REMARK  6 active torsions:
REMARK  status: ('A' for Active; 'I' for Inactive)
REMARK    1  A    between atoms: C4_4  and  C7_7 
REMARK    2  A    between atoms: C7_7  and  N1_8 
REMARK    3  A    between atoms: C8_9  and  N2_10 
REMARK    4  A    between atoms: C8_9  and  S1_11 
REMARK    5  A    between atoms: S1_11  and  C9_12 
REMARK    6  A    between atoms: C9_12  and  C10_13 
ROOT
ATOM      1  S1  <0> d          -1.260   3.395   0.232  0.00  0.00    -0.088 SA
ENDROOT
BRANCH   1   2
ATOM      2  C8  <0> d          -1.226   1.637   0.125  0.00  0.00     0.155 C 
ATOM      3  N1  <0> d          -2.331   0.974  -0.080  0.00  0.00    -0.263 NA
BRANCH   3   4
ATOM      4  C7  <0> d          -2.316  -0.491  -0.088  0.00  0.00     0.190 C 
BRANCH   4   5
ATOM      5  C4  <0> d          -3.120  -1.008   1.077  0.00  0.00    -0.038 A 
ATOM      6  C3  <0> d          -4.472  -1.251   0.929  0.00  0.00     0.009 A 
ATOM      7  C2  <0> d          -5.210  -1.726   1.997  0.00  0.00     0.001 A 
ATOM      8  C1  <0> d          -4.595  -1.957   3.214  0.00  0.00     0.000 A 
ATOM      9  C6  <0> d          -3.242  -1.714   3.361  0.00  0.00     0.001 A 
ATOM     10  C5  <0> d          -2.503  -1.244   2.291  0.00  0.00     0.009 A 
ENDBRANCH   4   5
ENDBRANCH   3   4
BRANCH   2  11
ATOM     11  N2  <0> d          -0.034   0.962   0.259  0.00  0.00    -0.379 N 
ATOM     12  H8  <0> d          -0.025  -0.007   0.279  0.00  0.00     0.158 HD
ATOM     13  H9  <0> d           0.797   1.457   0.329  0.00  0.00     0.158 HD
ENDBRANCH   2  11
ENDBRANCH   1   2
BRANCH   1  14
ATOM     14  C9  <0> d          -3.029   3.691  -0.011  0.00  0.00     0.123 C 
BRANCH  14  15
ATOM     15  C10 <0> d          -3.303   5.171   0.042  0.00  0.00    -0.011 A 
ATOM     16  C15 <0> d          -3.610   5.777   1.252  0.00  0.00     0.087 A 
ATOM     17  C14 <0> d          -3.854   7.141   1.301  0.00  0.00     0.003 A 
ATOM     18  O1  <0> d          -3.668   5.024   2.384  0.00  0.00    -0.325 OA
ATOM     19  C13 <0> d          -3.806   7.892   0.142  0.00  0.00     0.054 A 
ATOM     20  C17 <0> d          -4.173   7.813   2.612  0.00  0.00     0.212 C 
ATOM     21  C12 <0> d          -3.506   7.285  -1.066  0.00  0.00     0.117 A 
ATOM     22  C11 <0> d          -3.254   5.925  -1.115  0.00  0.00     0.053 A 
ATOM     23  F1  <0> d          -3.460   8.021  -2.198  0.00  0.00    -0.206 F 
ATOM     24  O2  <0> d          -4.548   6.817   3.574  0.00  0.00    -0.362 OA
ATOM     25  C16 <0> d          -3.622   5.726   3.630  0.00  0.00     0.345 C 
ENDBRANCH  14  15
ENDBRANCH   1  14
TORSDOF 6
