REMARK  6 active torsions:
REMARK  status: ('A' for Active; 'I' for Inactive)
REMARK    1  A    between atoms: C3_4  and  S1_11 
REMARK    2  A    between atoms: S1_11  and  N3_14 
REMARK    3  A    between atoms: N3_14  and  C7_15 
REMARK    4  A    between atoms: C7_15  and  C8_16 
REMARK    5  A    between atoms: C11_19  and  O5_22 
REMARK    6  A    between atoms: O5_22  and  C14_23 
ROOT
ATOM      1  S1  <0> d          -2.666  -2.961  -0.001  0.00  0.00     0.265 S 
ATOM      2  O3  <0> d          -2.499  -4.017   0.935  0.00  0.00    -0.200 OA
ATOM      3  O4  <0> d          -3.717  -2.011   0.102  0.00  0.00    -0.200 OA
ENDROOT
BRANCH   1   4
ATOM      4  C3  <0> d          -1.159  -2.048  -0.004  0.00  0.00     0.163 A 
ATOM      5  C2  <0> d          -1.177  -0.698   0.004  0.00  0.00     0.126 A 
ATOM      6  N1  <0> d           0.002  -0.004   0.002  0.00  0.00    -0.312 N 
ATOM      7  C1  <0> d          -0.018   1.461   0.010  0.00  0.00     0.160 C 
ATOM      8  C5  <0> d           1.180  -0.654  -0.013  0.00  0.00     0.330 A 
ATOM      9  N2  <0> d           1.227  -2.000  -0.016  0.00  0.00    -0.269 N 
ATOM     10  O2  <0> d           2.216  -0.018  -0.019  0.00  0.00    -0.246 OA
ATOM     11  C4  <0> d           0.087  -2.720  -0.014  0.00  0.00     0.276 A 
ATOM     12  C6  <0> d           2.522  -2.684  -0.026  0.00  0.00     0.164 C 
ATOM     13  O1  <0> d           0.129  -3.937  -0.022  0.00  0.00    -0.266 OA
ENDBRANCH   1   4
BRANCH   1  14
ATOM     14  N3  <0> d          -2.812  -3.669  -1.491  0.00  0.00    -0.311 N 
ATOM     15  H8  <0> d          -3.535  -3.409  -2.083  0.00  0.00     0.172 HD
BRANCH  14  16
ATOM     16  C7  <0> d          -1.849  -4.689  -1.915  0.00  0.00     0.170 C 
BRANCH  16  17
ATOM     17  C8  <0> d          -2.393  -5.426  -3.112  0.00  0.00    -0.040 A 
ATOM     18  C13 <0> d          -2.120  -4.968  -4.388  0.00  0.00     0.011 A 
ATOM     19  C12 <0> d          -2.612  -5.646  -5.486  0.00  0.00     0.037 A 
ATOM     20  C11 <0> d          -3.390  -6.781  -5.308  0.00  0.00     0.074 A 
ATOM     21  C10 <0> d          -3.667  -7.235  -4.027  0.00  0.00     0.037 A 
ATOM     22  C9  <0> d          -3.168  -6.557  -2.932  0.00  0.00     0.011 A 
BRANCH  20  23
ATOM     23  O5  <0> d          -3.880  -7.446  -6.387  0.00  0.00    -0.290 OA
BRANCH  23  24
ATOM     24  C14 <0> d          -3.554  -6.921  -7.676  0.00  0.00     0.505 C 
ATOM     25  F1  <0> d          -4.045  -5.616  -7.785  0.00  0.00    -0.184 F 
ATOM     26  F2  <0> d          -2.165  -6.912  -7.838  0.00  0.00    -0.184 F 
ENDBRANCH  23  24
ENDBRANCH  20  23
ENDBRANCH  16  17
ENDBRANCH  14  16
ENDBRANCH   1  14
TORSDOF 6
