REMARK  5 active torsions:
REMARK  status: ('A' for Active; 'I' for Inactive)
REMARK    1  A    between atoms: N1_5  and  C7_8 
REMARK    2  A    between atoms: C7_8  and  C8_9 
REMARK    3  A    between atoms: C8_9  and  C9_11 
REMARK    4  A    between atoms: N2_13  and  C13_20 
REMARK    5  A    between atoms: C13_20  and  C14_21 
ROOT
ATOM      1  C9  <0> d           0.056  -1.931   1.253  0.00  0.00     0.123 A 
ATOM      2  C10 <0> d           0.049  -0.535   1.093  0.00  0.00     0.124 A 
ATOM      3  N2  <0> d           0.012  -0.015  -0.169  0.00  0.00    -0.284 N 
ATOM      4  C11 <0> d          -0.021  -0.809  -1.251  0.00  0.00     0.331 A 
ATOM      5  O2  <0> d          -0.058  -0.297  -2.352  0.00  0.00    -0.246 OA
ATOM      6  N3  <0> d          -0.011  -2.149  -1.160  0.00  0.00    -0.274 N 
ATOM      7  H1  <0> d          -0.030  -2.762  -2.074  0.00  0.00     0.173 HD
ATOM      8  C12 <0> d           0.025  -2.761   0.041  0.00  0.00     0.267 A 
ATOM      9  O3  <0> d           0.030  -3.976   0.120  0.00  0.00    -0.267 OA
ATOM     10  N4  <0> d           0.077   0.285   2.178  0.00  0.00    -0.384 N 
ATOM     11  H25 <0> d           0.071   1.377   2.043  0.00  0.00     0.157 HD
ATOM     12  H26 <0> d           0.107  -0.143   3.191  0.00  0.00     0.157 HD
ENDROOT
BRANCH   1  13
ATOM     13  C8  <0> d           0.093  -2.518   2.536  0.00  0.00     0.194 C 
ATOM     14  O1  <0> d           0.010  -1.818   3.526  0.00  0.00    -0.290 OA
BRANCH  13  15
ATOM     15  C7  <0> d           0.236  -4.011   2.679  0.00  0.00     0.318 C 
BRANCH  15  16
ATOM     16  N1  <0> d           0.249  -4.368   4.104  0.00  0.00    -0.064 N 
ATOM     17  C4  <0> d           0.148  -5.822   4.283  0.00  0.00     0.235 C 
ATOM     18  C3  <0> d           0.017  -6.146   5.773  0.00  0.00     0.032 C 
ATOM     19  C2  <0> d           1.241  -5.604   6.517  0.00  0.00    -0.015 C 
ATOM     20  C1  <0> d           1.088  -5.872   8.016  0.00  0.00     0.010 C 
ATOM     21  C6  <0> d           1.350  -4.096   6.274  0.00  0.00     0.032 C 
ATOM     22  C5  <0> d           1.442  -3.832   4.770  0.00  0.00     0.235 C 
ATOM     23  H27 <0> d          -0.633  -3.910   4.576  0.00  0.00     0.280 HD
ENDBRANCH  15  16
ENDBRANCH  13  15
ENDBRANCH   1  13
BRANCH   3  24
ATOM     24  C13 <0> d           0.003   1.440  -0.346  0.00  0.00     0.139 C 
BRANCH  24  25
ATOM     25  C14 <0> d           1.442   1.950  -0.448  0.00  0.00    -0.004 C 
ATOM     26  C15 <0> d           2.092   1.392  -1.715  0.00  0.00     0.011 C 
ATOM     27  C16 <0> d           1.437   3.479  -0.508  0.00  0.00     0.011 C 
ENDBRANCH  24  25
ENDBRANCH   3  24
TORSDOF 5
