REMARK  5 active torsions:
REMARK  status: ('A' for Active; 'I' for Inactive)
REMARK    1  A    between atoms: C2_2  and  C3_3 
REMARK    2  A    between atoms: C2_2  and  N1_6 
REMARK       I    between atoms: N1_6  and  C6_7 
REMARK    3  A    between atoms: C6_7  and  C7_9 
REMARK    4  A    between atoms: C9_12  and  S1_14 
REMARK    5  A    between atoms: S1_14  and  N3_17 
ROOT
ATOM      1  C7  <0> d           0.763  -1.121   3.549  0.00  0.00     0.106 A 
ATOM      2  N2  <0> d           2.020  -1.445   3.631  0.00  0.00    -0.258 NA
ATOM      3  C8  <0> d           2.388  -1.857   4.849  0.00  0.00     0.138 A 
ATOM      4  C9  <0> d           1.376  -1.844   5.721  0.00  0.00     0.080 A 
ATOM      5  C10 <0> d           0.181  -1.341   4.932  0.00  0.00     0.119 A 
ENDROOT
BRANCH   1   6
ATOM      6  C6  <0> d           0.051  -0.633   2.355  0.00  0.00     0.266 C 
ATOM      7  N1  <0> d           0.711  -0.489   1.189  0.00  0.00    -0.351 N 
ATOM      8  H12 <0> d           1.654  -0.707   1.135  0.00  0.00     0.163 HD
ATOM      9  O1  <0> d          -1.132  -0.361   2.423  0.00  0.00    -0.266 OA
BRANCH   7  10
ATOM     10  C2  <0> d           0.002  -0.004   0.002  0.00  0.00     0.084 C 
ATOM     11  C1  <0> d          -0.019   1.526   0.010  0.00  0.00     0.032 C 
BRANCH  10  12
ATOM     12  C3  <0> d           0.718  -0.497  -1.257  0.00  0.00    -0.000 C 
ATOM     13  C4  <0> d           0.739  -2.027  -1.265  0.00  0.00     0.011 C 
ATOM     14  C5  <0> d          -0.022   0.009  -2.496  0.00  0.00     0.011 C 
ENDBRANCH  10  12
ENDBRANCH   7  10
ENDBRANCH   1   6
BRANCH   4  15
ATOM     15  S1  <0> d           1.421  -2.305   7.421  0.00  0.00     0.259 S 
ATOM     16  O2  <0> d           2.789  -2.499   7.753  0.00  0.00    -0.201 OA
ATOM     17  O3  <0> d           0.592  -1.382   8.114  0.00  0.00    -0.201 OA
BRANCH  15  18
ATOM     18  N3  <0> d           0.689  -3.785   7.546  0.00  0.00    -0.303 N 
ATOM     19  C14 <0> d           1.468  -5.028   7.421  0.00  0.00     0.161 C 
ATOM     20  C13 <0> d           0.775  -5.937   6.404  0.00  0.00     0.188 C 
ATOM     21  O4  <0> d          -0.601  -6.082   6.762  0.00  0.00    -0.388 OA
ATOM     22  C12 <0> d          -1.344  -4.861   6.741  0.00  0.00     0.188 C 
ATOM     23  C11 <0> d          -0.759  -3.897   7.780  0.00  0.00     0.161 C 
ENDBRANCH  15  18
ENDBRANCH   4  15
TORSDOF 5
