REMARK  0 active torsions:
REMARK  status: ('A' for Active; 'I' for Inactive)
ROOT
ATOM      1  C1  <0> d          -0.153   3.233   5.119  0.00  0.00     0.003 A 
ATOM      2  C2  <0> d           1.051   3.899   5.249  0.00  0.00     0.003 A 
ATOM      3  C3  <0> d           1.774   4.251   4.125  0.00  0.00     0.039 A 
ATOM      4  C4  <0> d           1.293   3.937   2.864  0.00  0.00     0.102 A 
ATOM      5  C5  <0> d           0.082   3.265   2.733  0.00  0.00     0.102 A 
ATOM      6  C6  <0> d          -0.639   2.915   3.864  0.00  0.00     0.039 A 
ATOM      7  O1  <0> d          -0.394   2.949   1.499  0.00  0.00    -0.347 OA
ATOM      8  C7  <0> d          -0.729   1.579   1.267  0.00  0.00     0.203 C 
ATOM      9  C8  <0> d          -0.013   1.086   0.008  0.00  0.00     0.259 C 
ATOM     10  C9  <0> d          -0.399   0.757  -2.360  0.00  0.00     0.259 C 
ATOM     11  C10 <0> d          -0.648   1.574  -3.629  0.00  0.00     0.203 C 
ATOM     12  O2  <0> d           0.088   2.797  -3.560  0.00  0.00    -0.347 OA
ATOM     13  C11 <0> d           0.568   3.293  -4.732  0.00  0.00     0.102 A 
ATOM     14  C12 <0> d          -0.096   3.031  -5.920  0.00  0.00     0.039 A 
ATOM     15  C13 <0> d           0.393   3.534  -7.111  0.00  0.00     0.003 A 
ATOM     16  C14 <0> d           1.544   4.301  -7.120  0.00  0.00     0.003 A 
ATOM     17  C15 <0> d           2.210   4.567  -5.939  0.00  0.00     0.039 A 
ATOM     18  C16 <0> d           1.726   4.065  -4.742  0.00  0.00     0.102 A 
ATOM     19  O3  <0> d           2.380   4.328  -3.579  0.00  0.00    -0.346 OA
ATOM     20  C17 <0> d           2.540   5.703  -3.223  0.00  0.00     0.201 C 
ATOM     21  C18 <0> d           1.622   6.034  -2.045  0.00  0.00     0.194 C 
ATOM     22  O4  <0> d           2.302   5.756  -0.819  0.00  0.00    -0.387 OA
ATOM     23  C19 <0> d           1.608   6.206   0.346  0.00  0.00     0.194 C 
ATOM     24  C20 <0> d           2.311   5.671   1.595  0.00  0.00     0.201 C 
ATOM     25  O5  <0> d           2.003   4.285   1.758  0.00  0.00    -0.346 OA
ATOM     26  N1  <0> d          -0.730   1.581  -1.182  0.00  0.00    -0.071 N 
ATOM     27  H25 <0> d          -0.457   2.554  -1.362  0.00  0.00     0.277 HD
ATOM     28  H26 <0> d          -1.742   1.536  -1.011  0.00  0.00     0.277 HD
ENDROOT
TORSDOF 0
