REMARK  2 active torsions:
REMARK  status: ('A' for Active; 'I' for Inactive)
REMARK    1  A    between atoms: C7_7  and  N1_8 
REMARK       I    between atoms: N1_8  and  C8_9 
REMARK    2  A    between atoms: C8_9  and  C9_11 
ROOT
ATOM      1  C9  <0> d           0.259   0.019   4.855  0.00  0.00     0.079 A 
ATOM      2  C10 <0> d           0.391  -0.678   6.047  0.00  0.00     0.022 A 
ATOM      3  C11 <0> d           0.499   0.038   7.239  0.00  0.00     0.018 A 
ATOM      4  C12 <0> d           0.490   1.387   7.239  0.00  0.00     0.092 A 
ATOM      5  N2  <0> d           0.380   2.128   6.095  0.00  0.00    -0.339 N 
ATOM      6  C13 <0> d           0.240   1.499   4.888  0.00  0.00     0.158 A 
ATOM      7  N3  <0> d           0.070   2.094   3.736  0.00  0.00    -0.145 NA
ATOM      8  S1  <0> d           0.019   3.743   3.596  0.00  0.00     0.254 S 
ATOM      9  O2  <0> d          -1.017   4.004   2.659  0.00  0.00    -0.204 OA
ATOM     10  O3  <0> d           1.359   4.133   3.329  0.00  0.00    -0.204 OA
ATOM     11  C14 <0> d          -0.480   4.281   5.263  0.00  0.00     0.185 C 
ATOM     12  C15 <0> d           0.439   3.583   6.259  0.00  0.00     0.147 C 
ENDROOT
BRANCH   1  13
ATOM     13  C8  <0> d           0.147  -0.700   3.580  0.00  0.00     0.260 C 
ATOM     14  N1  <0> d           0.043  -2.043   3.570  0.00  0.00    -0.322 N 
ATOM     15  H8  <0> d          -0.048  -2.529   4.405  0.00  0.00     0.169 HD
ATOM     16  O1  <0> d           0.148  -0.082   2.531  0.00  0.00    -0.267 OA
BRANCH  14  17
ATOM     17  C7  <0> d           0.064  -2.737   2.356  0.00  0.00     0.041 A 
ATOM     18  C2  <0> d          -0.270  -4.085   2.319  0.00  0.00    -0.035 A 
ATOM     19  C1  <0> d          -0.658  -4.801   3.587  0.00  0.00     0.050 C 
ATOM     20  C3  <0> d          -0.253  -4.766   1.118  0.00  0.00     0.009 A 
ATOM     21  C4  <0> d           0.103  -4.110  -0.046  0.00  0.00     0.001 A 
ATOM     22  C5  <0> d           0.442  -2.769  -0.012  0.00  0.00     0.002 A 
ATOM     23  C6  <0> d           0.426  -2.082   1.186  0.00  0.00     0.030 A 
ENDBRANCH  14  17
ENDBRANCH   1  13
TORSDOF 2
