REMARK  6 active torsions:
REMARK  status: ('A' for Active; 'I' for Inactive)
REMARK    1  A    between atoms: C3_3  and  S2_21 
REMARK    2  A    between atoms: C6_6  and  N1_7 
REMARK    3  A    between atoms: N1_7  and  C7_8 
REMARK       I    between atoms: N2_10  and  C8_11 
REMARK    4  A    between atoms: C8_11  and  C9_13 
REMARK    5  A    between atoms: S2_21  and  N3_24 
REMARK    6  A    between atoms: N3_24  and  C15_25 
ROOT
ATOM      1  C1  <0> d          -1.132  10.014  -0.057  0.00  0.00     0.031 A 
ATOM      2  C2  <0> d          -1.064  11.392  -0.106  0.00  0.00     0.027 A 
ATOM      3  C3  <0> d          -2.223  12.146  -0.065  0.00  0.00     0.080 A 
ATOM      4  C4  <0> d          -3.454  11.521   0.019  0.00  0.00     0.027 A 
ATOM      5  C5  <0> d          -3.530  10.143   0.064  0.00  0.00     0.031 A 
ATOM      6  C6  <0> d          -2.368   9.384   0.023  0.00  0.00     0.034 A 
ENDROOT
BRANCH   6   7
ATOM      7  N1  <0> d          -2.441   7.988   0.067  0.00  0.00    -0.333 N 
ATOM      8  H5  <0> d          -1.846   7.489   0.650  0.00  0.00     0.168 HD
BRANCH   7   9
ATOM      9  C7  <0> d          -3.337   7.335  -0.699  0.00  0.00     0.179 C 
ATOM     10  S1  <0> d          -4.459   8.218  -1.645  0.00  0.00    -0.040 SA
ATOM     11  N2  <0> d          -3.351   5.987  -0.721  0.00  0.00    -0.299 N 
ATOM     12  C8  <0> d          -4.247   5.335  -1.487  0.00  0.00     0.257 C 
ATOM     13  H6  <0> d          -2.715   5.487  -0.185  0.00  0.00     0.171 HD
ATOM     14  O1  <0> d          -5.043   5.962  -2.158  0.00  0.00    -0.267 OA
BRANCH  12  15
ATOM     15  C9  <0> d          -4.262   3.857  -1.511  0.00  0.00     0.035 A 
ATOM     16  C14 <0> d          -3.349   3.135  -0.740  0.00  0.00     0.041 A 
ATOM     17  C13 <0> d          -3.372   1.754  -0.762  0.00  0.00     0.036 A 
ATOM     18  C12 <0> d          -4.291   1.087  -1.555  0.00  0.00     0.047 A 
ATOM     19 Cl1  <0> d          -2.243   0.854   0.201  0.00  0.00    -0.084 Cl
ATOM     20  C11 <0> d          -5.199   1.798  -2.321  0.00  0.00     0.036 A 
ATOM     21  C10 <0> d          -5.189   3.179  -2.303  0.00  0.00     0.041 A 
ATOM     22 Cl2  <0> d          -6.351   0.952  -3.306  0.00  0.00    -0.084 Cl
ENDBRANCH  12  15
ENDBRANCH   7   9
ENDBRANCH   6   7
BRANCH   3  23
ATOM     23  S2  <0> d          -2.131  13.904  -0.121  0.00  0.00     0.264 S 
ATOM     24  O2  <0> d          -0.897  14.227  -0.749  0.00  0.00    -0.200 OA
ATOM     25  O3  <0> d          -3.381  14.361  -0.618  0.00  0.00    -0.200 OA
BRANCH  23  26
ATOM     26  N3  <0> d          -2.019  14.438   1.443  0.00  0.00    -0.258 N 
ATOM     27  H10 <0> d          -2.734  14.971   1.825  0.00  0.00     0.181 HD
BRANCH  26  28
ATOM     28  C15 <0> d          -0.905  14.124   2.205  0.00  0.00     0.179 A 
ATOM     29  S3  <0> d          -0.550  14.556   3.849  0.00  0.00    -0.062 SA
ATOM     30  C17 <0> d           1.035  13.740   3.967  0.00  0.00     0.072 A 
ATOM     31  C16 <0> d           1.140  13.211   2.725  0.00  0.00     0.126 A 
ATOM     32  N4  <0> d           0.155  13.414   1.869  0.00  0.00    -0.236 NA
ENDBRANCH  26  28
ENDBRANCH  23  26
ENDBRANCH   3  23
TORSDOF 6
