REMARK  6 active torsions:
REMARK  status: ('A' for Active; 'I' for Inactive)
REMARK    1  A    between atoms: C5_5  and  N1_8 
REMARK    2  A    between atoms: N1_8  and  S1_9 
REMARK    3  A    between atoms: S1_9  and  C8_12 
REMARK    4  A    between atoms: C9_13  and  C11_17 
REMARK       I    between atoms: C11_17  and  N4_19 
REMARK    5  A    between atoms: N4_19  and  C12_20 
REMARK    6  A    between atoms: C15_23  and  S2_26 
ROOT
ATOM      1  C8  <0> d           0.064  -6.762   0.950  0.00  0.00     0.315 A 
ATOM      2  C9  <0> d           0.016  -7.772   2.083  0.00  0.00     0.072 A 
ATOM      3  C10 <0> d          -1.045  -8.551   1.775  0.00  0.00     0.156 A 
ATOM      4  N2  <0> d          -1.617  -8.135   0.624  0.00  0.00    -0.165 NA
ATOM      5  N3  <0> d          -1.071  -7.157   0.099  0.00  0.00    -0.165 NA
ENDROOT
BRANCH   2   6
ATOM      6  C11 <0> d           0.913  -7.877   3.243  0.00  0.00     0.256 C 
ATOM      7  O3  <0> d           0.737  -8.752   4.070  0.00  0.00    -0.267 OA
ATOM      8  N4  <0> d           1.930  -7.005   3.390  0.00  0.00    -0.323 N 
ATOM      9  H10 <0> d           2.118  -6.358   2.693  0.00  0.00     0.169 HD
BRANCH   8  10
ATOM     10  C12 <0> d           2.714  -7.034   4.549  0.00  0.00     0.035 A 
ATOM     11  C17 <0> d           2.142  -7.381   5.767  0.00  0.00     0.031 A 
ATOM     12  C16 <0> d           2.916  -7.414   6.909  0.00  0.00     0.021 A 
ATOM     13  C15 <0> d           4.266  -7.091   6.843  0.00  0.00    -0.000 A 
ATOM     14  C14 <0> d           4.837  -6.738   5.626  0.00  0.00     0.021 A 
ATOM     15  C13 <0> d           4.063  -6.710   4.483  0.00  0.00     0.031 A 
BRANCH  13  16
ATOM     16  S2  <0> d           5.253  -7.128   8.301  0.00  0.00    -0.134 SA
ATOM     17  C18 <0> d           4.095  -7.631   9.603  0.00  0.00     0.095 C 
ENDBRANCH  13  16
ENDBRANCH   8  10
ENDBRANCH   2   6
BRANCH   1  18
ATOM     18  S1  <0> d          -0.164  -5.077   1.582  0.00  0.00     0.281 S 
ATOM     19  O1  <0> d           1.021  -4.632   2.227  0.00  0.00    -0.201 OA
ATOM     20  O2  <0> d          -1.426  -4.963   2.226  0.00  0.00    -0.201 OA
BRANCH  18  21
ATOM     21  N1  <0> d          -0.292  -4.129   0.230  0.00  0.00    -0.163 NA
BRANCH  21  22
ATOM     22  C5  <0> d          -0.478  -2.751   0.358  0.00  0.00     0.069 A 
ATOM     23  C4  <0> d          -0.586  -1.955  -0.774  0.00  0.00     0.033 A 
ATOM     24  C3  <0> d          -0.770  -0.592  -0.644  0.00  0.00     0.009 A 
ATOM     25  C2  <0> d          -0.849  -0.021   0.613  0.00  0.00    -0.062 A 
ATOM     26  C1  <0> d          -1.050   1.466   0.752  0.00  0.00     0.048 C 
ATOM     27  C7  <0> d          -0.736  -0.810   1.743  0.00  0.00     0.009 A 
ATOM     28  C6  <0> d          -0.557  -2.174   1.619  0.00  0.00     0.033 A 
ENDBRANCH  21  22
ENDBRANCH  18  21
ENDBRANCH   1  18
TORSDOF 6
