REMARK  3 active torsions:
REMARK  status: ('A' for Active; 'I' for Inactive)
REMARK    1  A    between atoms: C6_6  and  C7_7 
REMARK    2  A    between atoms: C9_9  and  C10_13 
REMARK       I    between atoms: C10_13  and  N3_15 
REMARK    3  A    between atoms: N3_15  and  N4_16 
ROOT
ATOM      1  C10 <0> d          -3.427  -3.719   0.024  0.00  0.00     0.289 C 
ATOM      2  O1  <0> d          -2.761  -4.736   0.018  0.00  0.00    -0.264 OA
ATOM      3  N3  <0> d          -4.773  -3.794   0.034  0.00  0.00    -0.241 N 
ATOM      4  H7  <0> d          -5.304  -2.982   0.039  0.00  0.00     0.192 HD
ENDROOT
BRANCH   1   5
ATOM      5  C9  <0> d          -2.764  -2.406   0.020  0.00  0.00     0.121 A 
ATOM      6  C8  <0> d          -1.402  -2.167   0.010  0.00  0.00     0.071 A 
ATOM      7  C7  <0> d          -1.272  -0.766   0.011  0.00  0.00     0.089 A 
ATOM      8  N2  <0> d          -2.485  -0.254   0.026  0.00  0.00    -0.174 NA
ATOM      9  N1  <0> d          -3.372  -1.182   0.026  0.00  0.00    -0.272 N 
ATOM     10  H1  <0> d          -4.331  -1.036   0.034  0.00  0.00     0.189 HD
BRANCH   7  11
ATOM     11  C6  <0> d           0.002  -0.004   0.002  0.00  0.00    -0.006 A 
ATOM     12  C1  <0> d          -0.017   1.389   0.010  0.00  0.00     0.015 A 
ATOM     13  C2  <0> d           1.170   2.093   0.002  0.00  0.00     0.020 A 
ATOM     14  C3  <0> d           2.378   1.417  -0.013  0.00  0.00     0.011 A 
ATOM     15  C4  <0> d           2.402   0.033  -0.021  0.00  0.00     0.020 A 
ATOM     16 Br2  <0> d           4.001   2.388  -0.025  0.00  0.00    -0.051 Br
ATOM     17  C5  <0> d           1.220  -0.680  -0.013  0.00  0.00     0.015 A 
ENDBRANCH   7  11
ENDBRANCH   1   5
BRANCH   3  18
ATOM     18  N4  <0> d          -5.405  -5.044   0.038  0.00  0.00    -0.165 NA
ATOM     19  C11 <0> d          -6.714  -5.117   0.048  0.00  0.00     0.157 A 
ATOM     20  C18 <0> d          -7.677  -3.998   0.057  0.00  0.00     0.277 A 
ATOM     21  C12 <0> d          -7.549  -6.341   0.059  0.00  0.00     0.028 A 
ATOM     22  N5  <0> d          -8.916  -4.519   0.062  0.00  0.00    -0.321 N 
ATOM     23  O2  <0> d          -7.398  -2.813   0.057  0.00  0.00    -0.266 OA
ATOM     24  C17 <0> d          -8.882  -5.910   0.067  0.00  0.00     0.048 A 
ATOM     25  H11 <0> d          -9.730  -3.992   0.066  0.00  0.00     0.169 HD
ATOM     26  C16 <0> d          -9.899  -6.858   0.078  0.00  0.00     0.032 A 
ATOM     27  C15 <0> d          -9.592  -8.204   0.081  0.00  0.00     0.021 A 
ATOM     28  C14 <0> d          -8.272  -8.626   0.073  0.00  0.00     0.011 A 
ATOM     29  C13 <0> d          -7.249  -7.698   0.062  0.00  0.00     0.035 A 
ATOM     30 Br1  <0> d          -7.872 -10.474   0.076  0.00  0.00    -0.051 Br
ENDBRANCH   3  18
TORSDOF 3
