REMARK  7 active torsions:
REMARK  status: ('A' for Active; 'I' for Inactive)
REMARK    1  A    between atoms: C2_2  and  N1_3 
REMARK    2  A    between atoms: N1_3  and  C3_4 
REMARK    3  A    between atoms: N1_3  and  S1_9 
REMARK    4  A    between atoms: S1_9  and  C8_12 
REMARK    5  A    between atoms: C12_16  and  C14_18 
REMARK    6  A    between atoms: C15_19  and  C16_20 
REMARK    7  A    between atoms: C16_20  and  N2_21 
ROOT
ATOM      1  C8  <0> d          -2.616   1.112   1.970  0.00  0.00     0.081 A 
ATOM      2  C9  <0> d          -1.766   2.000   2.605  0.00  0.00     0.025 A 
ATOM      3  C10 <0> d          -2.182   3.291   2.876  0.00  0.00     0.003 A 
ATOM      4  C11 <0> d          -3.449   3.701   2.514  0.00  0.00     0.021 A 
ATOM      5  C12 <0> d          -4.311   2.811   1.873  0.00  0.00     0.019 A 
ATOM      6  C13 <0> d          -3.883   1.511   1.598  0.00  0.00     0.045 A 
ENDROOT
BRANCH   1   7
ATOM      7  S1  <0> d          -2.076  -0.531   1.628  0.00  0.00     0.261 S 
ATOM      8  O1  <0> d          -3.248  -1.327   1.512  0.00  0.00    -0.200 OA
ATOM      9  O2  <0> d          -1.047  -0.823   2.563  0.00  0.00    -0.200 OA
BRANCH   7  10
ATOM     10  N1  <0> d          -1.366  -0.512   0.133  0.00  0.00    -0.302 N 
BRANCH  10  11
ATOM     11  C2  <0> d           0.069  -0.246   0.007  0.00  0.00     0.131 C 
ATOM     12  C1  <0> d           0.294   1.251  -0.212  0.00  0.00     0.027 C 
ENDBRANCH  10  11
BRANCH  10  13
ATOM     13  C3  <0> d          -2.173  -0.760  -1.065  0.00  0.00     0.096 C 
ATOM     14  C7  <0> d          -2.240   0.512  -1.928  0.00  0.00     0.026 C 
ATOM     15  C6  <0> d          -1.614   0.153  -3.291  0.00  0.00     0.002 C 
ATOM     16  C5  <0> d          -1.770  -1.385  -3.388  0.00  0.00     0.002 C 
ATOM     17  C4  <0> d          -1.507  -1.848  -1.934  0.00  0.00     0.026 C 
ENDBRANCH  10  13
ENDBRANCH   7  10
ENDBRANCH   1   7
BRANCH   5  18
ATOM     18  C14 <0> d          -5.627   3.230   1.496  0.00  0.00    -0.065 C 
ATOM     19  C15 <0> d          -6.706   3.574   1.186  0.00  0.00    -0.074 C 
BRANCH  19  20
ATOM     20  C16 <0> d          -8.059   4.005   0.798  0.00  0.00     0.323 C 
BRANCH  20  21
ATOM     21  N2  <0> d          -8.759   2.891   0.145  0.00  0.00    -0.069 N 
ATOM     22  H21 <0> d          -8.247   2.607  -0.677  0.00  0.00     0.275 HD
ATOM     23  H22 <0> d          -8.824   2.113   0.785  0.00  0.00     0.275 HD
ATOM     24  H23 <0> d          -9.686   3.186  -0.121  0.00  0.00     0.275 HD
ENDBRANCH  20  21
ENDBRANCH  19  20
ENDBRANCH   5  18
TORSDOF 7
