REMARK  6 active torsions:
REMARK  status: ('A' for Active; 'I' for Inactive)
REMARK    1  A    between atoms: C6_6  and  S2_27 
REMARK       I    between atoms: N1_10  and  C10_11 
REMARK    2  A    between atoms: C10_11  and  C11_13 
REMARK    3  A    between atoms: C11_13  and  S1_14 
REMARK    4  A    between atoms: S1_14  and  C12_15 
REMARK    5  A    between atoms: C14_18  and  C16_21 
REMARK    6  A    between atoms: S2_27  and  N4_30 
ROOT
ATOM      1  C1  <0> d          -0.256   0.704   0.698  0.00  0.00     0.033 C 
ATOM      2  C2  <0> d           0.189   0.026  -0.599  0.00  0.00     0.093 A 
ATOM      3  C3  <0> d           1.698   0.223  -0.814  0.00  0.00     0.066 A 
ATOM      4  C4  <0> d           1.801   0.983  -2.117  0.00  0.00    -0.028 A 
ATOM      5  C5  <0> d           2.903   1.440  -2.815  0.00  0.00     0.034 A 
ATOM      6  C6  <0> d           2.736   2.121  -4.006  0.00  0.00     0.080 A 
ATOM      7  C7  <0> d           1.464   2.345  -4.499  0.00  0.00     0.027 A 
ATOM      8  C8  <0> d           0.362   1.891  -3.806  0.00  0.00     0.032 A 
ATOM      9  C9  <0> d           0.522   1.202  -2.602  0.00  0.00     0.044 A 
ATOM     10  N1  <0> d          -0.450   0.663  -1.754  0.00  0.00    -0.312 N 
ATOM     11  C10 <0> d          -1.780   0.722  -1.966  0.00  0.00     0.234 C 
ATOM     12  O1  <0> d          -2.544   0.222  -1.168  0.00  0.00    -0.272 OA
ENDROOT
BRANCH  11  13
ATOM     13  C11 <0> d          -2.317   1.407  -3.196  0.00  0.00     0.185 C 
BRANCH  13  14
ATOM     14  S1  <0> d          -4.125   1.319  -3.195  0.00  0.00    -0.083 SA
BRANCH  14  15
ATOM     15  C12 <0> d          -4.473   2.172  -4.697  0.00  0.00     0.169 A 
ATOM     16  N3  <0> d          -5.714   2.406  -5.207  0.00  0.00    -0.329 N 
ATOM     17  C14 <0> d          -5.537   3.101  -6.391  0.00  0.00     0.064 A 
ATOM     18  C15 <0> d          -6.992   2.002  -4.615  0.00  0.00     0.158 C 
ATOM     19  C13 <0> d          -4.197   3.260  -6.552  0.00  0.00     0.150 A 
ATOM     20  N2  <0> d          -3.580   2.692  -5.508  0.00  0.00    -0.234 NA
BRANCH  17  21
ATOM     21  C16 <0> d          -6.598   3.577  -7.303  0.00  0.00    -0.008 A 
ATOM     22  C21 <0> d          -7.907   3.724  -6.840  0.00  0.00     0.014 A 
ATOM     23  C20 <0> d          -8.892   4.169  -7.696  0.00  0.00     0.001 A 
ATOM     24  C19 <0> d          -8.586   4.468  -9.012  0.00  0.00     0.000 A 
ATOM     25  C18 <0> d          -7.291   4.325  -9.477  0.00  0.00     0.001 A 
ATOM     26  C17 <0> d          -6.295   3.887  -8.630  0.00  0.00     0.014 A 
ENDBRANCH  17  21
ENDBRANCH  14  15
ENDBRANCH  13  14
ENDBRANCH  11  13
BRANCH   6  27
ATOM     27  S2  <0> d           4.142   2.703  -4.895  0.00  0.00     0.256 S 
ATOM     28  O2  <0> d           3.695   3.784  -5.701  0.00  0.00    -0.201 OA
ATOM     29  O3  <0> d           5.192   2.842  -3.948  0.00  0.00    -0.201 OA
BRANCH  27  30
ATOM     30  N4  <0> d           4.598   1.496  -5.934  0.00  0.00    -0.324 N 
ATOM     31  H21 <0> d           4.102   0.663  -5.957  0.00  0.00     0.169 HD
ATOM     32  H22 <0> d           5.362   1.623  -6.518  0.00  0.00     0.169 HD
ENDBRANCH  27  30
ENDBRANCH   6  27
TORSDOF 6
