REMARK  7 active torsions:
REMARK  status: ('A' for Active; 'I' for Inactive)
REMARK    1  A    between atoms: O1_2  and  C2_3 
REMARK    2  A    between atoms: C2_3  and  C3_4 
REMARK    3  A    between atoms: C3_4  and  N1_5 
REMARK    4  A    between atoms: C5_7  and  C8_11 
REMARK       I    between atoms: C8_11  and  N2_13 
REMARK    5  A    between atoms: N2_13  and  C9_14 
REMARK    6  A    between atoms: C14_19  and  C15_20 
REMARK       I    between atoms: C15_20  and  N3_22 
REMARK    7  A    between atoms: N3_22  and  C16_23 
ROOT
ATOM      1  C16 <0> d         -10.058  -2.374  -0.497  0.00  0.00     0.216 C 
ATOM      2  C17 <0> d         -11.498  -2.430  -0.194  0.00  0.00    -0.098 C 
ATOM      3  C18 <0> d         -12.646  -2.475   0.047  0.00  0.00     0.014 C 
ENDROOT
BRANCH   1   4
ATOM      4  N3  <0> d          -9.385  -3.521   0.117  0.00  0.00    -0.346 N 
ATOM      5  C15 <0> d          -8.054  -3.678  -0.028  0.00  0.00     0.254 C 
ATOM      6  O4  <0> d          -7.412  -2.868  -0.668  0.00  0.00    -0.268 OA
ATOM      7  H18 <0> d          -9.897  -4.168   0.627  0.00  0.00     0.163 HD
BRANCH   5   8
ATOM      8  C14 <0> d          -7.376  -4.833   0.590  0.00  0.00     0.058 A 
ATOM      9  C9  <0> d          -5.979  -4.946   0.530  0.00  0.00     0.050 A 
ATOM     10  C10 <0> d          -5.352  -6.035   1.121  0.00  0.00     0.030 A 
ATOM     11  C11 <0> d          -6.101  -7.003   1.758  0.00  0.00     0.002 A 
ATOM     12  C12 <0> d          -7.482  -6.898   1.813  0.00  0.00     0.001 A 
ATOM     13  C13 <0> d          -8.122  -5.824   1.233  0.00  0.00     0.019 A 
BRANCH   9  14
ATOM     14  N2  <0> d          -5.225  -3.968  -0.113  0.00  0.00    -0.326 N 
ATOM     15  C8  <0> d          -3.939  -3.769   0.238  0.00  0.00     0.228 C 
ATOM     16  O3  <0> d          -3.468  -4.370   1.181  0.00  0.00    -0.273 OA
ATOM     17  H13 <0> d          -5.625  -3.430  -0.815  0.00  0.00     0.169 HD
BRANCH  15  18
ATOM     18  C5  <0> d          -3.087  -2.800  -0.539  0.00  0.00     0.105 C 
ATOM     19  C4  <0> d          -1.656  -2.733   0.040  0.00  0.00     0.140 C 
ATOM     20  N1  <0> d          -0.771  -2.572  -1.120  0.00  0.00    -0.349 N 
ATOM     21  C7  <0> d          -1.401  -2.894  -2.263  0.00  0.00     0.220 C 
ATOM     22  C6  <0> d          -2.823  -3.319  -1.972  0.00  0.00     0.118 C 
ATOM     23  O2  <0> d          -0.901  -2.852  -3.367  0.00  0.00    -0.273 OA
BRANCH  20  24
ATOM     24  C3  <0> d           0.618  -2.113  -1.043  0.00  0.00     0.152 C 
BRANCH  24  25
ATOM     25  C2  <0> d           0.658  -0.588  -1.157  0.00  0.00     0.186 C 
BRANCH  25  26
ATOM     26  O1  <0> d           0.005  -0.008  -0.026  0.00  0.00    -0.394 OA
ATOM     27  C1  <0> d          -0.013   1.420  -0.034  0.00  0.00     0.201 C 
ENDBRANCH  25  26
ENDBRANCH  24  25
ENDBRANCH  20  24
ENDBRANCH  15  18
ENDBRANCH   9  14
ENDBRANCH   5   8
ENDBRANCH   1   4
TORSDOF 7
