REMARK  6 active torsions:
REMARK  status: ('A' for Active; 'I' for Inactive)
REMARK       I    between atoms: C2_2  and  N1_4 
REMARK    1  A    between atoms: N1_4  and  C3_5 
REMARK    2  A    between atoms: C3_5  and  C4_6 
REMARK    3  A    between atoms: C4_6  and  C5_7 
REMARK    4  A    between atoms: C5_7  and  O3_9 
REMARK    5  A    between atoms: O3_9  and  C6_10 
REMARK    6  A    between atoms: C6_10  and  C7_11 
ROOT
ATOM      1  C7  <0> d          -1.759   5.809  -4.178  0.00  0.00     0.132 A 
ATOM      2  N2  <0> d          -1.651   4.504  -4.524  0.00  0.00    -0.309 N 
ATOM      3  H1  <0> d          -1.773   4.261  -5.456  0.00  0.00     0.170 HD
ATOM      4  C8  <0> d          -1.382   3.522  -3.632  0.00  0.00     0.260 A 
ATOM      5  O4  <0> d          -1.288   2.352  -3.962  0.00  0.00    -0.267 OA
ATOM      6  C9  <0> d          -1.213   3.947  -2.271  0.00  0.00     0.075 A 
ATOM      7  C10 <0> d          -0.921   3.104  -1.126  0.00  0.00    -0.026 A 
ATOM      8  C11 <0> d          -0.803   3.725   0.071  0.00  0.00    -0.008 A 
ATOM      9  S1  <0> d          -1.074   5.446  -0.270  0.00  0.00    -0.073 SA
ATOM     10  C12 <0> d          -1.343   5.329  -2.010  0.00  0.00     0.116 A 
ATOM     11  N3  <0> d          -1.610   6.237  -2.944  0.00  0.00    -0.225 NA
ATOM     12  C13 <0> d          -0.510   3.093   1.397  0.00  0.00     0.047 C 
ATOM     13  C14 <0> d          -0.726   1.578   1.270  0.00  0.00     0.005 C 
ATOM     14  C15 <0> d          -0.013   1.086   0.008  0.00  0.00     0.005 C 
ATOM     15  C16 <0> d          -0.749   1.591  -1.233  0.00  0.00     0.041 C 
ENDROOT
BRANCH   1  16
ATOM     16  C6  <0> d          -2.062   6.816  -5.257  0.00  0.00     0.257 C 
BRANCH  16  17
ATOM     17  O3  <0> d          -2.132   8.144  -4.673  0.00  0.00    -0.314 OA
BRANCH  17  18
ATOM     18  C5  <0> d          -2.396   9.163  -5.507  0.00  0.00     0.260 C 
ATOM     19  O2  <0> d          -2.563   8.952  -6.685  0.00  0.00    -0.265 OA
BRANCH  18  20
ATOM     20  C4  <0> d          -2.485  10.569  -4.973  0.00  0.00     0.130 C 
BRANCH  20  21
ATOM     21  C3  <0> d          -2.794  11.532  -6.121  0.00  0.00     0.132 C 
BRANCH  21  22
ATOM     22  N1  <0> d          -2.880  12.899  -5.602  0.00  0.00    -0.361 N 
ATOM     23  C2  <0> d          -3.145  13.922  -6.439  0.00  0.00     0.213 C 
ATOM     24  C1  <0> d          -3.234  15.329  -5.905  0.00  0.00     0.117 C 
ATOM     25  O1  <0> d          -3.312  13.711  -7.621  0.00  0.00    -0.274 OA
ATOM     26  H5  <0> d          -2.746  13.069  -4.656  0.00  0.00     0.162 HD
ENDBRANCH  21  22
ENDBRANCH  20  21
ENDBRANCH  18  20
ENDBRANCH  17  18
ENDBRANCH  16  17
ENDBRANCH   1  16
TORSDOF 6
