REMARK  6 active torsions:
REMARK  status: ('A' for Active; 'I' for Inactive)
REMARK    1  A    between atoms: C2_2  and  C3_3 
REMARK    2  A    between atoms: C2_2  and  S1_9 
REMARK       I    between atoms: C3_3  and  N1_5 
REMARK       I    between atoms: N1_5  and  C4_6 
REMARK       I    between atoms: C4_6  and  N2_8 
REMARK    3  A    between atoms: S1_9  and  C5_10 
REMARK    4  A    between atoms: C7_13  and  C12_19 
REMARK    5  A    between atoms: N4_14  and  C8_15 
REMARK    6  A    between atoms: C8_15  and  C9_16 
ROOT
ATOM      1  C5  <0> d          -2.387  -0.137   1.838  0.00  0.00     0.169 A 
ATOM      2  N3  <0> d          -1.863   0.730   2.676  0.00  0.00    -0.234 NA
ATOM      3  C6  <0> d          -2.758   1.035   3.624  0.00  0.00     0.150 A 
ATOM      4  C7  <0> d          -3.895   0.334   3.377  0.00  0.00     0.064 A 
ATOM      5  N4  <0> d          -3.661  -0.410   2.234  0.00  0.00    -0.324 N 
ENDROOT
BRANCH   1   6
ATOM      6  S1  <0> d          -1.578  -0.824   0.432  0.00  0.00    -0.078 SA
BRANCH   6   7
ATOM      7  C2  <0> d           0.070  -0.067   0.460  0.00  0.00     0.143 C 
ATOM      8  C1  <0> d          -0.057   1.441   0.236  0.00  0.00     0.031 C 
BRANCH   7   9
ATOM      9  C3  <0> d           0.917  -0.668  -0.632  0.00  0.00     0.239 C 
ATOM     10  O1  <0> d           0.391  -1.151  -1.611  0.00  0.00    -0.272 OA
ATOM     11  N1  <0> d           2.260  -0.668  -0.520  0.00  0.00    -0.279 N 
ATOM     12  C4  <0> d           3.018  -1.205  -1.496  0.00  0.00     0.320 C 
ATOM     13  H5  <0> d           2.682  -0.282   0.264  0.00  0.00     0.173 HD
ATOM     14  O2  <0> d           2.490  -1.689  -2.478  0.00  0.00    -0.247 OA
ATOM     15  N2  <0> d           4.361  -1.206  -1.384  0.00  0.00    -0.352 N 
ATOM     16  H6  <0> d           4.782  -0.819  -0.600  0.00  0.00     0.160 HD
ATOM     17  H7  <0> d           4.907  -1.592  -2.087  0.00  0.00     0.160 HD
ENDBRANCH   7   9
ENDBRANCH   6   7
ENDBRANCH   1   6
BRANCH   5  18
ATOM     18  C8  <0> d          -4.602  -1.320   1.577  0.00  0.00     0.135 C 
BRANCH  18  19
ATOM     19  C9  <0> d          -4.437  -2.728   2.153  0.00  0.00    -0.004 C 
ATOM     20  C10 <0> d          -5.513  -3.647   1.571  0.00  0.00     0.011 C 
ATOM     21  C11 <0> d          -3.053  -3.269   1.787  0.00  0.00     0.011 C 
ENDBRANCH  18  19
ENDBRANCH   5  18
BRANCH   4  22
ATOM     22  C12 <0> d          -5.141   0.364   4.172  0.00  0.00    -0.008 A 
ATOM     23  C17 <0> d          -5.387   1.421   5.050  0.00  0.00     0.015 A 
ATOM     24  C16 <0> d          -6.554   1.446   5.784  0.00  0.00     0.020 A 
ATOM     25  C15 <0> d          -7.476   0.420   5.660  0.00  0.00     0.011 A 
ATOM     26  C14 <0> d          -7.235  -0.634   4.795  0.00  0.00     0.020 A 
ATOM     27 Br1  <0> d          -9.070   0.459   6.676  0.00  0.00    -0.051 Br
ATOM     28  C13 <0> d          -6.074  -0.667   4.051  0.00  0.00     0.015 A 
ENDBRANCH   4  22
TORSDOF 6
