REMARK  4 active torsions:
REMARK  status: ('A' for Active; 'I' for Inactive)
REMARK    1  A    between atoms: C3_3  and  O1_9 
REMARK    2  A    between atoms: O1_9  and  C7_10 
REMARK    3  A    between atoms: C8_11  and  C15_19 
REMARK    4  A    between atoms: C15_19  and  N2_20 
ROOT
ATOM      1  C7  <0> d           3.479   3.461  -0.241  0.00  0.00     0.184 A 
ATOM      2  C8  <0> d           4.667   4.208  -0.238  0.00  0.00     0.061 A 
ATOM      3  C9  <0> d           4.580   5.603  -0.207  0.00  0.00     0.028 A 
ATOM      4  C10 <0> d           3.325   6.188  -0.181  0.00  0.00    -0.032 A 
ATOM      5  C11 <0> d           2.197   5.388  -0.186  0.00  0.00     0.043 A 
ATOM      6  N1  <0> d           2.307   4.069  -0.221  0.00  0.00    -0.228 NA
ATOM      7  C12 <0> d           0.957   6.258  -0.154  0.00  0.00     0.060 C 
ATOM      8  C13 <0> d           1.448   7.645   0.312  0.00  0.00     0.011 C 
ATOM      9  C14 <0> d           2.922   7.646  -0.144  0.00  0.00     0.041 C 
ENDROOT
BRANCH   1  10
ATOM     10  O1  <0> d           3.535   2.108  -0.271  0.00  0.00    -0.289 OA
BRANCH  10  11
ATOM     11  C3  <0> d           2.366   1.423  -0.378  0.00  0.00     0.101 A 
ATOM     12  C2  <0> d           1.723   0.967   0.763  0.00  0.00     0.039 A 
ATOM     13  C1  <0> d           0.534   0.271   0.653  0.00  0.00     0.005 A 
ATOM     14  C6  <0> d          -0.015   0.029  -0.592  0.00  0.00     0.026 A 
ATOM     15  C5  <0> d           0.624   0.483  -1.733  0.00  0.00     0.058 A 
ATOM     16  C4  <0> d           1.814   1.180  -1.628  0.00  0.00     0.089 A 
ATOM     17 Cl1  <0> d          -0.069   0.178  -3.295  0.00  0.00    -0.082 Cl
ATOM     18 Cl2  <0> d           2.616   1.751  -3.058  0.00  0.00    -0.080 Cl
ENDBRANCH  10  11
ENDBRANCH   1  10
BRANCH   2  19
ATOM     19  C15 <0> d           5.981   3.535  -0.266  0.00  0.00     0.107 C 
ATOM     20  N3  <0> d           6.288   2.636   0.668  0.00  0.00    -0.385 N 
ATOM     21  H12 <0> d           5.650   2.424   1.367  0.00  0.00     0.157 HD
ATOM     22  H13 <0> d           7.152   2.193   0.650  0.00  0.00     0.157 HD
BRANCH  19  23
ATOM     23  N2  <0> d           6.858   3.826  -1.225  0.00  0.00    -0.385 N 
ATOM     24  H11 <0> d           6.607   4.422  -1.948  0.00  0.00     0.157 HD
ATOM     25  H14 <0> d           7.749   3.442  -1.201  0.00  0.00     0.157 HD
ENDBRANCH  19  23
ENDBRANCH   2  19
TORSDOF 4
