REMARK  8 active torsions:
REMARK  status: ('A' for Active; 'I' for Inactive)
REMARK    1  A    between atoms: C3_4  and  C6_9 
REMARK    2  A    between atoms: C4_5  and  O1_7 
REMARK       I    between atoms: C6_9  and  N3_11 
REMARK    3  A    between atoms: N4_14  and  C11_17 
REMARK    4  A    between atoms: C11_17  and  C12_18 
REMARK    5  A    between atoms: C12_18  and  N5_19 
REMARK       I    between atoms: N5_19  and  C13_20 
REMARK    6  A    between atoms: C13_20  and  C14_22 
REMARK    7  A    between atoms: C17_25  and  C20_28 
REMARK    8  A    between atoms: C20_28  and  N6_29 
ROOT
ATOM      1  C11 <0> d          -2.319  -2.751  -6.384  0.00  0.00     0.292 C 
ENDROOT
BRANCH   1   2
ATOM      2  N4  <0> d          -1.271  -2.884  -5.364  0.00  0.00     0.093 N 
ATOM      3  C8  <0> d          -1.300  -1.752  -4.428  0.00  0.00     0.292 C 
ATOM      4  C7  <0> d          -0.087  -1.833  -3.495  0.00  0.00     0.156 C 
ATOM      5  N3  <0> d          -0.070  -3.162  -2.864  0.00  0.00    -0.344 N 
ATOM      6  C6  <0> d           0.039  -3.291  -1.527  0.00  0.00     0.259 C 
ATOM      7  C10 <0> d          -0.170  -4.345  -3.732  0.00  0.00     0.156 C 
ATOM      8  O2  <0> d           0.135  -4.397  -1.029  0.00  0.00    -0.267 OA
ATOM      9  C9  <0> d          -1.386  -4.165  -4.654  0.00  0.00     0.292 C 
BRANCH   6  10
ATOM     10  C3  <0> d           0.043  -2.094  -0.669  0.00  0.00     0.103 A 
ATOM     11  C2  <0> d           0.808  -0.958  -0.849  0.00  0.00     0.133 A 
ATOM     12  N1  <0> d           0.512  -0.111   0.148  0.00  0.00    -0.282 N 
ATOM     13  C1  <0> d           1.097   1.218   0.342  0.00  0.00     0.179 C 
ATOM     14  N2  <0> d          -0.445  -0.710   0.975  0.00  0.00    -0.147 NA
ATOM     15  C4  <0> d          -0.738  -1.891   0.495  0.00  0.00     0.200 A 
BRANCH  15  16
ATOM     16  O1  <0> d          -1.629  -2.770   1.024  0.00  0.00    -0.337 OA
ATOM     17  C5  <0> d          -2.315  -2.364   2.211  0.00  0.00     0.211 C 
ENDBRANCH  15  16
ENDBRANCH   6  10
ENDBRANCH   1   2
BRANCH   1  18
ATOM     18  C12 <0> d          -2.104  -3.800  -7.476  0.00  0.00     0.153 C 
BRANCH  18  19
ATOM     19  N5  <0> d          -3.150  -3.667  -8.493  0.00  0.00    -0.355 N 
ATOM     20  C13 <0> d          -3.163  -4.493  -9.559  0.00  0.00     0.251 C 
ATOM     21  O3  <0> d          -2.307  -5.348  -9.675  0.00  0.00    -0.268 OA
ATOM     22  H20 <0> d          -3.833  -2.985  -8.401  0.00  0.00     0.162 HD
BRANCH  20  23
ATOM     23  C14 <0> d          -4.218  -4.359 -10.585  0.00  0.00     0.032 A 
ATOM     24  C19 <0> d          -4.234  -5.213 -11.690  0.00  0.00     0.017 A 
ATOM     25  C18 <0> d          -5.224  -5.086 -12.641  0.00  0.00     0.010 A 
ATOM     26  C17 <0> d          -6.194  -4.107 -12.509  0.00  0.00    -0.040 A 
ATOM     27  C16 <0> d          -6.180  -3.254 -11.420  0.00  0.00     0.010 A 
ATOM     28  C15 <0> d          -5.199  -3.374 -10.458  0.00  0.00     0.017 A 
BRANCH  26  29
ATOM     29  C20 <0> d          -7.269  -3.970 -13.556  0.00  0.00     0.167 C 
BRANCH  29  30
ATOM     30  N6  <0> d          -6.822  -3.042 -14.597  0.00  0.00    -0.346 N 
ATOM     31  C23 <0> d          -6.144  -3.364 -15.720  0.00  0.00     0.209 A 
ATOM     32  N7  <0> d          -5.925  -2.273 -16.403  0.00  0.00    -0.255 NA
ATOM     33  C22 <0> d          -6.442  -1.227 -15.743  0.00  0.00     0.135 A 
ATOM     34  C21 <0> d          -7.008  -1.686 -14.611  0.00  0.00     0.111 A 
ENDBRANCH  29  30
ENDBRANCH  26  29
ENDBRANCH  20  23
ENDBRANCH  18  19
ENDBRANCH   1  18
TORSDOF 8
