REMARK  4 active torsions:
REMARK  status: ('A' for Active; 'I' for Inactive)
REMARK    1  A    between atoms: C2_2  and  C3_3 
REMARK    2  A    between atoms: C2_2  and  N4_9 
REMARK    3  A    between atoms: N4_9  and  S1_10 
REMARK    4  A    between atoms: S1_10  and  C6_13 
ROOT
ATOM      1  S1  <0> d          -0.192  -0.992  -2.508  0.00  0.00     0.262 S 
ATOM      2  O1  <0> d          -1.093   0.019  -2.938  0.00  0.00    -0.200 OA
ATOM      3  O2  <0> d           0.810  -1.532  -3.359  0.00  0.00    -0.200 OA
ENDROOT
BRANCH   1   4
ATOM      4  N4  <0> d           0.589  -0.394  -1.176  0.00  0.00    -0.303 N 
ATOM      5  H9  <0> d           1.556  -0.445  -1.118  0.00  0.00     0.173 HD
BRANCH   4   6
ATOM      6  C2  <0> d          -0.180   0.211  -0.086  0.00  0.00     0.160 C 
ATOM      7  C1  <0> d          -0.209   1.731  -0.265  0.00  0.00     0.041 C 
BRANCH   6   8
ATOM      8  C3  <0> d           0.466  -0.127   1.233  0.00  0.00     0.152 A 
ATOM      9  N3  <0> d          -0.169  -0.545   2.354  0.00  0.00    -0.330 N 
ATOM     10  C4  <0> d           0.798  -0.730   3.285  0.00  0.00     0.235 A 
ATOM     11  C5  <0> d          -1.609  -0.757   2.525  0.00  0.00     0.158 C 
ATOM     12  N2  <0> d           1.938  -0.424   2.727  0.00  0.00    -0.143 NA
ATOM     13  N1  <0> d           1.741  -0.066   1.508  0.00  0.00    -0.133 NA
ENDBRANCH   6   8
ENDBRANCH   4   6
ENDBRANCH   1   4
BRANCH   1  14
ATOM     14  C6  <0> d          -1.178  -2.349  -1.968  0.00  0.00     0.121 A 
ATOM     15  C10 <0> d          -0.583  -3.489  -1.459  0.00  0.00     0.149 A 
ATOM     16  N5  <0> d          -1.315  -4.507  -1.048  0.00  0.00    -0.246 NA
ATOM     17 Cl1  <0> d           1.148  -3.579  -1.353  0.00  0.00    -0.061 Cl
ATOM     18  C9  <0> d          -2.632  -4.485  -1.115  0.00  0.00     0.137 A 
ATOM     19  C8  <0> d          -3.297  -3.381  -1.617  0.00  0.00     0.030 A 
ATOM     20  C7  <0> d          -2.560  -2.289  -2.054  0.00  0.00     0.049 A 
ATOM     21 Br1  <0> d          -5.185  -3.360  -1.708  0.00  0.00    -0.050 Br
ENDBRANCH   1  14
TORSDOF 4
