REMARK  8 active torsions:
REMARK  status: ('A' for Active; 'I' for Inactive)
REMARK    1  A    between atoms: C4_5  and  C5_7 
REMARK    2  A    between atoms: C5_7  and  N2_8 
REMARK    3  A    between atoms: N2_8  and  C6_9 
REMARK    4  A    between atoms: C6_9  and  C7_10 
REMARK    5  A    between atoms: C7_10  and  C8_11 
REMARK    6  A    between atoms: C7_10  and  O2_20 
REMARK    7  A    between atoms: C8_11  and  O1_12 
REMARK    8  A    between atoms: O1_12  and  C9_13 
ROOT
ATOM      1  C7  <0> d          -2.743  -4.545   4.218  0.00  0.00     0.168 C 
ENDROOT
BRANCH   1   2
ATOM      2  C6  <0> d          -1.307  -4.204   3.814  0.00  0.00     0.266 C 
BRANCH   2   3
ATOM      3  N2  <0> d          -1.325  -3.282   2.671  0.00  0.00    -0.067 N 
ATOM      4  H8  <0> d          -1.812  -2.436   2.929  0.00  0.00     0.277 HD
ATOM      5  H18 <0> d          -1.798  -3.719   1.894  0.00  0.00     0.277 HD
BRANCH   3   6
ATOM      6  C5  <0> d           0.054  -2.955   2.284  0.00  0.00     0.299 C 
BRANCH   6   7
ATOM      7  C4  <0> d           0.035  -2.009   1.111  0.00  0.00     0.101 A 
ATOM      8  S1  <0> d           0.033  -2.379  -0.531  0.00  0.00    -0.083 SA
ATOM      9  C3  <0> d           0.006  -0.708  -1.159  0.00  0.00     0.078 A 
ATOM     10  C2  <0> d           0.002  -0.004   0.002  0.00  0.00     0.038 A 
ATOM     11  C1  <0> d          -0.018   1.503   0.010  0.00  0.00     0.071 C 
ATOM     12  N1  <0> d           0.022  -0.699   1.122  0.00  0.00    -0.249 NA
ENDBRANCH   6   7
ENDBRANCH   3   6
ENDBRANCH   2   3
ENDBRANCH   1   2
BRANCH   1  13
ATOM     13  C8  <0> d          -2.727  -5.404   5.483  0.00  0.00     0.209 C 
BRANCH  13  14
ATOM     14  O1  <0> d          -4.067  -5.625   5.926  0.00  0.00    -0.349 OA
BRANCH  14  15
ATOM     15  C9  <0> d          -4.231  -6.376   7.047  0.00  0.00     0.069 A 
ATOM     16  C14 <0> d          -5.505  -6.630   7.533  0.00  0.00     0.038 A 
ATOM     17  C13 <0> d          -5.670  -7.398   8.669  0.00  0.00     0.022 A 
ATOM     18  C12 <0> d          -4.564  -7.904   9.330  0.00  0.00     0.011 A 
ATOM     19  C11 <0> d          -3.292  -7.647   8.850  0.00  0.00     0.022 A 
ATOM     20 Br1  <0> d          -4.792  -8.948  10.889  0.00  0.00    -0.051 Br
ATOM     21  C10 <0> d          -3.124  -6.884   7.711  0.00  0.00     0.038 A 
ENDBRANCH  14  15
ENDBRANCH  13  14
ENDBRANCH   1  13
BRANCH   1  22
ATOM     22  O2  <0> d          -3.376  -5.267   3.160  0.00  0.00    -0.392 OA
ATOM     23  H17 <0> d          -2.938  -6.099   2.934  0.00  0.00     0.210 HD
ENDBRANCH   1  22
TORSDOF 8
