REMARK  4 active torsions:
REMARK  status: ('A' for Active; 'I' for Inactive)
REMARK    1  A    between atoms: C3_3  and  C13_17 
REMARK    2  A    between atoms: N3_6  and  C4_7 
REMARK       I    between atoms: C13_17  and  N5_19 
REMARK    3  A    between atoms: N5_19  and  C14_20 
REMARK    4  A    between atoms: C14_20  and  C16_22 
ROOT
ATOM      1  C1  <0> d          -0.353   1.476   0.049  0.00  0.00     0.073 C 
ATOM      2  C2  <0> d          -0.142  -0.015   0.019  0.00  0.00     0.070 A 
ATOM      3  C3  <0> d          -0.169  -0.820  -1.085  0.00  0.00     0.172 A 
ATOM      4  N1  <0> d           0.065  -2.085  -0.696  0.00  0.00    -0.124 NA
ATOM      5  N2  <0> d           0.236  -2.119   0.579  0.00  0.00    -0.060 NA
ATOM      6  N3  <0> d           0.118  -0.814   1.077  0.00  0.00    -0.215 N 
ENDROOT
BRANCH   3   7
ATOM      7  C13 <0> d          -0.415  -0.375  -2.470  0.00  0.00     0.274 C 
ATOM      8  O1  <0> d          -0.616   0.801  -2.704  0.00  0.00    -0.266 OA
ATOM      9  N5  <0> d          -0.416  -1.272  -3.476  0.00  0.00    -0.346 N 
ATOM     10  H11 <0> d          -0.256  -2.211  -3.289  0.00  0.00     0.163 HD
BRANCH   9  11
ATOM     11  C14 <0> d          -0.659  -0.831  -4.851  0.00  0.00     0.133 C 
ATOM     12  C15 <0> d           0.654  -0.354  -5.474  0.00  0.00     0.039 C 
BRANCH  11  13
ATOM     13  C16 <0> d          -1.210  -1.979  -5.657  0.00  0.00     0.064 A 
ATOM     14  N6  <0> d          -0.972  -3.232  -5.324  0.00  0.00    -0.248 NA
ATOM     15  C18 <0> d          -1.456  -4.227  -6.025  0.00  0.00     0.071 A 
ATOM     16  S1  <0> d          -2.304  -3.453  -7.256  0.00  0.00    -0.085 SA
ATOM     17  C19 <0> d          -1.291  -5.706  -5.788  0.00  0.00     0.078 C 
ATOM     18  C17 <0> d          -1.970  -1.770  -6.763  0.00  0.00     0.081 A 
ENDBRANCH  11  13
ENDBRANCH   9  11
ENDBRANCH   3   7
BRANCH   6  19
ATOM     19  C4  <0> d           0.241  -0.415   2.413  0.00  0.00     0.089 A 
ATOM     20  C9  <0> d          -0.437  -1.120   3.431  0.00  0.00     0.095 A 
ATOM     21  C8  <0> d          -0.290  -0.698   4.775  0.00  0.00    -0.005 A 
ATOM     22  N4  <0> d          -1.206  -2.174   3.144  0.00  0.00    -0.258 NA
ATOM     23  C7  <0> d           0.515   0.413   5.072  0.00  0.00     0.014 A 
ATOM     24  C12 <0> d          -0.963  -1.405   5.789  0.00  0.00     0.015 A 
ATOM     25  C6  <0> d           1.153   1.077   4.069  0.00  0.00     0.003 A 
ATOM     26  C5  <0> d           1.022   0.670   2.744  0.00  0.00     0.034 A 
ATOM     27  C11 <0> d          -1.742  -2.467   5.426  0.00  0.00     0.020 A 
ATOM     28  C10 <0> d          -1.839  -2.832   4.085  0.00  0.00     0.117 A 
ENDBRANCH   6  19
TORSDOF 4
