REMARK  3 active torsions:
REMARK  status: ('A' for Active; 'I' for Inactive)
REMARK    1  A    between atoms: C3_3  and  C6_8 
REMARK    2  A    between atoms: C6_8  and  N2_10 
REMARK    3  A    between atoms: N2_10  and  C8_11 
ROOT
ATOM      1  N2  <0> d          -2.936  -1.426   0.967  0.00  0.00    -0.053 N 
ATOM      2  H12 <0> d          -2.660  -2.186   0.364  0.00  0.00     0.279 HD
ATOM      3  H22 <0> d          -2.568  -1.581   1.893  0.00  0.00     0.279 HD
ENDROOT
BRANCH   1   4
ATOM      4  C6  <0> d          -2.406  -0.163   0.435  0.00  0.00     0.235 C 
ATOM      5  C7  <0> d          -2.826  -0.009  -1.028  0.00  0.00     0.047 C 
BRANCH   4   6
ATOM      6  C3  <0> d          -0.902  -0.170   0.528  0.00  0.00     0.078 A 
ATOM      7  C2  <0> d          -0.214   0.907   0.986  0.00  0.00     0.007 A 
ATOM      8  C1  <0> d          -0.723   2.241   1.466  0.00  0.00     0.058 C 
ATOM      9  S1  <0> d           1.463   0.307   0.853  0.00  0.00    -0.078 SA
ATOM     10  C4  <0> d           1.113  -1.225   0.250  0.00  0.00     0.072 A 
ATOM     11  N1  <0> d          -0.195  -1.222   0.168  0.00  0.00    -0.248 NA
ATOM     12  C5  <0> d           2.071  -2.330  -0.113  0.00  0.00     0.078 C 
ENDBRANCH   4   6
ENDBRANCH   1   4
BRANCH   1  13
ATOM     13  C8  <0> d          -4.402  -1.355   1.027  0.00  0.00     0.277 C 
ATOM     14  C13 <0> d          -4.905  -2.199   2.179  0.00  0.00     0.248 C 
ATOM     15  N3  <0> d          -4.463  -3.452   2.333  0.00  0.00    -0.359 N 
ATOM     16  O1  <0> d          -5.712  -1.738   2.958  0.00  0.00    -0.271 OA
ATOM     17  C12 <0> d          -3.479  -4.017   1.396  0.00  0.00     0.122 C 
ATOM     18  H21 <0> d          -4.793  -3.990   3.069  0.00  0.00     0.162 HD
ATOM     19  C11 <0> d          -4.172  -4.282   0.058  0.00  0.00     0.020 C 
ATOM     20  C10 <0> d          -4.154  -3.040  -0.815  0.00  0.00     0.004 C 
ATOM     21  C9  <0> d          -4.997  -1.899  -0.274  0.00  0.00     0.043 C 
ENDBRANCH   1  13
TORSDOF 3
