REMARK  3 active torsions:
REMARK  status: ('A' for Active; 'I' for Inactive)
REMARK    1  A    between atoms: C3_3  and  S2_9 
REMARK    2  A    between atoms: S2_9  and  N2_12 
REMARK    3  A    between atoms: N2_12  and  C6_14 
ROOT
ATOM      1  S2  <0> d          -2.797  -0.150   0.016  0.00  0.00     0.269 S 
ATOM      2  O2  <0> d          -3.492  -0.955   0.959  0.00  0.00    -0.200 OA
ATOM      3  O3  <0> d          -2.745   1.266   0.116  0.00  0.00    -0.200 OA
ENDROOT
BRANCH   1   4
ATOM      4  C3  <0> d          -1.129  -0.716   0.004  0.00  0.00     0.147 A 
ATOM      5  C2  <0> d           0.002  -0.004   0.002  0.00  0.00     0.039 A 
ATOM      6  C1  <0> d          -0.018   1.503   0.010  0.00  0.00     0.070 C 
ATOM      7  N1  <0> d           1.176  -0.699  -0.013  0.00  0.00    -0.320 N 
ATOM      8  C4  <0> d           1.138  -2.048  -0.015  0.00  0.00     0.289 A 
ATOM      9  H1  <0> d           2.025  -0.230  -0.020  0.00  0.00     0.169 HD
ATOM     10  S1  <0> d          -0.508  -2.388  -0.008  0.00  0.00    -0.013 SA
ATOM     11  O1  <0> d           2.072  -2.830  -0.024  0.00  0.00    -0.260 OA
ENDBRANCH   1   4
BRANCH   1  12
ATOM     12  N2  <0> d          -3.443  -0.496  -1.469  0.00  0.00    -0.306 N 
ATOM     13  C5  <0> d          -4.109  -1.781  -1.697  0.00  0.00     0.163 C 
BRANCH  12  14
ATOM     14  C6  <0> d          -3.348   0.482  -2.555  0.00  0.00     0.098 C 
ATOM     15  C10 <0> d          -2.578  -0.130  -3.729  0.00  0.00     0.054 C 
ATOM     16  C9  <0> d          -2.551   0.868  -4.889  0.00  0.00     0.236 C 
ATOM     17  N3  <0> d          -3.924   1.173  -5.309  0.00  0.00    -0.075 N 
ATOM     18  C8  <0> d          -4.647   1.826  -4.210  0.00  0.00     0.236 C 
ATOM     19  C11 <0> d          -3.892   2.070  -6.472  0.00  0.00     0.269 C 
ATOM     20  H20 <0> d          -4.396   0.318  -5.559  0.00  0.00     0.279 HD
ATOM     21  C7  <0> d          -4.754   0.865  -3.024  0.00  0.00     0.054 C 
ENDBRANCH  12  14
ENDBRANCH   1  12
TORSDOF 3
