REMARK  7 active torsions:
REMARK  status: ('A' for Active; 'I' for Inactive)
REMARK    1  A    between atoms: C5_5  and  C9_9 
REMARK       I    between atoms: C9_9  and  N1_11 
REMARK    2  A    between atoms: N1_11  and  C10_12 
REMARK    3  A    between atoms: C10_12  and  C11_13 
REMARK       I    between atoms: C11_13  and  N2_15 
REMARK    4  A    between atoms: N2_15  and  C12_16 
REMARK    5  A    between atoms: C12_16  and  C13_17 
REMARK    6  A    between atoms: C13_17  and  C14_18 
REMARK    7  A    between atoms: C13_17  and  N3_25 
ROOT
ATOM      1  C11 <0> d          -0.331  -6.962  -2.912  0.00  0.00     0.235 C 
ATOM      2  O2  <0> d          -0.266  -6.207  -3.858  0.00  0.00    -0.272 OA
ATOM      3  N2  <0> d          -0.193  -8.290  -3.099  0.00  0.00    -0.357 N 
ATOM      4  H14 <0> d          -0.245  -8.894  -2.342  0.00  0.00     0.162 HD
ENDROOT
BRANCH   1   5
ATOM      5  C10 <0> d          -0.567  -6.417  -1.527  0.00  0.00     0.225 C 
BRANCH   5   6
ATOM      6  N1  <0> d          -0.682  -4.958  -1.590  0.00  0.00    -0.348 N 
ATOM      7  C9  <0> d          -0.897  -4.250  -0.464  0.00  0.00     0.252 C 
ATOM      8  O1  <0> d          -0.995  -4.822   0.605  0.00  0.00    -0.268 OA
ATOM      9  H11 <0> d          -0.604  -4.501  -2.442  0.00  0.00     0.163 HD
BRANCH   7  10
ATOM     10  C5  <0> d          -1.013  -2.777  -0.527  0.00  0.00     0.032 A 
ATOM     11  C4  <0> d          -0.901  -2.117  -1.752  0.00  0.00     0.017 A 
ATOM     12  C3  <0> d          -1.011  -0.743  -1.804  0.00  0.00     0.008 A 
ATOM     13  C2  <0> d          -1.232  -0.019  -0.646  0.00  0.00    -0.056 A 
ATOM     14  C1  <0> d          -1.350   1.482  -0.711  0.00  0.00     0.049 C 
ATOM     15  C7  <0> d          -1.338  -0.666   0.572  0.00  0.00    -0.055 A 
ATOM     16  C6  <0> d          -1.236  -2.041   0.637  0.00  0.00     0.024 A 
ATOM     17  C8  <0> d          -1.573   0.131   1.829  0.00  0.00     0.049 C 
ENDBRANCH   7  10
ENDBRANCH   5   6
ENDBRANCH   1   5
BRANCH   3  18
ATOM     18  C12 <0> d           0.037  -8.820  -4.445  0.00  0.00     0.160 C 
BRANCH  18  19
ATOM     19  C13 <0> d           0.284 -10.328  -4.364  0.00  0.00     0.239 C 
BRANCH  19  20
ATOM     20  C14 <0> d          -0.969 -11.017  -3.888  0.00  0.00    -0.004 A 
ATOM     21  C19 <0> d          -1.956 -11.362  -4.793  0.00  0.00     0.042 A 
ATOM     22  C18 <0> d          -3.103 -12.000  -4.356  0.00  0.00     0.024 A 
ATOM     23 Cl1  <0> d          -1.752 -11.001  -6.479  0.00  0.00    -0.084 Cl
ATOM     24  C17 <0> d          -3.267 -12.283  -3.013  0.00  0.00     0.002 A 
ATOM     25  C16 <0> d          -2.282 -11.933  -2.108  0.00  0.00     0.001 A 
ATOM     26  C15 <0> d          -1.134 -11.300  -2.545  0.00  0.00     0.011 A 
ENDBRANCH  19  20
BRANCH  19  27
ATOM     27  N3  <0> d           1.379 -10.595  -3.422  0.00  0.00    -0.069 N 
ATOM     28  C20 <0> d           1.645 -12.038  -3.377  0.00  0.00     0.270 C 
ATOM     29  C21 <0> d           2.588  -9.887  -3.863  0.00  0.00     0.270 C 
ATOM     30  H27 <0> d           1.117 -10.272  -2.502  0.00  0.00     0.279 HD
ENDBRANCH  19  27
ENDBRANCH  18  19
ENDBRANCH   3  18
TORSDOF 7
