REMARK  5 active torsions:
REMARK  status: ('A' for Active; 'I' for Inactive)
REMARK    1  A    between atoms: N1_7  and  C7_8 
REMARK    2  A    between atoms: C7_8  and  C8_9 
REMARK    3  A    between atoms: C8_9  and  C9_10 
REMARK    4  A    between atoms: C8_9  and  O1_19 
REMARK    5  A    between atoms: C12_13  and  C15_16 
ROOT
ATOM      1  C8  <0> d           0.805  -0.456   3.639  0.00  0.00     0.177 C 
ENDROOT
BRANCH   1   2
ATOM      2  C7  <0> d           0.067   0.050   2.397  0.00  0.00     0.271 C 
BRANCH   2   3
ATOM      3  N1  <0> d           0.882  -0.213   1.203  0.00  0.00    -0.065 N 
ATOM      4  C2  <0> d           0.257   0.424   0.038  0.00  0.00     0.184 C 
ATOM      5  C1  <0> d           0.089   1.921   0.304  0.00  0.00     0.040 C 
ATOM      6  C3  <0> d           1.144   0.223  -1.193  0.00  0.00     0.033 C 
ATOM      7  C4  <0> d           1.309  -1.277  -1.457  0.00  0.00     0.004 C 
ATOM      8  C5  <0> d           1.891  -1.943  -0.207  0.00  0.00     0.028 C 
ATOM      9  C6  <0> d           0.977  -1.662   0.988  0.00  0.00     0.235 C 
ATOM     10  H23 <0> d           1.806   0.168   1.339  0.00  0.00     0.280 HD
ENDBRANCH   2   3
ENDBRANCH   1   2
BRANCH   1  11
ATOM     11  C9  <0> d           0.074  -0.004   4.877  0.00  0.00    -0.028 A 
ATOM     12  C14 <0> d           0.464   1.157   5.522  0.00  0.00     0.011 A 
ATOM     13  C13 <0> d          -0.204   1.579   6.652  0.00  0.00     0.015 A 
ATOM     14  C12 <0> d          -1.270   0.827   7.152  0.00  0.00     0.001 A 
ATOM     15  C11 <0> d          -1.654  -0.346   6.499  0.00  0.00     0.015 A 
ATOM     16  C10 <0> d          -0.981  -0.754   5.366  0.00  0.00     0.011 A 
BRANCH  14  17
ATOM     17  C15 <0> d          -1.986   1.269   8.364  0.00  0.00     0.104 C 
ATOM     18  S1  <0> d          -2.590   0.112   9.472  0.00  0.00    -0.060 SA
ATOM     19  N2  <0> d          -2.164   2.584   8.599  0.00  0.00    -0.390 N 
ATOM     20  H20 <0> d          -1.822   3.240   7.971  0.00  0.00     0.157 HD
ATOM     21  H21 <0> d          -2.635   2.875   9.396  0.00  0.00     0.157 HD
ENDBRANCH  14  17
ENDBRANCH   1  11
BRANCH   1  22
ATOM     22  O1  <0> d           0.860  -1.883   3.612  0.00  0.00    -0.389 OA
ATOM     23  H22 <0> d          -0.008  -2.310   3.603  0.00  0.00     0.210 HD
ENDBRANCH   1  22
TORSDOF 5
