REMARK  3 active torsions:
REMARK  status: ('A' for Active; 'I' for Inactive)
REMARK    1  A    between atoms: C3_3  and  C9_12 
REMARK    2  A    between atoms: C5_6  and  N3_11 
REMARK    3  A    between atoms: C9_12  and  N4_13 
ROOT
ATOM      1  C1  <0> d          -0.018   1.503   0.010  0.00  0.00     0.072 C 
ATOM      2  C2  <0> d           0.002  -0.004   0.002  0.00  0.00     0.058 A 
ATOM      3  C3  <0> d           0.008  -0.787  -1.100  0.00  0.00     0.068 A 
ATOM      4  N1  <0> d           0.028  -2.086  -0.673  0.00  0.00    -0.305 N 
ATOM      5  C4  <0> d           0.042  -3.278  -1.342  0.00  0.00     0.127 A 
ATOM      6  C5  <0> d           0.061  -4.450  -0.661  0.00  0.00     0.042 A 
ATOM      7  C6  <0> d           0.067  -4.449   0.748  0.00  0.00     0.034 A 
ATOM      8  C7  <0> d           0.054  -3.267   1.421  0.00  0.00     0.053 A 
ATOM      9  C8  <0> d           0.034  -2.058   0.697  0.00  0.00     0.134 A 
ATOM     10  N2  <0> d           0.024  -0.789   1.081  0.00  0.00    -0.234 NA
ENDROOT
BRANCH   3  11
ATOM     11  C9  <0> d          -0.006  -0.316  -2.531  0.00  0.00     0.293 C 
BRANCH  11  12
ATOM     12  N4  <0> d          -1.396  -0.182  -2.989  0.00  0.00    -0.073 N 
ATOM     13  C10 <0> d          -2.063   0.879  -2.224  0.00  0.00     0.269 C 
ATOM     14  C11 <0> d          -1.410   0.160  -4.418  0.00  0.00     0.269 C 
ATOM     15  H17 <0> d          -1.882  -1.055  -2.848  0.00  0.00     0.279 HD
ENDBRANCH  11  12
ENDBRANCH   3  11
BRANCH   6  16
ATOM     16  N3  <0> d           0.075  -5.665  -1.359  0.00  0.00    -0.398 N 
ATOM     17  H7  <0> d           0.070  -5.667  -2.329  0.00  0.00     0.156 HD
ATOM     18  H8  <0> d           0.088  -6.504  -0.873  0.00  0.00     0.156 HD
ENDBRANCH   6  16
TORSDOF 3
