REMARK  5 active torsions:
REMARK  status: ('A' for Active; 'I' for Inactive)
REMARK    1  A    between atoms: C2_2  and  O1_3 
REMARK    2  A    between atoms: O1_3  and  C3_4 
REMARK    3  A    between atoms: C7_8  and  N1_10 
REMARK    4  A    between atoms: C10_12  and  C19_23 
REMARK    5  A    between atoms: C15_17  and  O3_21 
ROOT
ATOM      1  N1  <0> d          -4.481  -4.022  -0.186  0.00  0.00    -0.336 N 
ATOM      2  C9  <0> d          -4.593  -5.133  -0.884  0.00  0.00     0.162 C 
ATOM      3  C10 <0> d          -5.778  -6.003  -0.749  0.00  0.00     0.054 C 
ATOM      4  C11 <0> d          -6.101  -6.813  -1.829  0.00  0.00     0.033 C 
ATOM      5  C12 <0> d          -5.258  -6.776  -2.969  0.00  0.00    -0.001 A 
ATOM      6  C13 <0> d          -5.643  -7.416  -4.157  0.00  0.00     0.017 A 
ATOM      7  C14 <0> d          -4.845  -7.338  -5.260  0.00  0.00     0.038 A 
ATOM      8  C15 <0> d          -3.643  -6.633  -5.216  0.00  0.00     0.070 A 
ATOM      9  C16 <0> d          -3.237  -6.011  -4.045  0.00  0.00     0.074 A 
ATOM     10  C17 <0> d          -4.032  -6.086  -2.914  0.00  0.00     0.090 A 
ATOM     11  O2  <0> d          -3.626  -5.515  -1.756  0.00  0.00    -0.292 OA
ATOM     12  H19 <0> d          -5.222  -3.716   0.360  0.00  0.00     0.168 HD
ENDROOT
BRANCH   1  13
ATOM     13  C7  <0> d          -3.321  -3.300  -0.232  0.00  0.00     0.036 A 
ATOM     14  C6  <0> d          -2.087  -3.948  -0.133  0.00  0.00     0.029 A 
ATOM     15  C5  <0> d          -0.919  -3.216  -0.181  0.00  0.00     0.005 A 
ATOM     16  C4  <0> d          -0.964  -1.842  -0.326  0.00  0.00     0.037 A 
ATOM     17  C3  <0> d          -2.186  -1.188  -0.426  0.00  0.00     0.070 A 
ATOM     18  C8  <0> d          -3.365  -1.911  -0.374  0.00  0.00     0.066 A 
BRANCH  17  19
ATOM     19  O1  <0> d          -2.224   0.163  -0.568  0.00  0.00    -0.351 OA
BRANCH  19  20
ATOM     20  C2  <0> d          -0.969   0.846  -0.614  0.00  0.00     0.171 C 
ATOM     21  C1  <0> d          -1.212   2.347  -0.777  0.00  0.00     0.034 C 
ENDBRANCH  19  20
ENDBRANCH  17  19
ENDBRANCH   1  13
BRANCH   3  22
ATOM     22  C19 <0> d          -6.585  -6.011   0.480  0.00  0.00     0.108 C 
ATOM     23  S1  <0> d          -6.070  -5.119   1.847  0.00  0.00    -0.060 SA
ATOM     24  N2  <0> d          -7.729  -6.722   0.530  0.00  0.00    -0.389 N 
ATOM     25  H17 <0> d          -8.020  -7.228  -0.244  0.00  0.00     0.157 HD
ATOM     26  H18 <0> d          -8.261  -6.727   1.341  0.00  0.00     0.157 HD
ENDBRANCH   3  22
BRANCH   8  27
ATOM     27  O3  <0> d          -2.866  -6.556  -6.325  0.00  0.00    -0.356 OA
ATOM     28  C18 <0> d          -3.341  -7.220  -7.498  0.00  0.00     0.210 C 
ENDBRANCH   8  27
TORSDOF 5
