REMARK  6 active torsions:
REMARK  status: ('A' for Active; 'I' for Inactive)
REMARK    1  A    between atoms: C2_2  and  C3_3 
REMARK    2  A    between atoms: C3_3  and  O1_4 
REMARK    3  A    between atoms: O1_4  and  C4_5 
REMARK    4  A    between atoms: C9_10  and  C10_11 
REMARK    5  A    between atoms: N2_17  and  C16_24 
REMARK    6  A    between atoms: C14_20  and  O3_23 
ROOT
ATOM      1  C10 <0> d          -1.398  -4.787  -0.010  0.00  0.00     0.125 C 
ATOM      2  C11 <0> d          -0.915  -4.900  -1.424  0.00  0.00     0.077 A 
ATOM      3  C12 <0> d          -1.241  -3.941  -2.413  0.00  0.00     0.271 A 
ATOM      4  O2  <0> d          -1.928  -2.949  -2.243  0.00  0.00    -0.266 OA
ATOM      5  N1  <0> d          -0.665  -4.308  -3.567  0.00  0.00    -0.262 N 
ATOM      6  H2  <0> d          -0.724  -3.830  -4.410  0.00  0.00     0.190 HD
ATOM      7  N2  <0> d           0.032  -5.496  -3.347  0.00  0.00    -0.268 N 
ATOM      8  C13 <0> d          -0.131  -5.859  -2.011  0.00  0.00     0.160 A 
ATOM      9  N3  <0> d           0.426  -6.965  -1.527  0.00  0.00    -0.208 NA
ATOM     10  C14 <0> d           0.459  -7.568  -0.426  0.00  0.00     0.149 C 
ATOM     11  C15 <0> d          -0.109  -7.188   0.885  0.00  0.00     0.161 C 
ATOM     12  S1  <0> d          -1.714  -6.386   0.746  0.00  0.00    -0.146 SA
ENDROOT
BRANCH   1  13
ATOM     13  C9  <0> d          -2.671  -3.982   0.006  0.00  0.00    -0.006 A 
ATOM     14  C4  <0> d          -2.616  -2.596   0.013  0.00  0.00     0.076 A 
ATOM     15  C5  <0> d          -3.791  -1.857   0.022  0.00  0.00     0.037 A 
ATOM     16  C6  <0> d          -5.012  -2.503   0.030  0.00  0.00     0.003 A 
ATOM     17  C7  <0> d          -5.064  -3.885   0.029  0.00  0.00     0.001 A 
ATOM     18  C8  <0> d          -3.895  -4.623   0.020  0.00  0.00     0.011 A 
BRANCH  14  19
ATOM     19  O1  <0> d          -1.414  -1.962   0.005  0.00  0.00    -0.351 OA
BRANCH  19  20
ATOM     20  C3  <0> d          -1.433  -0.534   0.013  0.00  0.00     0.175 C 
BRANCH  20  21
ATOM     21  C2  <0> d           0.002  -0.004   0.002  0.00  0.00     0.022 C 
ATOM     22  C1  <0> d          -0.019   1.526   0.010  0.00  0.00     0.007 C 
ENDBRANCH  20  21
ENDBRANCH  19  20
ENDBRANCH  14  19
ENDBRANCH   1  13
BRANCH  10  23
ATOM     23  O3  <0> d           1.112  -8.743  -0.442  0.00  0.00    -0.347 OA
ATOM     24  H16 <0> d           1.477  -8.978  -1.306  0.00  0.00     0.219 HD
ENDBRANCH  10  23
BRANCH   7  25
ATOM     25  C16 <0> d           0.804  -6.235  -4.348  0.00  0.00     0.102 C 
ATOM     26  C17 <0> d          -0.117  -6.652  -5.497  0.00  0.00     0.034 C 
ATOM     27  C18 <0> d           1.923  -5.343  -4.890  0.00  0.00     0.034 C 
ENDBRANCH   7  25
TORSDOF 6
