REMARK  6 active torsions:
REMARK  status: ('A' for Active; 'I' for Inactive)
REMARK    1  A    between atoms: C4_4  and  C26_31 
REMARK    2  A    between atoms: C7_7  and  N1_8 
REMARK       I    between atoms: N1_8  and  C8_9 
REMARK    3  A    between atoms: C8_9  and  C9_11 
REMARK    4  A    between atoms: C12_14  and  C15_17 
REMARK       I    between atoms: C15_17  and  N2_19 
REMARK    5  A    between atoms: N2_19  and  C16_20 
REMARK    6  A    between atoms: C19_23  and  C23_27 
ROOT
ATOM      1  C9  <0> d           2.470   0.911   0.082  0.00  0.00     0.032 A 
ATOM      2  C10 <0> d           2.439  -0.481   0.184  0.00  0.00     0.018 A 
ATOM      3  C11 <0> d           3.615  -1.192   0.276  0.00  0.00     0.018 A 
ATOM      4  C12 <0> d           4.839  -0.520   0.277  0.00  0.00     0.032 A 
ATOM      5  C13 <0> d           4.870   0.872   0.181  0.00  0.00     0.018 A 
ATOM      6  C14 <0> d           3.693   1.583   0.084  0.00  0.00     0.018 A 
ENDROOT
BRANCH   1   7
ATOM      7  C8  <0> d           1.207   1.674  -0.022  0.00  0.00     0.256 C 
ATOM      8  N1  <0> d           0.025   1.024  -0.024  0.00  0.00    -0.322 N 
ATOM      9  H7  <0> d           0.005   0.055  -0.041  0.00  0.00     0.169 HD
ATOM     10  O1  <0> d           1.234   2.886  -0.105  0.00  0.00    -0.267 OA
BRANCH   8  11
ATOM     11  C7  <0> d          -1.168   1.747  -0.007  0.00  0.00     0.041 A 
ATOM     12  C2  <0> d          -2.332   1.176  -0.510  0.00  0.00    -0.034 A 
ATOM     13  C1  <0> d          -2.303  -0.222  -1.072  0.00  0.00     0.050 C 
ATOM     14  C3  <0> d          -3.512   1.887  -0.494  0.00  0.00     0.024 A 
ATOM     15  C4  <0> d          -3.538   3.182   0.027  0.00  0.00     0.008 A 
ATOM     16  C5  <0> d          -2.368   3.752   0.531  0.00  0.00     0.017 A 
ATOM     17  C6  <0> d          -1.192   3.035   0.518  0.00  0.00     0.031 A 
BRANCH  15  18
ATOM     18  C26 <0> d          -4.803   3.948   0.045  0.00  0.00     0.107 A 
ATOM     19  N4  <0> d          -4.896   5.221   0.548  0.00  0.00    -0.374 N 
ATOM     20  C28 <0> d          -6.289   5.675   0.402  0.00  0.00     0.141 A 
ATOM     21  H28 <0> d          -4.168   5.734   0.931  0.00  0.00     0.161 HD
ATOM     22  C27 <0> d          -6.989   4.467  -0.252  0.00  0.00     0.141 A 
ATOM     23  N6  <0> d          -5.918   3.470  -0.409  0.00  0.00    -0.374 N 
ATOM     24  H30 <0> d          -6.037   2.535  -0.817  0.00  0.00     0.161 HD
ENDBRANCH  15  18
ENDBRANCH   8  11
ENDBRANCH   1   7
BRANCH   4  25
ATOM     25  C15 <0> d           6.102  -1.283   0.380  0.00  0.00     0.256 C 
ATOM     26  O2  <0> d           7.168  -0.698   0.380  0.00  0.00    -0.267 OA
ATOM     27  N2  <0> d           6.072  -2.627   0.473  0.00  0.00    -0.322 N 
ATOM     28  H12 <0> d           5.228  -3.099   0.403  0.00  0.00     0.169 HD
BRANCH  27  29
ATOM     29  C16 <0> d           7.255  -3.340   0.668  0.00  0.00     0.041 A 
ATOM     30  C21 <0> d           7.250  -4.495   1.442  0.00  0.00    -0.034 A 
ATOM     31  C20 <0> d           8.417  -5.201   1.637  0.00  0.00     0.024 A 
ATOM     32  C22 <0> d           5.966  -4.976   2.067  0.00  0.00     0.050 C 
ATOM     33  C19 <0> d           9.605  -4.755   1.056  0.00  0.00     0.008 A 
ATOM     34  C18 <0> d           9.608  -3.595   0.280  0.00  0.00     0.017 A 
ATOM     35  C17 <0> d           8.438  -2.896   0.085  0.00  0.00     0.031 A 
BRANCH  33  36
ATOM     36  C23 <0> d          10.860  -5.511   1.264  0.00  0.00     0.107 A 
ATOM     37  N3  <0> d          12.059  -5.129   0.718  0.00  0.00    -0.374 N 
ATOM     38  C25 <0> d          13.086  -6.100   1.131  0.00  0.00     0.141 A 
ATOM     39  H23 <0> d          12.205  -4.351   0.157  0.00  0.00     0.161 HD
ATOM     40  C24 <0> d          12.296  -7.107   1.990  0.00  0.00     0.141 A 
ATOM     41  N5  <0> d          10.917  -6.593   1.974  0.00  0.00    -0.374 N 
ATOM     42  H29 <0> d          10.120  -7.027   2.453  0.00  0.00     0.161 HD
ENDBRANCH  33  36
ENDBRANCH  27  29
ENDBRANCH   4  25
TORSDOF 6
