REMARK  3 active torsions:
REMARK  status: ('A' for Active; 'I' for Inactive)
REMARK    1  A    between atoms: C6_6  and  N1_8 
REMARK    2  A    between atoms: N4_24  and  C21_27 
REMARK    3  A    between atoms: C21_27  and  C22_28 
REMARK       I    between atoms: C22_28  and  N5_30 
ROOT
ATOM      1  N1  <0> d           0.053  -2.798   2.395  0.00  0.00    -0.217 N 
ATOM      2  C8  <0> d           0.673  -2.421   3.531  0.00  0.00     0.141 A 
ATOM      3  C9  <0> d           0.452  -3.398   4.468  0.00  0.00     0.030 A 
ATOM      4  C10 <0> d          -0.331  -4.381   3.882  0.00  0.00     0.152 A 
ATOM      5  N2  <0> d          -0.580  -4.027   2.643  0.00  0.00    -0.177 NA
ATOM      6  C11 <0> d           1.020  -3.314   5.857  0.00  0.00     0.111 A 
ATOM      7  C12 <0> d           1.199  -1.847   6.241  0.00  0.00     0.132 C 
ATOM      8  C13 <0> d           1.778  -1.054   5.102  0.00  0.00     0.225 C 
ATOM      9  O1  <0> d           2.578  -0.175   5.344  0.00  0.00    -0.273 OA
ATOM     10  N3  <0> d           1.436  -1.290   3.817  0.00  0.00    -0.311 N 
ATOM     11  C14 <0> d           2.311  -4.061   5.960  0.00  0.00    -0.008 A 
ATOM     12  C15 <0> d           3.517  -3.899   5.312  0.00  0.00     0.011 A 
ATOM     13  C16 <0> d           4.537  -4.783   5.646  0.00  0.00     0.001 A 
ATOM     14  C17 <0> d           4.348  -5.776   6.585  0.00  0.00     0.002 A 
ATOM     15  C18 <0> d           3.139  -5.945   7.242  0.00  0.00     0.030 A 
ATOM     16  C19 <0> d           2.106  -5.065   6.916  0.00  0.00     0.045 A 
ATOM     17  N4  <0> d           0.815  -5.004   7.408  0.00  0.00    -0.307 N 
ATOM     18  C20 <0> d           0.104  -4.005   6.842  0.00  0.00     0.243 A 
ATOM     19  O2  <0> d          -1.050  -3.716   7.080  0.00  0.00    -0.271 OA
ATOM     20  H10 <0> d           1.714  -0.686   3.111  0.00  0.00     0.170 HD
ENDROOT
BRANCH  17  21
ATOM     21  C21 <0> d           0.281  -5.916   8.422  0.00  0.00     0.234 C 
BRANCH  21  22
ATOM     22  C22 <0> d           0.529  -5.343   9.794  0.00  0.00     0.233 C 
ATOM     23  O3  <0> d           1.097  -4.277   9.912  0.00  0.00    -0.272 OA
ATOM     24  N5  <0> d           0.122  -6.014  10.889  0.00  0.00    -0.369 N 
ATOM     25  H17 <0> d          -0.332  -6.866  10.794  0.00  0.00     0.159 HD
ATOM     26  H18 <0> d           0.282  -5.645  11.772  0.00  0.00     0.159 HD
ENDBRANCH  21  22
ENDBRANCH  17  21
BRANCH   1  27
ATOM     27  C6  <0> d           0.037  -2.089   1.186  0.00  0.00     0.061 A 
ATOM     28  C5  <0> d           0.040  -2.773  -0.022  0.00  0.00     0.038 A 
ATOM     29  C4  <0> d           0.025  -2.071  -1.211  0.00  0.00    -0.059 A 
ATOM     30  C3  <0> d           0.006  -0.688  -1.200  0.00  0.00     0.013 A 
ATOM     31  C23 <0> d           0.028  -2.812  -2.523  0.00  0.00     0.048 C 
ATOM     32  C2  <0> d           0.002  -0.004   0.002  0.00  0.00    -0.059 A 
ATOM     33  C1  <0> d          -0.018   1.503   0.010  0.00  0.00     0.048 C 
ATOM     34  C7  <0> d           0.023  -0.700   1.195  0.00  0.00     0.038 A 
ENDBRANCH   1  27
TORSDOF 3
