REMARK  7 active torsions:
REMARK  status: ('A' for Active; 'I' for Inactive)
REMARK    1  A    between atoms: C4_4  and  C7_7 
REMARK    2  A    between atoms: N1_14  and  N3_17 
REMARK       I    between atoms: N3_17  and  C13_18 
REMARK    3  A    between atoms: C13_18  and  C14_20 
REMARK    4  A    between atoms: C14_20  and  C15_21 
REMARK    5  A    between atoms: C15_21  and  N4_22 
REMARK    6  A    between atoms: N4_22  and  S2_23 
REMARK    7  A    between atoms: S2_23  and  C16_26 
ROOT
ATOM      1  N3  <0> d          -2.298   5.356  -4.487  0.00  0.00    -0.260 N 
ATOM      2  C13 <0> d          -1.855   4.955  -3.279  0.00  0.00     0.238 C 
ATOM      3  O2  <0> d          -1.645   5.772  -2.408  0.00  0.00    -0.272 OA
ATOM      4  H8  <0> d          -2.466   4.702  -5.183  0.00  0.00     0.190 HD
ENDROOT
BRANCH   1   5
ATOM      5  N1  <0> d          -2.515   6.717  -4.737  0.00  0.00    -0.211 N 
ATOM      6  C11 <0> d          -1.635   7.397  -5.495  0.00  0.00     0.281 A 
ATOM      7  C10 <0> d          -1.865   8.787  -5.746  0.00  0.00     0.081 A 
ATOM      8  O1  <0> d          -0.658   6.838  -5.961  0.00  0.00    -0.265 OA
ATOM      9  C7  <0> d          -1.069   9.729  -6.524  0.00  0.00    -0.001 A 
ATOM     10  C9  <0> d          -3.022   9.328  -5.161  0.00  0.00     0.115 A 
ATOM     11  C8  <0> d          -1.490  11.013  -6.623  0.00  0.00     0.065 A 
ATOM     12  S1  <0> d          -2.993  11.029  -5.665  0.00  0.00    -0.080 SA
ATOM     13  N2  <0> d          -3.847   8.591  -4.422  0.00  0.00    -0.234 NA
ATOM     14  C12 <0> d          -3.613   7.323  -4.215  0.00  0.00     0.237 A 
BRANCH   9  15
ATOM     15  C4  <0> d           0.177   9.288  -7.196  0.00  0.00    -0.024 A 
ATOM     16  C3  <0> d           0.387   9.582  -8.543  0.00  0.00     0.012 A 
ATOM     17  C2  <0> d           1.549   9.170  -9.163  0.00  0.00     0.001 A 
ATOM     18  C1  <0> d           2.504   8.467  -8.451  0.00  0.00     0.000 A 
ATOM     19  C6  <0> d           2.301   8.172  -7.115  0.00  0.00     0.001 A 
ATOM     20  C5  <0> d           1.146   8.584  -6.483  0.00  0.00     0.012 A 
ENDBRANCH   9  15
ENDBRANCH   1   5
BRANCH   2  21
ATOM     21  C14 <0> d          -1.622   3.491  -3.009  0.00  0.00     0.125 C 
BRANCH  21  22
ATOM     22  C15 <0> d          -1.125   3.309  -1.574  0.00  0.00     0.141 C 
BRANCH  22  23
ATOM     23  N4  <0> d          -0.897   1.885  -1.312  0.00  0.00    -0.315 N 
ATOM     24  H13 <0> d          -1.263   1.218  -1.913  0.00  0.00     0.172 HD
BRANCH  23  25
ATOM     25  S2  <0> d          -0.017   1.417   0.010  0.00  0.00     0.258 S 
ATOM     26  O3  <0> d           0.002  -0.004   0.002  0.00  0.00    -0.201 OA
ATOM     27  O4  <0> d           1.172   2.195   0.003  0.00  0.00    -0.201 OA
BRANCH  25  28
ATOM     28  C16 <0> d          -0.927   1.900   1.439  0.00  0.00     0.082 A 
ATOM     29  C21 <0> d          -1.845   1.032   1.999  0.00  0.00     0.070 A 
ATOM     30  C20 <0> d          -2.560   1.411   3.122  0.00  0.00     0.156 A 
ATOM     31  C19 <0> d          -2.354   2.662   3.684  0.00  0.00     0.154 A 
ATOM     32  F1  <0> d          -3.459   0.564   3.670  0.00  0.00    -0.203 F 
ATOM     33  C18 <0> d          -1.433   3.529   3.121  0.00  0.00     0.047 A 
ATOM     34  F2  <0> d          -3.051   3.034   4.780  0.00  0.00    -0.203 F 
ATOM     35  C17 <0> d          -0.717   3.145   2.003  0.00  0.00     0.028 A 
ENDBRANCH  25  28
ENDBRANCH  23  25
ENDBRANCH  22  23
ENDBRANCH  21  22
ENDBRANCH   2  21
TORSDOF 7
