REMARK  3 active torsions:
REMARK  status: ('A' for Active; 'I' for Inactive)
REMARK    1  A    between atoms: N1_9  and  C9_12 
REMARK    2  A    between atoms: C9_12  and  C10_13 
REMARK       I    between atoms: C10_13  and  N3_15 
REMARK    3  A    between atoms: N3_15  and  C11_16 
ROOT
ATOM      1  C10 <0> d           2.847   0.729  -1.441  0.00  0.00     0.240 C 
ATOM      2  O2  <0> d           2.163   1.138  -2.355  0.00  0.00    -0.271 OA
ATOM      3  N3  <0> d           3.975   0.038  -1.701  0.00  0.00    -0.324 N 
ATOM      4  H8  <0> d           4.556  -0.232  -0.973  0.00  0.00     0.169 HD
ENDROOT
BRANCH   1   5
ATOM      5  C9  <0> d           2.436   0.992  -0.015  0.00  0.00     0.236 C 
BRANCH   5   6
ATOM      6  N1  <0> d           1.185   1.755  -0.001  0.00  0.00    -0.299 N 
ATOM      7  C7  <0> d           1.225   3.108  -0.003  0.00  0.00     0.261 A 
ATOM      8  C5  <0> d          -0.060   3.823   0.012  0.00  0.00     0.061 A 
ATOM      9  O1  <0> d           2.283   3.710  -0.018  0.00  0.00    -0.267 OA
ATOM     10  C4  <0> d          -1.246   3.055   0.028  0.00  0.00     0.073 A 
ATOM     11  C6  <0> d          -0.130   5.215   0.011  0.00  0.00     0.019 A 
ATOM     12  C3  <0> d          -2.482   3.705   0.042  0.00  0.00     0.032 A 
ATOM     13  N2  <0> d          -1.153   1.702   0.024  0.00  0.00    -0.243 NA
ATOM     14  C2  <0> d          -2.528   5.081   0.041  0.00  0.00     0.002 A 
ATOM     15  C1  <0> d          -1.361   5.833   0.026  0.00  0.00     0.001 A 
ATOM     16  C8  <0> d          -0.004   1.098   0.015  0.00  0.00     0.213 A 
ENDBRANCH   5   6
ENDBRANCH   1   5
BRANCH   3  17
ATOM     17  C11 <0> d           4.309  -0.288  -3.022  0.00  0.00     0.055 A 
ATOM     18  C16 <0> d           4.952  -1.487  -3.300  0.00  0.00     0.040 A 
ATOM     19  C15 <0> d           5.277  -1.811  -4.604  0.00  0.00     0.061 A 
ATOM     20 Br1  <0> d           5.377  -2.680  -1.895  0.00  0.00    -0.049 Br
ATOM     21  C14 <0> d           4.973  -0.936  -5.636  0.00  0.00     0.103 A 
ATOM     22  C13 <0> d           4.332   0.266  -5.360  0.00  0.00     0.104 A 
ATOM     23  O3  <0> d           5.310  -1.268  -6.913  0.00  0.00    -0.346 OA
ATOM     24  C12 <0> d           4.001   0.589  -4.053  0.00  0.00     0.070 A 
ATOM     25  O4  <0> d           4.020   1.135  -6.360  0.00  0.00    -0.346 OA
ATOM     26  C18 <0> d           4.697   0.950  -7.608  0.00  0.00     0.202 C 
ATOM     27  C17 <0> d           4.656  -0.543  -7.960  0.00  0.00     0.202 C 
ENDBRANCH   3  17
TORSDOF 3
