REMARK  4 active torsions:
REMARK  status: ('A' for Active; 'I' for Inactive)
REMARK    1  A    between atoms: C2_2  and  N1_3 
REMARK    2  A    between atoms: N1_3  and  C3_4 
REMARK    3  A    between atoms: N3_11  and  C8_14 
REMARK    4  A    between atoms: C8_14  and  C9_15 
ROOT
ATOM      1  C3  <0> d          -1.601  -1.840   0.007  0.00  0.00     0.105 C 
ATOM      2  C4  <0> d          -2.892  -2.320   0.121  0.00  0.00     0.115 A 
ATOM      3  C5  <0> d          -4.052  -1.411   0.135  0.00  0.00     0.264 A 
ATOM      4  O1  <0> d          -3.903  -0.206   0.045  0.00  0.00    -0.267 OA
ATOM      5  N2  <0> d          -5.283  -1.950   0.248  0.00  0.00    -0.299 N 
ATOM      6  C6  <0> d          -5.462  -3.275   0.348  0.00  0.00     0.184 A 
ATOM      7  S1  <0> d          -7.061  -3.869   0.489  0.00  0.00    -0.040 SA
ATOM      8  N3  <0> d          -4.454  -4.159   0.343  0.00  0.00    -0.286 N 
ATOM      9  C7  <0> d          -3.170  -3.763   0.229  0.00  0.00     0.267 A 
ATOM     10  O2  <0> d          -2.264  -4.576   0.220  0.00  0.00    -0.267 OA
ATOM     11  H8  <0> d          -6.057  -1.365   0.259  0.00  0.00     0.171 HD
ENDROOT
BRANCH   1  12
ATOM     12  N1  <0> d          -1.366  -0.514   0.071  0.00  0.00    -0.398 N 
ATOM     13  H6  <0> d          -2.091   0.098   0.278  0.00  0.00     0.158 HD
BRANCH  12  14
ATOM     14  C2  <0> d          -0.017   0.004  -0.172  0.00  0.00     0.114 C 
ATOM     15  C1  <0> d          -0.025   1.528  -0.039  0.00  0.00     0.026 C 
ENDBRANCH  12  14
ENDBRANCH   1  12
BRANCH   8  16
ATOM     16  C8  <0> d          -4.756  -5.588   0.457  0.00  0.00     0.161 C 
BRANCH  16  17
ATOM     17  C9  <0> d          -4.949  -6.172  -0.918  0.00  0.00    -0.017 C 
ATOM     18  C10 <0> d          -4.238  -7.205  -1.297  0.00  0.00     0.008 C 
ENDBRANCH  16  17
ENDBRANCH   8  16
TORSDOF 4
