REMARK  4 active torsions:
REMARK  status: ('A' for Active; 'I' for Inactive)
REMARK    1  A    between atoms: C3_3  and  C6_8 
REMARK    2  A    between atoms: C6_8  and  N3_10 
REMARK       I    between atoms: N3_10  and  C8_11 
REMARK    3  A    between atoms: C8_11  and  C9_13 
REMARK    4  A    between atoms: C12_16  and  N4_19 
ROOT
ATOM      1  C9  <0> d           1.515  -2.187  -5.470  0.00  0.00     0.032 A 
ATOM      2  C10 <0> d           2.071  -3.342  -4.913  0.00  0.00     0.019 A 
ATOM      3  C11 <0> d           2.524  -4.350  -5.734  0.00  0.00     0.031 A 
ATOM      4  C12 <0> d           2.429  -4.220  -7.116  0.00  0.00     0.037 A 
ATOM      5  C13 <0> d           1.876  -3.071  -7.673  0.00  0.00     0.031 A 
ATOM      6  C14 <0> d           1.416  -2.062  -6.858  0.00  0.00     0.019 A 
ENDROOT
BRANCH   1   7
ATOM      7  C8  <0> d           1.028  -1.104  -4.593  0.00  0.00     0.252 C 
ATOM      8  N3  <0> d           1.124  -1.226  -3.254  0.00  0.00    -0.348 N 
ATOM      9  H12 <0> d           1.514  -2.026  -2.867  0.00  0.00     0.163 HD
ATOM     10  O1  <0> d           0.540  -0.102  -5.078  0.00  0.00    -0.268 OA
BRANCH   8  11
ATOM     11  C6  <0> d           0.641  -0.152  -2.384  0.00  0.00     0.117 C 
ATOM     12  C7  <0> d          -0.860  -0.326  -2.144  0.00  0.00     0.037 C 
BRANCH  11  13
ATOM     13  C3  <0> d           1.369  -0.207  -1.066  0.00  0.00     0.007 A 
ATOM     14  C2  <0> d           1.482   0.806  -0.175  0.00  0.00     0.036 A 
ATOM     15  C1  <0> d           0.903   2.189  -0.325  0.00  0.00     0.070 C 
ATOM     16  N2  <0> d           2.211   0.357   0.868  0.00  0.00    -0.278 N 
ATOM     17  N1  <0> d           2.550  -0.978   0.614  0.00  0.00    -0.184 NA
ATOM     18  C5  <0> d           2.579   1.129   2.057  0.00  0.00     0.179 C 
ATOM     19  C4  <0> d           2.048  -1.314  -0.546  0.00  0.00     0.150 A 
ENDBRANCH  11  13
ENDBRANCH   8  11
ENDBRANCH   1   7
BRANCH   4  20
ATOM     20  N4  <0> d           2.889  -5.242  -7.945  0.00  0.00    -0.318 N 
ATOM     21  C19 <0> d           2.035  -6.211  -8.276  0.00  0.00     0.224 C 
ATOM     22  C18 <0> d           2.409  -7.393  -9.123  0.00  0.00     0.103 C 
ATOM     23  O2  <0> d           0.893  -6.131  -7.874  0.00  0.00    -0.273 OA
ATOM     24  C17 <0> d           3.713  -7.107  -9.871  0.00  0.00     0.011 C 
ATOM     25  C16 <0> d           4.739  -6.566  -8.868  0.00  0.00     0.021 C 
ATOM     26  C15 <0> d           4.276  -5.189  -8.390  0.00  0.00     0.132 C 
ENDBRANCH   4  20
TORSDOF 4
