REMARK  6 active torsions:
REMARK  status: ('A' for Active; 'I' for Inactive)
REMARK    1  A    between atoms: C7_7  and  C10_12 
REMARK    2  A    between atoms: C10_12  and  O3_14 
REMARK    3  A    between atoms: O3_14  and  C11_15 
REMARK    4  A    between atoms: C11_15  and  C12_16 
REMARK       I    between atoms: C12_16  and  N2_18 
REMARK    5  A    between atoms: N2_18  and  C13_19 
REMARK    6  A    between atoms: N2_18  and  C17_26 
ROOT
ATOM      1  C11 <0> d          -2.342  -3.155   0.091  0.00  0.00     0.281 C 
ENDROOT
BRANCH   1   2
ATOM      2  O3  <0> d          -1.177  -2.328   0.083  0.00  0.00    -0.308 OA
BRANCH   2   3
ATOM      3  C10 <0> d           0.012  -2.949  -0.041  0.00  0.00     0.294 C 
ATOM      4  O2  <0> d           0.058  -4.158  -0.138  0.00  0.00    -0.259 OA
BRANCH   3   5
ATOM      5  C7  <0> d           1.264  -2.155  -0.057  0.00  0.00     0.057 A 
ATOM      6  C5  <0> d           1.222  -0.685  -0.073  0.00  0.00     0.007 A 
ATOM      7  C4  <0> d           2.426   0.041  -0.088  0.00  0.00     0.046 A 
ATOM      8  C6  <0> d           0.000  -0.006  -0.072  0.00  0.00     0.015 A 
ATOM      9  C3  <0> d           2.384   1.433  -0.102  0.00  0.00     0.030 A 
ATOM     10  N1  <0> d           3.636  -0.620  -0.089  0.00  0.00    -0.323 N 
ATOM     11  C2  <0> d           1.168   2.081  -0.102  0.00  0.00     0.002 A 
ATOM     12  C1  <0> d          -0.018   1.360  -0.086  0.00  0.00     0.001 A 
ATOM     13  C9  <0> d           3.699  -1.963  -0.075  0.00  0.00     0.246 A 
ATOM     14  H24 <0> d           4.458  -0.106  -0.100  0.00  0.00     0.169 HD
ATOM     15  C8  <0> d           2.482  -2.773  -0.058  0.00  0.00     0.093 A 
ATOM     16  O1  <0> d           4.785  -2.513  -0.076  0.00  0.00    -0.268 OA
ENDBRANCH   3   5
ENDBRANCH   2   3
ENDBRANCH   1   2
BRANCH   1  17
ATOM     17  C12 <0> d          -3.569  -2.292   0.236  0.00  0.00     0.244 C 
ATOM     18  O4  <0> d          -3.465  -1.084   0.234  0.00  0.00    -0.271 OA
ATOM     19  N2  <0> d          -4.783  -2.863   0.368  0.00  0.00    -0.340 N 
BRANCH  19  20
ATOM     20  C13 <0> d          -5.986  -2.027   0.399  0.00  0.00     0.102 C 
ATOM     21  C16 <0> d          -5.909  -1.040   1.598  0.00  0.00     0.165 C 
ATOM     22  S1  <0> d          -7.137   0.229   1.070  0.00  0.00     0.146 S 
ATOM     23  C15 <0> d          -7.150  -0.096  -0.741  0.00  0.00     0.142 C 
ATOM     24  O5  <0> d          -8.408  -0.106   1.609  0.00  0.00    -0.228 OA
ATOM     25  O6  <0> d          -6.596   1.522   1.303  0.00  0.00    -0.228 OA
ATOM     26  C14 <0> d          -6.079  -1.202  -0.895  0.00  0.00     0.041 C 
ENDBRANCH  19  20
BRANCH  19  27
ATOM     27  C17 <0> d          -4.899  -4.319   0.481  0.00  0.00     0.087 C 
ATOM     28  C21 <0> d          -5.457  -4.698   1.864  0.00  0.00     0.025 C 
ATOM     29  C20 <0> d          -6.783  -5.447   1.614  0.00  0.00     0.002 C 
ATOM     30  C19 <0> d          -6.642  -5.998   0.173  0.00  0.00     0.002 C 
ATOM     31  C18 <0> d          -5.905  -4.851  -0.561  0.00  0.00     0.025 C 
ENDBRANCH  19  27
ENDBRANCH   1  17
TORSDOF 6
