REMARK  7 active torsions:
REMARK  status: ('A' for Active; 'I' for Inactive)
REMARK    1  A    between atoms: C2_2  and  C3_3 
REMARK    2  A    between atoms: C3_3  and  O1_4 
REMARK    3  A    between atoms: O1_4  and  C4_5 
REMARK    4  A    between atoms: C9_10  and  O2_11 
REMARK    5  A    between atoms: O2_11  and  C10_12 
REMARK    6  A    between atoms: C13_15  and  C16_19 
REMARK    7  A    between atoms: C16_19  and  N1_21 
ROOT
ATOM      1  C10 <0> d          -1.625  -6.067   0.089  0.00  0.00     0.093 A 
ATOM      2  C11 <0> d          -2.873  -6.672   0.097  0.00  0.00     0.039 A 
ATOM      3  C12 <0> d          -2.972  -8.046   0.196  0.00  0.00     0.012 A 
ATOM      4  C13 <0> d          -1.829  -8.819   0.288  0.00  0.00    -0.027 A 
ATOM      5  C14 <0> d          -0.583  -8.219   0.281  0.00  0.00     0.031 A 
ATOM      6  C15 <0> d          -0.478  -6.844   0.176  0.00  0.00     0.045 A 
ATOM      7 Br1  <0> d           1.226  -6.024   0.160  0.00  0.00    -0.048 Br
ENDROOT
BRANCH   1   8
ATOM      8  O2  <0> d          -1.524  -4.715  -0.009  0.00  0.00    -0.307 OA
BRANCH   8   9
ATOM      9  C9  <0> d          -2.672  -3.986   0.019  0.00  0.00     0.109 A 
ATOM     10  C4  <0> d          -3.284  -3.696   1.235  0.00  0.00     0.102 A 
ATOM     11  C5  <0> d          -4.450  -2.948   1.259  0.00  0.00     0.039 A 
ATOM     12  C6  <0> d          -5.006  -2.496   0.077  0.00  0.00     0.003 A 
ATOM     13  C7  <0> d          -4.402  -2.789  -1.131  0.00  0.00     0.003 A 
ATOM     14  C8  <0> d          -3.238  -3.535  -1.163  0.00  0.00     0.040 A 
BRANCH  10  15
ATOM     15  O1  <0> d          -2.736  -4.141   2.397  0.00  0.00    -0.348 OA
BRANCH  15  16
ATOM     16  C3  <0> d          -3.419  -3.806   3.607  0.00  0.00     0.175 C 
BRANCH  16  17
ATOM     17  C2  <0> d          -2.659  -4.389   4.800  0.00  0.00     0.022 C 
ATOM     18  C1  <0> d          -3.390  -4.030   6.095  0.00  0.00     0.007 C 
ENDBRANCH  16  17
ENDBRANCH  15  16
ENDBRANCH  10  15
ENDBRANCH   8   9
ENDBRANCH   1   8
BRANCH   4  19
ATOM     19  C16 <0> d          -1.940 -10.318   0.397  0.00  0.00     0.212 C 
ATOM     20  C17 <0> d          -1.686 -10.949  -0.973  0.00  0.00     0.045 C 
BRANCH  19  21
ATOM     21  N1  <0> d          -0.946 -10.815   1.357  0.00  0.00    -0.071 N 
ATOM     22  H19 <0> d          -0.020 -10.568   1.040  0.00  0.00     0.275 HD
ATOM     23  H20 <0> d          -1.114 -10.398   2.261  0.00  0.00     0.275 HD
ATOM     24  H21 <0> d          -1.021 -11.818   1.431  0.00  0.00     0.275 HD
ENDBRANCH  19  21
ENDBRANCH   4  19
TORSDOF 7
