REMARK  8 active torsions:
REMARK  status: ('A' for Active; 'I' for Inactive)
REMARK    1  A    between atoms: C2_2  and  N1_4 
REMARK    2  A    between atoms: N1_4  and  C4_5 
REMARK    3  A    between atoms: N2_7  and  N3_8 
REMARK       I    between atoms: N3_8  and  C5_9 
REMARK    4  A    between atoms: C5_9  and  C6_11 
REMARK    5  A    between atoms: C9_14  and  N4_17 
REMARK       I    between atoms: N4_17  and  C12_18 
REMARK    6  A    between atoms: C12_18  and  C13_20 
REMARK    7  A    between atoms: C13_20  and  S2_21 
REMARK    8  A    between atoms: S2_21  and  C14_22 
ROOT
ATOM      1  C6  <0> d          -1.310   1.919   0.040  0.00  0.00     0.033 A 
ATOM      2  C7  <0> d          -1.325   3.317   0.043  0.00  0.00     0.019 A 
ATOM      3  C8  <0> d          -2.526   3.990   0.038  0.00  0.00     0.030 A 
ATOM      4  C9  <0> d          -3.723   3.281   0.044  0.00  0.00     0.034 A 
ATOM      5  C10 <0> d          -3.711   1.889   0.048  0.00  0.00     0.030 A 
ATOM      6  C11 <0> d          -2.514   1.210   0.046  0.00  0.00     0.019 A 
ENDROOT
BRANCH   1   7
ATOM      7  C5  <0> d          -0.024   1.194   0.038  0.00  0.00     0.270 C 
ATOM      8  N3  <0> d           1.136   1.879   0.027  0.00  0.00    -0.264 N 
ATOM      9  H10 <0> d           1.126   2.849   0.024  0.00  0.00     0.190 HD
ATOM     10  O1  <0> d          -0.012  -0.022   0.041  0.00  0.00    -0.266 OA
BRANCH   8  11
ATOM     11  N2  <0> d           2.356   1.191   0.018  0.00  0.00    -0.274 N 
ATOM     12  C4  <0> d           3.517   1.877   0.007  0.00  0.00     0.186 C 
ATOM     13  S1  <0> d           5.008   1.035  -0.003  0.00  0.00    -0.040 SA
ATOM     14  H9  <0> d           2.366   0.221   0.021  0.00  0.00     0.189 HD
BRANCH  12  15
ATOM     15  N1  <0> d           3.503   3.224   0.004  0.00  0.00    -0.362 N 
ATOM     16  H8  <0> d           2.658   3.701   0.010  0.00  0.00     0.162 HD
BRANCH  15  17
ATOM     17  C2  <0> d           4.764   3.969  -0.008  0.00  0.00     0.076 C 
ATOM     18  C1  <0> d           5.256   4.117  -1.450  0.00  0.00     0.032 C 
ATOM     19  C3  <0> d           4.544   5.356   0.600  0.00  0.00     0.032 C 
ENDBRANCH  15  17
ENDBRANCH  12  15
ENDBRANCH   8  11
ENDBRANCH   1   7
BRANCH   4  20
ATOM     20  N4  <0> d          -4.938   3.966   0.046  0.00  0.00    -0.327 N 
ATOM     21  C12 <0> d          -5.996   3.464  -0.621  0.00  0.00     0.231 C 
ATOM     22  O2  <0> d          -5.917   2.377  -1.153  0.00  0.00    -0.272 OA
ATOM     23  H15 <0> d          -5.021   4.804   0.527  0.00  0.00     0.169 HD
BRANCH  21  24
ATOM     24  C13 <0> d          -7.277   4.253  -0.706  0.00  0.00     0.185 C 
BRANCH  24  25
ATOM     25  S2  <0> d          -8.499   3.319  -1.660  0.00  0.00    -0.083 SA
BRANCH  25  26
ATOM     26  C14 <0> d          -9.856   4.441  -1.602  0.00  0.00     0.168 A 
ATOM     27  N6  <0> d         -11.076   4.246  -2.172  0.00  0.00    -0.339 N 
ATOM     28  C16 <0> d         -11.835   5.359  -1.889  0.00  0.00     0.112 A 
ATOM     29  C17 <0> d         -11.500   3.075  -2.943  0.00  0.00     0.158 C 
ATOM     30  C15 <0> d         -11.063   6.186  -1.164  0.00  0.00     0.136 A 
ATOM     31  N5  <0> d          -9.864   5.606  -0.995  0.00  0.00    -0.235 NA
ENDBRANCH  25  26
ENDBRANCH  24  25
ENDBRANCH  21  24
ENDBRANCH   4  20
TORSDOF 8
