REMARK  5 active torsions:
REMARK  status: ('A' for Active; 'I' for Inactive)
REMARK    1  A    between atoms: C5_5  and  C8_8 
REMARK    2  A    between atoms: C8_8  and  N1_9 
REMARK    3  A    between atoms: C13_14  and  N2_15 
REMARK       I    between atoms: N2_15  and  C14_16 
REMARK    4  A    between atoms: C14_16  and  C15_18 
REMARK    5  A    between atoms: C15_18  and  N3_19 
ROOT
ATOM      1  N2  <0> d           1.460  -4.758   2.311  0.00  0.00    -0.312 N 
ATOM      2  C14 <0> d           2.054  -5.069   3.454  0.00  0.00     0.241 C 
ATOM      3  O1  <0> d           3.206  -5.460   3.454  0.00  0.00    -0.271 OA
ATOM      4  H21 <0> d           0.516  -4.537   2.300  0.00  0.00     0.170 HD
ENDROOT
BRANCH   1   5
ATOM      5  C13 <0> d           2.165  -4.750   1.170  0.00  0.00     0.110 A 
ATOM      6  N1  <0> d           1.520  -4.758  -0.031  0.00  0.00    -0.339 N 
ATOM      7  C9  <0> d           2.222  -4.744  -1.190  0.00  0.00     0.093 A 
ATOM      8  C10 <0> d           3.577  -4.726  -1.179  0.00  0.00     0.017 A 
ATOM      9  C11 <0> d           4.268  -4.723   0.037  0.00  0.00     0.005 A 
ATOM     10  C12 <0> d           3.565  -4.737   1.210  0.00  0.00     0.049 A 
BRANCH   6  11
ATOM     11  C8  <0> d           0.056  -4.777  -0.069  0.00  0.00     0.168 C 
BRANCH  11  12
ATOM     12  C5  <0> d          -0.465  -3.363  -0.082  0.00  0.00    -0.040 A 
ATOM     13  C4  <0> d          -0.673  -2.715  -1.285  0.00  0.00     0.009 A 
ATOM     14  C3  <0> d          -1.151  -1.418  -1.297  0.00  0.00     0.007 A 
ATOM     15  C2  <0> d          -1.422  -0.770  -0.106  0.00  0.00    -0.062 A 
ATOM     16  C1  <0> d          -1.944   0.644  -0.119  0.00  0.00     0.048 C 
ATOM     17  C7  <0> d          -1.209  -1.417   1.097  0.00  0.00     0.007 A 
ATOM     18  C6  <0> d          -0.735  -2.715   1.109  0.00  0.00     0.009 A 
ENDBRANCH  11  12
ENDBRANCH   6  11
ENDBRANCH   1   5
BRANCH   2  19
ATOM     19  C15 <0> d           1.302  -4.938   4.753  0.00  0.00     0.237 C 
BRANCH  19  20
ATOM     20  N3  <0> d           2.171  -5.339   5.863  0.00  0.00    -0.290 N 
ATOM     21  C23 <0> d           2.940  -4.420   6.472  0.00  0.00     0.330 A 
ATOM     22  N4  <0> d           3.754  -4.717   7.497  0.00  0.00    -0.275 N 
ATOM     23  O3  <0> d           2.892  -3.270   6.081  0.00  0.00    -0.246 OA
ATOM     24  C22 <0> d           3.854  -5.978   7.970  0.00  0.00     0.261 A 
ATOM     25  H1  <0> d           4.285  -4.013   7.902  0.00  0.00     0.173 HD
ATOM     26  C21 <0> d           3.038  -7.029   7.336  0.00  0.00     0.059 A 
ATOM     27  O2  <0> d           4.598  -6.240   8.896  0.00  0.00    -0.267 OA
ATOM     28  C16 <0> d           2.197  -6.665   6.270  0.00  0.00     0.055 A 
ATOM     29  C20 <0> d           3.083  -8.352   7.768  0.00  0.00     0.019 A 
ATOM     30  C17 <0> d           1.416  -7.630   5.653  0.00  0.00     0.031 A 
ATOM     31  C18 <0> d           1.470  -8.939   6.090  0.00  0.00     0.002 A 
ATOM     32  C19 <0> d           2.299  -9.299   7.141  0.00  0.00     0.001 A 
ENDBRANCH  19  20
ENDBRANCH   2  19
TORSDOF 5
