REMARK  4 active torsions:
REMARK  status: ('A' for Active; 'I' for Inactive)
REMARK    1  A    between atoms: C5_5  and  N1_8 
REMARK    2  A    between atoms: N1_8  and  C8_9 
REMARK    3  A    between atoms: C8_9  and  C9_10 
REMARK    4  A    between atoms: C8_9  and  C15_16 
ROOT
ATOM      1  C8  <0> d           0.074  -4.907   1.244  0.00  0.00     0.147 C 
ENDROOT
BRANCH   1   2
ATOM      2  N1  <0> d           0.058  -4.167  -0.021  0.00  0.00    -0.379 N 
ATOM      3  H10 <0> d           0.060  -4.648  -0.864  0.00  0.00     0.160 HD
BRANCH   2   4
ATOM      4  C5  <0> d           0.040  -2.771  -0.013  0.00  0.00     0.028 A 
ATOM      5  C4  <0> d           0.024  -2.068  -1.212  0.00  0.00     0.029 A 
ATOM      6  C3  <0> d           0.006  -0.687  -1.200  0.00  0.00     0.009 A 
ATOM      7  C2  <0> d           0.002  -0.004   0.002  0.00  0.00    -0.062 A 
ATOM      8  C1  <0> d          -0.018   1.503   0.010  0.00  0.00     0.048 C 
ATOM      9  C7  <0> d           0.023  -0.700   1.197  0.00  0.00     0.009 A 
ATOM     10  C6  <0> d           0.036  -2.081   1.193  0.00  0.00     0.029 A 
ENDBRANCH   2   4
ENDBRANCH   1   2
BRANCH   1  11
ATOM     11  C9  <0> d           1.494  -5.035   1.733  0.00  0.00    -0.033 A 
ATOM     12  C14 <0> d           1.776  -4.896   3.079  0.00  0.00     0.009 A 
ATOM     13  C13 <0> d           3.078  -5.017   3.528  0.00  0.00     0.001 A 
ATOM     14  C12 <0> d           4.098  -5.269   2.630  0.00  0.00     0.000 A 
ATOM     15  C11 <0> d           3.817  -5.402   1.284  0.00  0.00     0.001 A 
ATOM     16  C10 <0> d           2.514  -5.285   0.835  0.00  0.00     0.009 A 
ENDBRANCH   1  11
BRANCH   1  17
ATOM     17  C15 <0> d          -0.518  -6.301   1.027  0.00  0.00     0.202 A 
ATOM     18  N3  <0> d          -1.813  -6.137   0.347  0.00  0.00    -0.373 N 
ATOM     19  C22 <0> d          -2.879  -6.617   0.918  0.00  0.00     0.056 A 
ATOM     20  H20 <0> d          -1.870  -5.683  -0.508  0.00  0.00     0.160 HD
ATOM     21  C17 <0> d          -2.801  -7.314   2.226  0.00  0.00     0.061 A 
ATOM     22  C21 <0> d          -4.199  -6.481   0.279  0.00  0.00     0.031 A 
ATOM     23  N2  <0> d          -1.652  -7.476   2.861  0.00  0.00    -0.323 N 
ATOM     24  C18 <0> d          -3.999  -7.809   2.789  0.00  0.00     0.032 A 
ATOM     25  C16 <0> d          -0.504  -7.019   2.357  0.00  0.00     0.247 A 
ATOM     26  H21 <0> d          -1.644  -7.937   3.714  0.00  0.00     0.169 HD
ATOM     27  O1  <0> d           0.539  -7.179   2.959  0.00  0.00    -0.271 OA
ATOM     28  C19 <0> d          -5.177  -7.647   2.143  0.00  0.00     0.002 A 
ATOM     29  C20 <0> d          -5.282  -6.992   0.905  0.00  0.00     0.002 A 
ENDBRANCH   1  17
TORSDOF 4
