REMARK  6 active torsions:
REMARK  status: ('A' for Active; 'I' for Inactive)
REMARK    1  A    between atoms: C9_10  and  C14_17 
REMARK    2  A    between atoms: C14_17  and  C15_18 
REMARK       I    between atoms: C15_18  and  N1_20 
REMARK    3  A    between atoms: N1_20  and  C16_21 
REMARK    4  A    between atoms: C16_21  and  C17_22 
REMARK    5  A    between atoms: C16_21  and  C21_26 
REMARK    6  A    between atoms: C17_22  and  C18_23 
ROOT
ATOM      1  C1  <0> d           0.747   1.953   0.527  0.00  0.00     0.051 C 
ATOM      2  C2  <0> d           0.810   0.449   0.461  0.00  0.00    -0.027 A 
ATOM      3  C3  <0> d           0.946  -0.303  -0.638  0.00  0.00     0.150 A 
ATOM      4  O1  <0> d           0.962  -1.608  -0.311  0.00  0.00    -0.321 OA
ATOM      5  C4  <0> d           0.838  -1.773   1.022  0.00  0.00     0.094 A 
ATOM      6  C5  <0> d           0.740  -0.487   1.592  0.00  0.00     0.007 A 
ATOM      7  C6  <0> d           0.607  -0.335   2.965  0.00  0.00     0.029 A 
ATOM      8  C7  <0> d           0.574  -1.468   3.778  0.00  0.00     0.006 A 
ATOM      9  C8  <0> d           0.434  -1.344   5.232  0.00  0.00    -0.036 A 
ATOM     10  C9  <0> d           0.408  -2.481   5.973  0.00  0.00     0.033 A 
ATOM     11  C10 <0> d           0.514  -3.736   5.337  0.00  0.00     0.295 A 
ATOM     12  O2  <0> d           0.488  -4.747   6.015  0.00  0.00    -0.259 OA
ATOM     13  O3  <0> d           0.641  -3.845   4.006  0.00  0.00    -0.274 OA
ATOM     14  C11 <0> d           0.675  -2.754   3.208  0.00  0.00     0.099 A 
ATOM     15  C12 <0> d           0.800  -2.895   1.836  0.00  0.00     0.008 A 
ATOM     16  C13 <0> d           0.911  -4.270   1.229  0.00  0.00     0.054 C 
ATOM     17  C22 <0> d           0.323   0.009   5.886  0.00  0.00     0.050 C 
ENDROOT
BRANCH  10  18
ATOM     18  C14 <0> d           0.266  -2.402   7.472  0.00  0.00     0.148 C 
BRANCH  18  19
ATOM     19  C15 <0> d          -1.186  -2.552   7.847  0.00  0.00     0.222 C 
ATOM     20  O4  <0> d          -2.023  -2.707   6.983  0.00  0.00    -0.273 OA
ATOM     21  N1  <0> d          -1.555  -2.514   9.143  0.00  0.00    -0.346 N 
ATOM     22  H12 <0> d          -0.885  -2.390   9.834  0.00  0.00     0.163 HD
BRANCH  21  23
ATOM     23  C16 <0> d          -2.966  -2.660   9.508  0.00  0.00     0.185 C 
BRANCH  23  24
ATOM     24  C17 <0> d          -3.070  -3.197  10.937  0.00  0.00     0.040 C 
BRANCH  24  25
ATOM     25  C18 <0> d          -2.453  -4.595  11.002  0.00  0.00    -0.020 C 
ATOM     26  C19 <0> d          -2.426  -5.073  12.456  0.00  0.00     0.009 C 
ATOM     27  C20 <0> d          -3.291  -5.562  10.164  0.00  0.00     0.009 C 
ENDBRANCH  24  25
ENDBRANCH  23  24
BRANCH  23  28
ATOM     28  C21 <0> d          -3.647  -1.318   9.424  0.00  0.00     0.196 C 
ATOM     29  O5  <0> d          -4.832  -1.253   9.145  0.00  0.00    -0.646 OA
ATOM     30  O6  <0> d          -3.014  -0.298   9.636  0.00  0.00    -0.646 OA
ENDBRANCH  23  28
ENDBRANCH  21  23
ENDBRANCH  18  19
ENDBRANCH  10  18
TORSDOF 6
