REMARK  5 active torsions:
REMARK  status: ('A' for Active; 'I' for Inactive)
REMARK    1  A    between atoms: C6_7  and  C9_10 
REMARK    2  A    between atoms: C9_10  and  C10_11 
REMARK    3  A    between atoms: N2_14  and  N3_18 
REMARK       I    between atoms: N3_18  and  C13_19 
REMARK    4  A    between atoms: C13_19  and  C14_21 
REMARK    5  A    between atoms: C18_25  and  O3_27 
ROOT
ATOM      1  C10 <0> d           1.173  -4.416  -0.034  0.00  0.00     0.078 A 
ATOM      2  C11 <0> d           0.440  -5.708  -0.041  0.00  0.00     0.285 A 
ATOM      3  O1  <0> d          -0.775  -5.756  -0.035  0.00  0.00    -0.265 OA
ATOM      4  N2  <0> d           1.180  -6.804  -0.053  0.00  0.00    -0.198 N 
ATOM      5  C12 <0> d           2.527  -6.746  -0.059  0.00  0.00     0.168 A 
ATOM      6  S1  <0> d           3.645  -8.042  -0.075  0.00  0.00    -0.050 SA
ATOM      7  S2  <0> d           2.865  -4.992  -0.055  0.00  0.00    -0.053 SA
ENDROOT
BRANCH   4   8
ATOM      8  N3  <0> d           0.550  -8.055  -0.060  0.00  0.00    -0.255 N 
ATOM      9  C13 <0> d           0.511  -8.784  -1.193  0.00  0.00     0.270 C 
ATOM     10  O2  <0> d           1.022  -8.355  -2.209  0.00  0.00    -0.266 OA
ATOM     11  H8  <0> d           0.142  -8.397   0.751  0.00  0.00     0.191 HD
BRANCH   9  12
ATOM     12  C14 <0> d          -0.155 -10.104  -1.200  0.00  0.00     0.036 A 
ATOM     13  C19 <0> d          -0.197 -10.860  -2.371  0.00  0.00     0.053 A 
ATOM     14  C18 <0> d          -0.817 -12.099  -2.369  0.00  0.00     0.066 A 
ATOM     15  C17 <0> d          -1.403 -12.580  -1.206  0.00  0.00     0.036 A 
ATOM     16  C16 <0> d          -1.367 -11.829  -0.046  0.00  0.00     0.004 A 
ATOM     17  C15 <0> d          -0.748 -10.596  -0.036  0.00  0.00     0.017 A 
BRANCH  14  18
ATOM     18  O3  <0> d          -0.855 -12.842  -3.506  0.00  0.00    -0.361 OA
ATOM     19  H13 <0> d          -1.629 -12.671  -4.061  0.00  0.00     0.217 HD
ENDBRANCH  14  18
ENDBRANCH   9  12
ENDBRANCH   4   8
BRANCH   1  20
ATOM     20  C9  <0> d           0.682  -3.126  -0.022  0.00  0.00     0.034 C 
BRANCH  20  21
ATOM     21  C6  <0> d           1.564  -2.043  -0.024  0.00  0.00    -0.027 A 
ATOM     22  C5  <0> d           3.076  -2.095  -0.040  0.00  0.00     0.159 A 
ATOM     23  N1  <0> d           3.530  -0.701  -0.037  0.00  0.00    -0.385 N 
ATOM     24  C4  <0> d           2.485   0.097  -0.022  0.00  0.00     0.039 A 
ATOM     25  H14 <0> d           4.456  -0.412  -0.045  0.00  0.00     0.160 HD
ATOM     26  C3  <0> d           2.384   1.515  -0.013  0.00  0.00     0.030 A 
ATOM     27  C7  <0> d           1.237  -0.688  -0.013  0.00  0.00    -0.002 A 
ATOM     28  C2  <0> d           1.164   2.103   0.002  0.00  0.00     0.002 A 
ATOM     29  C1  <0> d          -0.016   1.353   0.009  0.00  0.00     0.001 A 
ATOM     30  C8  <0> d           0.002  -0.004   0.002  0.00  0.00     0.014 A 
ENDBRANCH  20  21
ENDBRANCH   1  20
TORSDOF 5
