REMARK  7 active torsions:
REMARK  status: ('A' for Active; 'I' for Inactive)
REMARK    1  A    between atoms: N2_6  and  C5_7 
REMARK    2  A    between atoms: C5_7  and  C6_8 
REMARK    3  A    between atoms: C6_8  and  C7_9 
REMARK    4  A    between atoms: C7_9  and  N3_10 
REMARK       I    between atoms: N3_10  and  C8_11 
REMARK       I    between atoms: C8_11  and  N4_13 
REMARK    5  A    between atoms: N4_13  and  C9_14 
REMARK    6  A    between atoms: C9_14  and  C11_16 
REMARK    7  A    between atoms: C15_20  and  N5_22 
ROOT
ATOM      1  N3  <0> d          -2.789   0.635   4.811  0.00  0.00    -0.343 N 
ATOM      2  C8  <0> d          -3.018   1.054   6.072  0.00  0.00     0.316 C 
ATOM      3  O1  <0> d          -2.086   1.236   6.831  0.00  0.00    -0.247 OA
ATOM      4  N4  <0> d          -4.280   1.270   6.491  0.00  0.00    -0.335 N 
ATOM      5  H12 <0> d          -3.532   0.490   4.206  0.00  0.00     0.164 HD
ATOM      6  H13 <0> d          -5.024   1.124   5.886  0.00  0.00     0.165 HD
ENDROOT
BRANCH   4   7
ATOM      7  C9  <0> d          -4.529   1.725   7.861  0.00  0.00     0.115 C 
ATOM      8  C10 <0> d          -4.581   0.517   8.798  0.00  0.00     0.037 C 
BRANCH   7   9
ATOM      9  C11 <0> d          -5.844   2.459   7.916  0.00  0.00    -0.034 A 
ATOM     10  C16 <0> d          -5.966   3.600   8.684  0.00  0.00     0.039 A 
ATOM     11  C15 <0> d          -7.177   4.279   8.730  0.00  0.00     0.037 A 
ATOM     12  C14 <0> d          -8.264   3.802   8.010  0.00  0.00     0.030 A 
ATOM     13  C13 <0> d          -8.137   2.658   7.247  0.00  0.00     0.003 A 
ATOM     14  C12 <0> d          -6.929   1.987   7.200  0.00  0.00     0.009 A 
BRANCH  11  15
ATOM     15  N5  <0> d          -7.302   5.438   9.504  0.00  0.00    -0.318 N 
ATOM     16  C20 <0> d          -8.395   6.219   9.528  0.00  0.00     0.224 C 
ATOM     17  C19 <0> d          -8.180   7.386  10.466  0.00  0.00     0.105 C 
ATOM     18  O2  <0> d          -9.408   6.017   8.893  0.00  0.00    -0.273 OA
ATOM     19  C18 <0> d          -6.648   7.427  10.674  0.00  0.00     0.029 C 
ATOM     20  C17 <0> d          -6.253   5.961  10.387  0.00  0.00     0.133 C 
ENDBRANCH  11  15
ENDBRANCH   7   9
ENDBRANCH   4   7
BRANCH   1  21
ATOM     21  C7  <0> d          -1.416   0.400   4.356  0.00  0.00     0.126 C 
BRANCH  21  22
ATOM     22  C6  <0> d          -1.436  -0.065   2.898  0.00  0.00     0.040 C 
BRANCH  22  23
ATOM     23  C5  <0> d          -0.002  -0.311   2.422  0.00  0.00     0.131 C 
BRANCH  23  24
ATOM     24  N2  <0> d          -0.021  -0.756   1.027  0.00  0.00    -0.346 N 
ATOM     25  C2  <0> d          -0.059   0.035  -0.067  0.00  0.00     0.079 A 
ATOM     26  C1  <0> d          -0.089   1.542  -0.060  0.00  0.00     0.089 C 
ATOM     27  N1  <0> d          -0.058  -0.721  -1.130  0.00  0.00    -0.355 N 
ATOM     28  C3  <0> d          -0.026  -2.009  -0.758  0.00  0.00     0.106 A 
ATOM     29  H28 <0> d          -0.078  -0.402  -2.046  0.00  0.00     0.166 HD
ATOM     30  C4  <0> d          -0.006  -2.053   0.588  0.00  0.00     0.109 A 
ENDBRANCH  23  24
ENDBRANCH  22  23
ENDBRANCH  21  22
ENDBRANCH   1  21
TORSDOF 7
