REMARK  4 active torsions:
REMARK  status: ('A' for Active; 'I' for Inactive)
REMARK    1  A    between atoms: C6_7  and  N2_8 
REMARK       I    between atoms: N2_8  and  C7_9 
REMARK    2  A    between atoms: C7_9  and  C8_11 
REMARK    3  A    between atoms: N3_14  and  C11_16 
REMARK    4  A    between atoms: C11_16  and  N5_17 
ROOT
ATOM      1  C8  <0> d           1.463  -2.712  -3.439  0.00  0.00     0.146 A 
ATOM      2  C9  <0> d           2.812  -3.086  -3.233  0.00  0.00     0.058 A 
ATOM      3  C10 <0> d           3.078  -2.783  -1.940  0.00  0.00     0.117 A 
ATOM      4  N3  <0> d           1.948  -2.268  -1.409  0.00  0.00    -0.260 N 
ATOM      5  N4  <0> d           1.018  -2.230  -2.295  0.00  0.00    -0.166 NA
ENDROOT
BRANCH   1   6
ATOM      6  C7  <0> d           0.699  -2.837  -4.696  0.00  0.00     0.277 C 
ATOM      7  N2  <0> d          -0.587  -2.437  -4.745  0.00  0.00    -0.306 N 
ATOM      8  H7  <0> d          -1.067  -2.017  -3.849  0.00  0.00     0.170 HD
ATOM      9  O1  <0> d           1.229  -3.302  -5.686  0.00  0.00    -0.266 OA
BRANCH   7  10
ATOM     10  C6  <0> d          -1.308  -2.555  -5.932  0.00  0.00     0.136 A 
ATOM     11  C2  <0> d          -2.635  -2.141  -5.976  0.00  0.00    -0.016 A 
ATOM     12  C1  <0> d          -3.296  -1.565  -4.750  0.00  0.00     0.052 C 
ATOM     13  C3  <0> d          -3.339  -2.263  -7.160  0.00  0.00     0.012 A 
ATOM     14  C4  <0> d          -2.691  -2.799  -8.264  0.00  0.00     0.020 A 
ATOM     15  C5  <0> d          -1.371  -3.191  -8.149  0.00  0.00     0.119 A 
ATOM     16  N1  <0> d          -0.723  -3.057  -7.008  0.00  0.00    -0.243 NA
ENDBRANCH   7  10
ENDBRANCH   1   6
BRANCH   4  17
ATOM     17  C11 <0> d           1.806  -1.812  -0.025  0.00  0.00     0.300 C 
BRANCH  17  18
ATOM     18  N5  <0> d           1.338  -0.424  -0.013  0.00  0.00    -0.253 N 
ATOM     19  N6  <0> d           0.002  -0.004   0.002  0.00  0.00    -0.174 NA
ATOM     20  C14 <0> d          -0.016   1.304   0.009  0.00  0.00     0.070 A 
ATOM     21  C13 <0> d           1.307   1.760  -0.001  0.00  0.00     0.060 A 
ATOM     22  C15 <0> d          -1.248   2.171   0.020  0.00  0.00     0.074 C 
ATOM     23  C12 <0> d           2.120   0.677  -0.015  0.00  0.00     0.048 A 
ATOM     24 Br1  <0> d           1.862   3.567   0.003  0.00  0.00    -0.047 Br
ATOM     25  C16 <0> d           3.627   0.697  -0.029  0.00  0.00     0.071 C 
ENDBRANCH  17  18
ENDBRANCH   4  17
TORSDOF 4
