REMARK  4 active torsions:
REMARK  status: ('A' for Active; 'I' for Inactive)
REMARK    1  A    between atoms: C3_3  and  C5_6 
REMARK    2  A    between atoms: C7_8  and  C8_11 
REMARK       I    between atoms: C8_11  and  N3_13 
REMARK    3  A    between atoms: C10_15  and  C12_17 
REMARK    4  A    between atoms: C13_19  and  C14_22 
ROOT
ATOM      1  C8  <0> d           6.848   1.850   1.177  0.00  0.00     0.250 C 
ATOM      2  O1  <0> d           6.717   2.599   2.123  0.00  0.00    -0.271 OA
ATOM      3  N3  <0> d           7.760   0.859   1.224  0.00  0.00    -0.349 N 
ATOM      4  C9  <0> d           8.210  -0.209   0.319  0.00  0.00     0.136 C 
ATOM      5  C10 <0> d           9.574  -0.156   1.022  0.00  0.00     0.083 C 
ATOM      6  C11 <0> d           8.749   0.375   2.199  0.00  0.00     0.136 C 
ENDROOT
BRANCH   5   7
ATOM      7  C12 <0> d          10.209  -1.527   1.264  0.00  0.00     0.387 C 
ATOM      8  O2  <0> d          10.556  -2.133   0.010  0.00  0.00    -0.267 OA
ATOM      9  N5  <0> d          12.018  -2.345   0.017  0.00  0.00    -0.166 NA
ATOM     10  C13 <0> d          12.375  -2.389   1.460  0.00  0.00     0.354 C 
ATOM     11  H14 <0> d          12.496  -1.589  -0.451  0.00  0.00     0.156 HD
ATOM     12  N4  <0> d          11.458  -1.372   2.043  0.00  0.00     0.139 N 
ATOM     13  H13 <0> d          11.836  -0.443   1.939  0.00  0.00     0.322 HD
BRANCH  10  14
ATOM     14  C14 <0> d          13.814  -1.998   1.673  0.00  0.00    -0.007 A 
ATOM     15  C18 <0> d          14.794  -2.376   0.768  0.00  0.00     0.027 A 
ATOM     16  C17 <0> d          16.103  -1.994   0.994  0.00  0.00     0.088 A 
ATOM     17  N6  <0> d          16.425  -1.288   2.060  0.00  0.00    -0.375 N 
ATOM     18  C16 <0> d          15.521  -0.916   2.945  0.00  0.00     0.088 A 
ATOM     19  H19 <0> d          17.352  -1.036   2.197  0.00  0.00     0.164 HD
ATOM     20  C15 <0> d          14.192  -1.256   2.783  0.00  0.00     0.027 A 
ENDBRANCH  10  14
ENDBRANCH   5   7
BRANCH   1  21
ATOM     21  C7  <0> d           5.990   2.028  -0.049  0.00  0.00     0.248 A 
ATOM     22  C6  <0> d           4.837   1.040  -0.045  0.00  0.00     0.046 A 
ATOM     23  C5  <0> d           3.739   1.825  -0.025  0.00  0.00     0.094 A 
ATOM     24  N2  <0> d           4.097   3.137  -0.022  0.00  0.00    -0.153 NA
ATOM     25  N1  <0> d           5.313   3.335  -0.029  0.00  0.00    -0.173 NA
BRANCH  23  26
ATOM     26  C3  <0> d           2.347   1.329  -0.013  0.00  0.00     0.035 A 
ATOM     27  C2  <0> d           1.177   2.041   0.002  0.00  0.00     0.022 A 
ATOM     28  C1  <0> d          -0.016   1.354   0.009  0.00  0.00     0.008 A 
ATOM     29  C4  <0> d           0.002  -0.004   0.002  0.00  0.00     0.050 A 
ATOM     30  S1  <0> d           1.752  -0.354  -0.017  0.00  0.00    -0.100 SA
ENDBRANCH  23  26
ENDBRANCH   1  21
TORSDOF 4
