REMARK  6 active torsions:
REMARK  status: ('A' for Active; 'I' for Inactive)
REMARK    1  A    between atoms: C6_7  and  C18_24 
REMARK    2  A    between atoms: N3_16  and  C15_20 
REMARK    3  A    between atoms: C15_20  and  C16_21 
REMARK    4  A    between atoms: C16_21  and  C17_22 
REMARK    5  A    between atoms: C17_22  and  O3_23 
REMARK    6  A    between atoms: C22_28  and  N4_30 
ROOT
ATOM      1  C1  <0> d          -0.391   1.016  -0.125  0.00  0.00     0.001 A 
ATOM      2  C2  <0> d           0.698   1.892  -0.063  0.00  0.00     0.002 A 
ATOM      3  C3  <0> d           1.996   1.501  -0.017  0.00  0.00     0.030 A 
ATOM      4  C4  <0> d           2.260   0.100  -0.035  0.00  0.00     0.039 A 
ATOM      5  N1  <0> d           3.390  -0.543  -0.021  0.00  0.00    -0.378 N 
ATOM      6  C5  <0> d           3.104  -1.979   0.017  0.00  0.00     0.139 A 
ATOM      7  C6  <0> d           3.731  -2.713  -1.172  0.00  0.00     0.148 C 
ATOM      8  N2  <0> d           3.094  -4.046  -1.267  0.00  0.00    -0.326 N 
ATOM      9  C7  <0> d           1.654  -4.138  -1.489  0.00  0.00     0.184 A 
ATOM     10  C8  <0> d           0.904  -3.423  -0.350  0.00  0.00     0.072 C 
ATOM     11  C9  <0> d           1.592  -2.096  -0.129  0.00  0.00    -0.040 A 
ATOM     12  C10 <0> d           1.115  -0.858  -0.110  0.00  0.00    -0.005 A 
ATOM     13  C11 <0> d          -0.261  -0.337  -0.151  0.00  0.00     0.014 A 
ATOM     14  C12 <0> d           1.176  -5.549  -1.583  0.00  0.00     0.243 A 
ATOM     15  O1  <0> d          -0.004  -5.736  -1.788  0.00  0.00    -0.271 OA
ATOM     16  N3  <0> d           1.964  -6.616  -1.456  0.00  0.00    -0.342 N 
ATOM     17  C13 <0> d           3.394  -6.535  -1.209  0.00  0.00     0.228 A 
ATOM     18  C14 <0> d           3.876  -5.124  -1.143  0.00  0.00     0.239 A 
ATOM     19  O2  <0> d           5.059  -4.942  -0.944  0.00  0.00    -0.271 OA
ATOM     20  H23 <0> d           4.272  -0.141  -0.033  0.00  0.00     0.160 HD
ENDROOT
BRANCH   7  21
ATOM     21  C18 <0> d           3.484  -1.937  -2.440  0.00  0.00    -0.031 A 
ATOM     22  C23 <0> d           4.551  -1.487  -3.194  0.00  0.00     0.045 A 
ATOM     23  C22 <0> d           4.324  -0.778  -4.359  0.00  0.00     0.103 A 
ATOM     24  C21 <0> d           3.031  -0.511  -4.765  0.00  0.00     0.036 A 
ATOM     25  C20 <0> d           1.963  -0.957  -4.008  0.00  0.00     0.003 A 
ATOM     26  C19 <0> d           2.189  -1.669  -2.845  0.00  0.00     0.009 A 
BRANCH  23  27
ATOM     27  N4  <0> d           5.468  -0.302  -5.170  0.00  0.00    -0.116 N 
ATOM     28  O4  <0> d           5.269   0.320  -6.187  0.00  0.00    -0.532 OA
ATOM     29  O5  <0> d           6.599  -0.535  -4.815  0.00  0.00    -0.532 OA
ENDBRANCH  23  27
ENDBRANCH   7  21
BRANCH  16  30
ATOM     30  C15 <0> d           1.355  -7.943  -1.571  0.00  0.00     0.128 C 
BRANCH  30  31
ATOM     31  C16 <0> d           1.387  -8.394  -3.033  0.00  0.00     0.046 C 
BRANCH  31  32
ATOM     32  C17 <0> d           0.751  -9.780  -3.153  0.00  0.00     0.165 C 
BRANCH  32  33
ATOM     33  O3  <0> d           0.781 -10.202  -4.518  0.00  0.00    -0.401 OA
ATOM     34  H18 <0> d           0.393 -11.075  -4.669  0.00  0.00     0.209 HD
ENDBRANCH  32  33
ENDBRANCH  31  32
ENDBRANCH  30  31
ENDBRANCH  16  30
TORSDOF 6
