REMARK  5 active torsions:
REMARK  status: ('A' for Active; 'I' for Inactive)
REMARK    1  A    between atoms: C4_4  and  C16_22 
REMARK    2  A    between atoms: N1_8  and  C7_9 
REMARK    3  A    between atoms: C7_9  and  C8_10 
REMARK       I    between atoms: C8_10  and  N2_12 
REMARK    4  A    between atoms: N2_12  and  N3_13 
REMARK    5  A    between atoms: C16_22  and  O3_23 
ROOT
ATOM      1  C1  <0> d          -0.558  -4.685   1.420  0.00  0.00     0.070 C 
ATOM      2  C2  <0> d           0.106  -4.059   0.221  0.00  0.00     0.029 A 
ATOM      3  C3  <0> d           0.189  -2.707   0.135  0.00  0.00     0.043 A 
ATOM      4  C4  <0> d           0.796  -2.111  -0.972  0.00  0.00     0.011 A 
ATOM      5  C5  <0> d           1.319  -2.924  -1.973  0.00  0.00     0.122 A 
ATOM      6  C6  <0> d           1.213  -4.333  -1.836  0.00  0.00     0.269 A 
ATOM      7  O1  <0> d           1.665  -5.067  -2.699  0.00  0.00    -0.266 OA
ATOM      8  N1  <0> d           0.614  -4.857  -0.751  0.00  0.00    -0.307 N 
ATOM      9  C15 <0> d           1.955  -2.350  -3.121  0.00  0.00     0.106 C 
ATOM     10  N4  <0> d           2.458  -1.894  -4.031  0.00  0.00    -0.191 NA
ATOM     11 Br1  <0> d          -0.525  -1.628   1.515  0.00  0.00    -0.048 Br
ENDROOT
BRANCH   4  12
ATOM     12  C16 <0> d           0.888  -0.610  -1.078  0.00  0.00     0.208 C 
BRANCH  12  13
ATOM     13  O3  <0> d           1.554  -0.259  -2.293  0.00  0.00    -0.391 OA
ATOM     14  C17 <0> d           1.695   1.149  -2.492  0.00  0.00     0.201 C 
ENDBRANCH  12  13
ENDBRANCH   4  12
BRANCH   8  15
ATOM     15  C7  <0> d           0.508  -6.312  -0.617  0.00  0.00     0.236 C 
BRANCH  15  16
ATOM     16  C8  <0> d          -0.824  -6.771  -1.150  0.00  0.00     0.256 C 
ATOM     17  O2  <0> d          -1.609  -5.962  -1.598  0.00  0.00    -0.270 OA
ATOM     18  N2  <0> d          -1.144  -8.080  -1.129  0.00  0.00    -0.246 N 
ATOM     19  H6  <0> d          -0.516  -8.727  -0.771  0.00  0.00     0.192 HD
BRANCH  18  20
ATOM     20  N3  <0> d          -2.383  -8.506  -1.625  0.00  0.00    -0.181 NA
ATOM     21  C9  <0> d          -2.729  -9.733  -1.513  0.00  0.00     0.032 C 
ATOM     22  C14 <0> d          -3.996 -10.244  -2.163  0.00  0.00     0.056 C 
ATOM     23  C10 <0> d          -1.878 -10.711  -0.733  0.00  0.00     0.056 C 
ATOM     24  C13 <0> d          -4.819 -10.990  -1.106  0.00  0.00     0.006 C 
ATOM     25  C12 <0> d          -3.956 -12.078  -0.465  0.00  0.00     0.001 C 
ATOM     26  C11 <0> d          -2.781 -11.438   0.276  0.00  0.00     0.006 C 
ENDBRANCH  18  20
ENDBRANCH  15  16
ENDBRANCH   8  15
TORSDOF 5
