REMARK  10 active torsions:
REMARK  status: ('A' for Active; 'I' for Inactive)
REMARK    1  A    between atoms: S1_2  and  C2_3 
REMARK    2  A    between atoms: C3_4  and  C14_20 
REMARK    3  A    between atoms: C6_7  and  O4_19 
REMARK    4  A    between atoms: C7_8  and  S2_9 
REMARK    5  A    between atoms: S2_9  and  O3_12 
REMARK    6  A    between atoms: O3_12  and  C8_13 
REMARK    7  A    between atoms: C14_20  and  C15_21 
REMARK    8  A    between atoms: C14_20  and  N1_24 
REMARK    9  A    between atoms: C15_21  and  C16_22 
REMARK   10  A    between atoms: N1_24  and  C17_25 
ROOT
ATOM      1  C2  <0> d          -1.293  -0.577  -0.006  0.00  0.00     0.035 A 
ATOM      2  C3  <0> d          -1.832  -0.783   1.259  0.00  0.00    -0.017 A 
ATOM      3  C4  <0> d          -3.178  -1.055   1.401  0.00  0.00     0.013 A 
ATOM      4  C5  <0> d          -3.994  -1.123   0.287  0.00  0.00     0.039 A 
ATOM      5  C6  <0> d          -3.462  -0.918  -0.979  0.00  0.00     0.090 A 
ATOM      6  C7  <0> d          -2.112  -0.639  -1.125  0.00  0.00     0.137 A 
ENDROOT
BRANCH   6   7
ATOM      7  S2  <0> d          -1.436  -0.371  -2.730  0.00  0.00     0.307 S 
ATOM      8  O1  <0> d          -1.683   0.990  -3.053  0.00  0.00    -0.193 OA
ATOM      9  O2  <0> d          -0.127  -0.925  -2.717  0.00  0.00    -0.193 OA
BRANCH   7  10
ATOM     10  O3  <0> d          -2.252  -1.205  -3.708  0.00  0.00    -0.229 OA
BRANCH  10  11
ATOM     11  C8  <0> d          -1.961  -2.532  -3.678  0.00  0.00     0.089 A 
ATOM     12  C13 <0> d          -2.719  -3.392  -2.897  0.00  0.00     0.038 A 
ATOM     13  C12 <0> d          -2.426  -4.742  -2.873  0.00  0.00     0.003 A 
ATOM     14  C11 <0> d          -1.370  -5.234  -3.618  0.00  0.00     0.000 A 
ATOM     15  C10 <0> d          -0.610  -4.378  -4.394  0.00  0.00     0.003 A 
ATOM     16  C9  <0> d          -0.903  -3.029  -4.426  0.00  0.00     0.038 A 
ENDBRANCH  10  11
ENDBRANCH   7  10
ENDBRANCH   6   7
BRANCH   1  17
ATOM     17  S1  <0> d           0.425  -0.229  -0.188  0.00  0.00    -0.132 SA
ATOM     18  C1  <0> d           0.520   1.580  -0.086  0.00  0.00     0.095 C 
ENDBRANCH   1  17
BRANCH   5  19
ATOM     19  O4  <0> d          -4.265  -0.986  -2.073  0.00  0.00    -0.359 OA
ATOM     20  H12 <0> d          -4.605  -0.129  -2.365  0.00  0.00     0.217 HD
ENDBRANCH   5  19
BRANCH   2  21
ATOM     21  C14 <0> d          -0.946  -0.710   2.476  0.00  0.00     0.124 C 
BRANCH  21  22
ATOM     22  C15 <0> d          -0.307  -2.079   2.724  0.00  0.00     0.099 C 
BRANCH  22  23
ATOM     23  C16 <0> d           0.672  -1.976   3.865  0.00  0.00     0.233 C 
ATOM     24  O5  <0> d           0.567  -2.710   4.819  0.00  0.00    -0.307 OA
ENDBRANCH  22  23
ENDBRANCH  21  22
BRANCH  21  25
ATOM     25  N1  <0> d          -1.746  -0.327   3.641  0.00  0.00    -0.359 N 
ATOM     26  H16 <0> d          -2.678  -0.592   3.698  0.00  0.00     0.162 HD
BRANCH  25  27
ATOM     27  C17 <0> d          -1.189   0.395   4.634  0.00  0.00     0.349 C 
ATOM     28  O6  <0> d          -0.025   0.727   4.562  0.00  0.00    -0.284 OA
ENDBRANCH  25  27
ENDBRANCH  21  25
ENDBRANCH   2  21
TORSDOF 10
