REMARK  8 active torsions:
REMARK  status: ('A' for Active; 'I' for Inactive)
REMARK    1  A    between atoms: C2_2  and  N1_3 
REMARK    2  A    between atoms: N1_3  and  S1_4 
REMARK    3  A    between atoms: S1_4  and  C3_7 
REMARK    4  A    between atoms: C7_11  and  C9_13 
REMARK       I    between atoms: C9_13  and  N2_15 
REMARK    5  A    between atoms: N2_15  and  C10_16 
REMARK    6  A    between atoms: C10_16  and  C11_17 
REMARK    7  A    between atoms: C11_17  and  C12_18 
REMARK    8  A    between atoms: C12_18  and  N3_19 
ROOT
ATOM      1  C3  <0> d           1.308  -3.048   0.369  0.00  0.00     0.080 A 
ATOM      2  C4  <0> d           0.535  -3.492  -0.690  0.00  0.00     0.028 A 
ATOM      3  C5  <0> d           1.101  -4.255  -1.694  0.00  0.00     0.045 A 
ATOM      4  C6  <0> d           2.445  -4.579  -1.647  0.00  0.00     0.132 A 
ATOM      5  C7  <0> d           3.229  -4.132  -0.579  0.00  0.00     0.071 A 
ATOM      6  C8  <0> d           2.650  -3.358   0.428  0.00  0.00     0.045 A 
ATOM      7  F1  <0> d           2.997  -5.325  -2.628  0.00  0.00    -0.205 F 
ENDROOT
BRANCH   5   8
ATOM      8  C9  <0> d           4.665  -4.473  -0.519  0.00  0.00     0.254 C 
ATOM      9  O3  <0> d           5.168  -5.144  -1.400  0.00  0.00    -0.268 OA
ATOM     10  N2  <0> d           5.418  -4.041   0.511  0.00  0.00    -0.357 N 
ATOM     11  H10 <0> d           5.017  -3.506   1.214  0.00  0.00     0.162 HD
BRANCH  10  12
ATOM     12  C10 <0> d           6.842  -4.380   0.571  0.00  0.00     0.124 C 
BRANCH  12  13
ATOM     13  C11 <0> d           7.459  -3.771   1.831  0.00  0.00     0.040 C 
BRANCH  13  14
ATOM     14  C12 <0> d           8.947  -4.124   1.893  0.00  0.00     0.131 C 
BRANCH  14  15
ATOM     15  N3  <0> d           9.537  -3.541   3.100  0.00  0.00    -0.346 N 
ATOM     16  C15 <0> d           9.539  -4.087   4.335  0.00  0.00     0.079 A 
ATOM     17  N4  <0> d          10.160  -3.278   5.150  0.00  0.00    -0.355 N 
ATOM     18  C16 <0> d           8.929  -5.413   4.711  0.00  0.00     0.089 C 
ATOM     19  C14 <0> d          10.565  -2.193   4.472  0.00  0.00     0.106 A 
ATOM     20  H22 <0> d          10.303  -3.434   6.096  0.00  0.00     0.166 HD
ATOM     21  C13 <0> d          10.185  -2.339   3.188  0.00  0.00     0.109 A 
ENDBRANCH  14  15
ENDBRANCH  13  14
ENDBRANCH  12  13
ENDBRANCH  10  12
ENDBRANCH   5   8
BRANCH   1  22
ATOM     22  S1  <0> d           0.575  -2.076   1.643  0.00  0.00     0.258 S 
ATOM     23  O1  <0> d           1.387  -2.239   2.797  0.00  0.00    -0.201 OA
ATOM     24  O2  <0> d          -0.813  -2.382   1.640  0.00  0.00    -0.201 OA
BRANCH  22  25
ATOM     25  N1  <0> d           0.711  -0.489   1.189  0.00  0.00    -0.316 N 
ATOM     26  H6  <0> d           1.260   0.119   1.708  0.00  0.00     0.172 HD
BRANCH  25  27
ATOM     27  C2  <0> d           0.002  -0.004   0.002  0.00  0.00     0.128 C 
ATOM     28  C1  <0> d          -0.019   1.526   0.010  0.00  0.00     0.027 C 
ENDBRANCH  25  27
ENDBRANCH  22  25
ENDBRANCH   1  22
TORSDOF 8
