REMARK  6 active torsions:
REMARK  status: ('A' for Active; 'I' for Inactive)
REMARK    1  A    between atoms: C3_3  and  C7_8 
REMARK    2  A    between atoms: C8_9  and  C9_10 
REMARK       I    between atoms: C9_10  and  N1_12 
REMARK    3  A    between atoms: N1_12  and  C10_13 
REMARK    4  A    between atoms: C13_16  and  S1_19 
REMARK    5  A    between atoms: S1_19  and  N2_22 
REMARK    6  A    between atoms: N2_22  and  C16_23 
ROOT
ATOM      1  C10 <0> d           8.434   2.346   0.023  0.00  0.00     0.035 A 
ATOM      2  C11 <0> d           8.362   3.729   0.132  0.00  0.00     0.031 A 
ATOM      3  C12 <0> d           9.521   4.475   0.214  0.00  0.00     0.027 A 
ATOM      4  C13 <0> d          10.753   3.847   0.187  0.00  0.00     0.082 A 
ATOM      5  C14 <0> d          10.828   2.470   0.078  0.00  0.00     0.027 A 
ATOM      6  C15 <0> d           9.673   1.718   0.002  0.00  0.00     0.031 A 
ENDROOT
BRANCH   1   7
ATOM      7  N1  <0> d           7.262   1.587  -0.060  0.00  0.00    -0.324 N 
ATOM      8  C9  <0> d           7.204   0.372   0.520  0.00  0.00     0.245 C 
ATOM      9  O1  <0> d           8.196  -0.101   1.043  0.00  0.00    -0.268 OA
ATOM     10  H7  <0> d           6.491   1.936  -0.534  0.00  0.00     0.169 HD
BRANCH   8  11
ATOM     11  C8  <0> d           5.947  -0.379   0.521  0.00  0.00     0.075 C 
ATOM     12  C7  <0> d           5.889  -1.594   1.101  0.00  0.00     0.017 C 
BRANCH  12  13
ATOM     13  C3  <0> d           4.625  -2.349   1.102  0.00  0.00    -0.033 A 
ATOM     14  C2  <0> d           4.561  -3.610   1.703  0.00  0.00     0.011 A 
ATOM     15  C1  <0> d           3.374  -4.312   1.701  0.00  0.00     0.004 A 
ATOM     16  C6  <0> d           2.247  -3.773   1.107  0.00  0.00     0.042 A 
ATOM     17  C5  <0> d           2.301  -2.523   0.509  0.00  0.00     0.117 A 
ATOM     18  C4  <0> d           3.483  -1.809   0.503  0.00  0.00     0.053 A 
ATOM     19  F1  <0> d           1.196  -2.003  -0.069  0.00  0.00    -0.206 F 
ENDBRANCH  12  13
ENDBRANCH   8  11
ENDBRANCH   1   7
BRANCH   4  20
ATOM     20  S1  <0> d          12.229   4.802   0.291  0.00  0.00     0.298 S 
ATOM     21  O2  <0> d          13.259   4.025  -0.304  0.00  0.00    -0.198 OA
ATOM     22  O3  <0> d          11.901   6.108  -0.163  0.00  0.00    -0.198 OA
BRANCH  20  23
ATOM     23  N2  <0> d          12.610   4.942   1.897  0.00  0.00     0.034 NA
BRANCH  23  24
ATOM     24  C16 <0> d          13.735   5.650   2.282  0.00  0.00     0.759 A 
ATOM     25  N4  <0> d          14.025   5.752   3.571  0.00  0.00    -0.073 NA
ATOM     26  C19 <0> d          15.096   6.417   3.973  0.00  0.00     0.138 A 
ATOM     27  C18 <0> d          15.911   7.019   3.028  0.00  0.00     0.040 A 
ATOM     28  C17 <0> d          15.576   6.897   1.689  0.00  0.00     0.138 A 
ATOM     29  N3  <0> d          14.494   6.214   1.354  0.00  0.00    -0.073 NA
ENDBRANCH  23  24
ENDBRANCH  20  23
ENDBRANCH   4  20
TORSDOF 6
