REMARK  5 active torsions:
REMARK  status: ('A' for Active; 'I' for Inactive)
REMARK    1  A    between atoms: C2_2  and  N1_5 
REMARK       I    between atoms: N1_5  and  C5_6 
REMARK    2  A    between atoms: C5_6  and  C6_8 
REMARK    3  A    between atoms: C12_14  and  N2_17 
REMARK       I    between atoms: N2_17  and  C14_18 
REMARK    4  A    between atoms: C14_18  and  C15_20 
REMARK    5  A    between atoms: C19_24  and  N3_26 
ROOT
ATOM      1  C6  <0> d          -7.001  -0.318   0.397  0.00  0.00     0.096 A 
ATOM      2  C7  <0> d          -7.227   1.024   0.411  0.00  0.00     0.068 A 
ATOM      3  C8  <0> d          -6.144   1.919   0.320  0.00  0.00     0.006 A 
ATOM      4  C9  <0> d          -6.175   3.338   0.319  0.00  0.00     0.014 A 
ATOM      5  C10 <0> d          -5.030   4.061   0.224  0.00  0.00     0.003 A 
ATOM      6  C11 <0> d          -3.786   3.450   0.129  0.00  0.00     0.031 A 
ATOM      7  C12 <0> d          -3.707   2.066   0.121  0.00  0.00     0.053 A 
ATOM      8  C13 <0> d          -4.869   1.318   0.218  0.00  0.00     0.044 A 
ATOM      9  S1  <0> d          -5.225  -0.421   0.253  0.00  0.00    -0.080 SA
ATOM     10 Cl1  <0> d          -8.848   1.632   0.541  0.00  0.00    -0.082 Cl
ENDROOT
BRANCH   7  11
ATOM     11  N2  <0> d          -2.465   1.430   0.021  0.00  0.00    -0.322 N 
ATOM     12  C14 <0> d          -1.378   1.980   0.599  0.00  0.00     0.256 C 
ATOM     13  O2  <0> d          -1.461   3.067   1.137  0.00  0.00    -0.267 OA
ATOM     14  H14 <0> d          -2.385   0.593  -0.463  0.00  0.00     0.169 HD
BRANCH  12  15
ATOM     15  C15 <0> d          -0.086   1.262   0.578  0.00  0.00     0.034 A 
ATOM     16  C20 <0> d           1.042   1.832   1.169  0.00  0.00     0.053 A 
ATOM     17  C19 <0> d           2.246   1.159   1.141  0.00  0.00     0.103 A 
ATOM     18  C18 <0> d           2.337  -0.078   0.527  0.00  0.00     0.036 A 
ATOM     19  C17 <0> d           1.222  -0.648  -0.061  0.00  0.00     0.003 A 
ATOM     20  C16 <0> d           0.012   0.014  -0.040  0.00  0.00     0.017 A 
BRANCH  17  21
ATOM     21  N3  <0> d           3.444   1.762   1.767  0.00  0.00    -0.116 N 
ATOM     22  O3  <0> d           4.508   1.169   1.742  0.00  0.00    -0.532 OA
ATOM     23  O4  <0> d           3.366   2.851   2.307  0.00  0.00    -0.532 OA
ENDBRANCH  17  21
ENDBRANCH  12  15
ENDBRANCH   7  11
BRANCH   1  24
ATOM     24  C5  <0> d          -7.977  -1.411   0.481  0.00  0.00     0.260 C 
ATOM     25  N1  <0> d          -7.559  -2.692   0.451  0.00  0.00    -0.348 N 
ATOM     26  H10 <0> d          -6.613  -2.892   0.374  0.00  0.00     0.163 HD
ATOM     27  O1  <0> d          -9.164  -1.161   0.578  0.00  0.00    -0.267 OA
BRANCH  25  28
ATOM     28  C2  <0> d          -8.533  -3.783   0.535  0.00  0.00     0.022 C 
ATOM     29  C1  <0> d          -9.510  -3.686  -0.639  0.00  0.00     0.037 C 
ATOM     30  C3  <0> d          -7.801  -5.126   0.479  0.00  0.00     0.037 C 
ATOM     31  C4  <0> d          -9.305  -3.678   1.851  0.00  0.00     0.037 C 
ENDBRANCH  25  28
ENDBRANCH   1  24
TORSDOF 5
