REMARK  6 active torsions:
REMARK  status: ('A' for Active; 'I' for Inactive)
REMARK    1  A    between atoms: C5_5  and  O3_28 
REMARK    2  A    between atoms: C6_6  and  C8_8 
REMARK    3  A    between atoms: N3_16  and  C19_25 
REMARK    4  A    between atoms: C12_17  and  C13_18 
REMARK    5  A    between atoms: C19_25  and  C20_26 
REMARK    6  A    between atoms: C20_26  and  O2_27 
ROOT
ATOM      1  C8  <0> d          -0.294  -3.446   2.848  0.00  0.00     0.101 A 
ATOM      2  C9  <0> d          -0.056  -2.726   4.023  0.00  0.00     0.034 A 
ATOM      3  C10 <0> d           0.148  -3.672   5.009  0.00  0.00     0.129 A 
ATOM      4  N1  <0> d           0.026  -4.888   4.399  0.00  0.00    -0.272 N 
ATOM      5  H1  <0> d           0.118  -5.746   4.843  0.00  0.00     0.189 HD
ATOM      6  N2  <0> d          -0.235  -4.728   3.151  0.00  0.00    -0.173 NA
ATOM      7  C11 <0> d           0.405  -2.978   6.276  0.00  0.00     0.273 A 
ATOM      8  O1  <0> d           0.623  -3.529   7.338  0.00  0.00    -0.266 OA
ATOM      9  N3  <0> d           0.366  -1.645   6.097  0.00  0.00    -0.332 N 
ATOM     10  C12 <0> d           0.076  -1.380   4.682  0.00  0.00     0.159 A 
ENDROOT
BRANCH   1  11
ATOM     11  C6  <0> d          -0.570  -2.872   1.507  0.00  0.00     0.029 A 
ATOM     12  C5  <0> d          -0.682  -3.710   0.394  0.00  0.00     0.084 A 
ATOM     13  C4  <0> d          -0.940  -3.166  -0.854  0.00  0.00    -0.027 A 
ATOM     14  C3  <0> d          -1.087  -1.799  -0.996  0.00  0.00     0.016 A 
ATOM     15  C21 <0> d          -1.061  -4.066  -2.057  0.00  0.00     0.051 C 
ATOM     16  C2  <0> d          -0.977  -0.967   0.104  0.00  0.00    -0.060 A 
ATOM     17  C1  <0> d          -1.139   0.522  -0.062  0.00  0.00     0.048 C 
ATOM     18  C7  <0> d          -0.714  -1.496   1.351  0.00  0.00     0.023 A 
BRANCH  12  19
ATOM     19  O3  <0> d          -0.538  -5.054   0.536  0.00  0.00    -0.359 OA
ATOM     20  H17 <0> d           0.371  -5.365   0.431  0.00  0.00     0.217 HD
ENDBRANCH  12  19
ENDBRANCH   1  11
BRANCH  10  21
ATOM     21  C13 <0> d           1.208  -0.605   4.057  0.00  0.00    -0.031 A 
ATOM     22  C18 <0> d           0.972   0.641   3.509  0.00  0.00     0.011 A 
ATOM     23  C17 <0> d           2.011   1.354   2.940  0.00  0.00     0.019 A 
ATOM     24  C16 <0> d           3.284   0.815   2.911  0.00  0.00     0.011 A 
ATOM     25  C15 <0> d           3.519  -0.435   3.455  0.00  0.00     0.019 A 
ATOM     26 Br1  <0> d           4.705   1.787   2.127  0.00  0.00    -0.051 Br
ATOM     27  C14 <0> d           2.480  -1.144   4.028  0.00  0.00     0.011 A 
ENDBRANCH  10  21
BRANCH   9  28
ATOM     28  C19 <0> d           0.576  -0.633   7.134  0.00  0.00     0.153 C 
BRANCH  28  29
ATOM     29  C20 <0> d           2.076  -0.396   7.319  0.00  0.00     0.184 C 
BRANCH  29  30
ATOM     30  O2  <0> d           2.607   0.232   6.151  0.00  0.00    -0.399 OA
ATOM     31  H16 <0> d           3.556   0.412   6.198  0.00  0.00     0.209 HD
ENDBRANCH  29  30
ENDBRANCH  28  29
ENDBRANCH   9  28
TORSDOF 6
