REMARK  10 active torsions:
REMARK  status: ('A' for Active; 'I' for Inactive)
REMARK    1  A    between atoms: C6_6  and  O1_8 
REMARK    2  A    between atoms: O1_8  and  C8_9 
REMARK    3  A    between atoms: C8_9  and  C9_10 
REMARK    4  A    between atoms: C9_10  and  C10_11 
REMARK    5  A    between atoms: C9_10  and  O5_30 
REMARK    6  A    between atoms: C10_11  and  N1_12 
REMARK    7  A    between atoms: C15_23  and  N5_24 
REMARK    8  A    between atoms: N5_24  and  C16_25 
REMARK    9  A    between atoms: C16_25  and  C17_26 
REMARK   10  A    between atoms: C17_26  and  O4_28 
ROOT
ATOM      1  N1  <0> d          -2.832  -2.454   0.016  0.00  0.00    -0.170 N 
ATOM      2  C11 <0> d          -2.619  -3.826   0.006  0.00  0.00     0.166 A 
ATOM      3  C12 <0> d          -3.460  -4.952   0.008  0.00  0.00     0.280 A 
ATOM      4  O2  <0> d          -4.671  -4.816   0.021  0.00  0.00    -0.265 OA
ATOM      5  N2  <0> d          -2.913  -6.185  -0.005  0.00  0.00    -0.273 N 
ATOM      6  H2  <0> d          -3.509  -6.988  -0.003  0.00  0.00     0.173 HD
ATOM      7  C13 <0> d          -1.579  -6.350  -0.019  0.00  0.00     0.330 A 
ATOM      8  O3  <0> d          -1.121  -7.477  -0.030  0.00  0.00    -0.246 OA
ATOM      9  N3  <0> d          -0.738  -5.299  -0.021  0.00  0.00    -0.286 N 
ATOM     10  C14 <0> d          -1.240  -4.008  -0.008  0.00  0.00     0.185 A 
ATOM     11  N4  <0> d          -0.675  -2.800  -0.012  0.00  0.00    -0.044 NA
ATOM     12  C15 <0> d          -1.605  -1.867   0.007  0.00  0.00     0.705 A 
ATOM     13  C19 <0> d           0.710  -5.521  -0.036  0.00  0.00     0.163 C 
ENDROOT
BRANCH   1  14
ATOM     14  C10 <0> d          -4.127  -1.770   0.032  0.00  0.00     0.182 C 
BRANCH  14  15
ATOM     15  C9  <0> d          -4.592  -1.524  -1.405  0.00  0.00     0.161 C 
BRANCH  15  16
ATOM     16  C8  <0> d          -5.999  -0.923  -1.390  0.00  0.00     0.209 C 
BRANCH  16  17
ATOM     17  O1  <0> d          -6.479  -0.801  -2.731  0.00  0.00    -0.349 OA
BRANCH  17  18
ATOM     18  C6  <0> d          -7.724  -0.281  -2.895  0.00  0.00     0.069 A 
ATOM     19  C5  <0> d          -8.468   0.103  -1.790  0.00  0.00     0.037 A 
ATOM     20  C4  <0> d          -9.733   0.632  -1.960  0.00  0.00     0.003 A 
ATOM     21  C3  <0> d         -10.258   0.777  -3.231  0.00  0.00     0.007 A 
ATOM     22  C2  <0> d          -9.518   0.394  -4.334  0.00  0.00    -0.059 A 
ATOM     23  C1  <0> d         -10.092   0.554  -5.718  0.00  0.00     0.048 C 
ATOM     24  C7  <0> d          -8.250  -0.130  -4.170  0.00  0.00     0.043 A 
ENDBRANCH  17  18
ENDBRANCH  16  17
ENDBRANCH  15  16
BRANCH  15  25
ATOM     25  O5  <0> d          -3.694  -0.617  -2.047  0.00  0.00    -0.392 OA
ATOM     26  H25 <0> d          -3.631   0.247  -1.615  0.00  0.00     0.210 HD
ENDBRANCH  15  25
ENDBRANCH  14  15
ENDBRANCH   1  14
BRANCH  12  27
ATOM     27  N5  <0> d          -1.372  -0.511   0.012  0.00  0.00    -0.222 N 
ATOM     28  H15 <0> d          -2.118   0.109   0.023  0.00  0.00     0.177 HD
BRANCH  27  29
ATOM     29  C16 <0> d           0.002  -0.004   0.002  0.00  0.00     0.169 C 
BRANCH  29  30
ATOM     30  C17 <0> d          -0.019   1.526   0.010  0.00  0.00     0.132 C 
ATOM     31  C18 <0> d           1.417   2.055  -0.000  0.00  0.00     0.041 C 
BRANCH  30  32
ATOM     32  O4  <0> d          -0.710   1.999  -1.147  0.00  0.00    -0.394 OA
ATOM     33  H21 <0> d          -0.762   2.963  -1.208  0.00  0.00     0.210 HD
ENDBRANCH  30  32
ENDBRANCH  29  30
ENDBRANCH  27  29
ENDBRANCH  12  27
TORSDOF 10
