REMARK  4 active torsions:
REMARK  status: ('A' for Active; 'I' for Inactive)
REMARK    1  A    between atoms: C8_8  and  N2_16 
REMARK    2  A    between atoms: C9_9  and  C10_12 
REMARK    3  A    between atoms: C10_12  and  O2_14 
REMARK       I    between atoms: N2_16  and  C12_17 
REMARK    4  A    between atoms: C12_17  and  C13_19 
ROOT
ATOM      1  C1  <0> d           4.838  -0.369  -3.269  0.00  0.00     0.048 C 
ATOM      2  C2  <0> d           3.753  -0.178  -4.297  0.00  0.00    -0.061 A 
ATOM      3  C3  <0> d           3.926  -0.674  -5.583  0.00  0.00     0.009 A 
ATOM      4  C4  <0> d           2.947  -0.509  -6.537  0.00  0.00     0.031 A 
ATOM      5  C5  <0> d           1.769   0.161  -6.214  0.00  0.00     0.045 A 
ATOM      6  C6  <0> d           1.599   0.662  -4.910  0.00  0.00     0.020 A 
ATOM      7  C7  <0> d           2.607   0.483  -3.957  0.00  0.00     0.023 A 
ATOM      8  C8  <0> d           0.284   1.305  -4.877  0.00  0.00     0.080 A 
ATOM      9  C9  <0> d          -0.260   1.155  -6.136  0.00  0.00     0.136 A 
ATOM     10  N1  <0> d           0.642   0.470  -6.937  0.00  0.00    -0.349 N 
ATOM     11  H1  <0> d           0.567   0.172  -7.993  0.00  0.00     0.166 HD
ENDROOT
BRANCH   8  12
ATOM     12  N2  <0> d          -0.305   1.938  -3.787  0.00  0.00    -0.324 N 
ATOM     13  C12 <0> d          -0.584   1.237  -2.670  0.00  0.00     0.231 C 
ATOM     14  O3  <0> d          -0.433   0.034  -2.656  0.00  0.00    -0.272 OA
ATOM     15  H13 <0> d          -0.543   3.010  -3.837  0.00  0.00     0.169 HD
BRANCH  13  16
ATOM     16  C13 <0> d          -1.083   1.948  -1.439  0.00  0.00     0.043 C 
ATOM     17  C18 <0> d          -2.394   2.667  -1.761  0.00  0.00     0.024 C 
ATOM     18  C17 <0> d          -2.901   3.389  -0.511  0.00  0.00    -0.012 C 
ATOM     19  C16 <0> d          -1.858   4.412  -0.055  0.00  0.00     0.009 C 
ATOM     20  C19 <0> d          -3.138   2.370   0.606  0.00  0.00     0.025 C 
ATOM     21  C15 <0> d          -0.546   3.693   0.267  0.00  0.00    -0.012 C 
ATOM     22  C14 <0> d          -0.040   2.971  -0.983  0.00  0.00     0.024 C 
ATOM     23  C21 <0> d          -0.784   2.675   1.384  0.00  0.00     0.025 C 
ATOM     24  C20 <0> d          -1.826   1.652   0.928  0.00  0.00     0.020 C 
ATOM     25  C22 <0> d          -1.320   0.930  -0.322  0.00  0.00     0.040 C 
ATOM     26 Br1  <0> d          -2.131   0.343   2.363  0.00  0.00    -0.085 Br
ENDBRANCH  13  16
ENDBRANCH   8  12
BRANCH   9  27
ATOM     27  C10 <0> d          -1.534   1.627  -6.545  0.00  0.00     0.312 C 
ATOM     28  O1  <0> d          -2.304   2.087  -5.724  0.00  0.00    -0.258 OA
BRANCH  27  29
ATOM     29  O2  <0> d          -1.890   1.565  -7.845  0.00  0.00    -0.321 OA
ATOM     30  C11 <0> d          -3.187   2.058  -8.186  0.00  0.00     0.213 C 
ENDBRANCH  27  29
ENDBRANCH   9  27
TORSDOF 4
