REMARK  4 active torsions:
REMARK  status: ('A' for Active; 'I' for Inactive)
REMARK    1  A    between atoms: C2_2  and  C3_3 
REMARK    2  A    between atoms: C2_2  and  N1_8 
REMARK    3  A    between atoms: N1_8  and  C7_9 
REMARK       I    between atoms: N1_8  and  C10_12 
REMARK    4  A    between atoms: C10_12  and  C11_14 
ROOT
ATOM      1  C11 <0> d           2.393  -1.456   0.243  0.00  0.00     0.101 A 
ATOM      2  C12 <0> d           3.565  -2.188   0.365  0.00  0.00     0.040 A 
ATOM      3  C13 <0> d           4.032  -2.517   1.656  0.00  0.00     0.033 A 
ATOM      4  C14 <0> d           3.337  -2.111   2.783  0.00  0.00     0.026 A 
ATOM      5  N2  <0> d           2.194  -1.405   2.665  0.00  0.00    -0.326 N 
ATOM      6  H1  <0> d           1.721  -1.137   3.468  0.00  0.00     0.169 HD
ATOM      7  C15 <0> d           1.696  -1.055   1.468  0.00  0.00     0.261 A 
ATOM      8  O3  <0> d           0.665  -0.409   1.400  0.00  0.00    -0.267 OA
ATOM      9  C16 <0> d           3.831  -2.434   4.170  0.00  0.00     0.058 C 
ATOM     10  C17 <0> d           4.749  -3.653   4.161  0.00  0.00     0.014 C 
ATOM     11  C18 <0> d           5.892  -3.419   3.164  0.00  0.00     0.084 C 
ATOM     12  C19 <0> d           5.270  -3.304   1.788  0.00  0.00     0.161 C 
ATOM     13  O4  <0> d           5.775  -3.842   0.826  0.00  0.00    -0.292 OA
ENDROOT
BRANCH   1  14
ATOM     14  C10 <0> d           1.867  -1.087  -1.082  0.00  0.00     0.260 C 
ATOM     15  N1  <0> d           0.624  -1.465  -1.442  0.00  0.00    -0.333 N 
ATOM     16  O2  <0> d           2.553  -0.442  -1.851  0.00  0.00    -0.267 OA
BRANCH  15  17
ATOM     17  C2  <0> d          -0.245  -2.141  -0.476  0.00  0.00     0.141 C 
ATOM     18  C1  <0> d          -1.690  -2.109  -0.980  0.00  0.00     0.039 C 
BRANCH  17  19
ATOM     19  C3  <0> d           0.199  -3.572  -0.316  0.00  0.00     0.075 A 
ATOM     20  O1  <0> d           0.614  -4.381  -1.304  0.00  0.00    -0.325 OA
ATOM     21  C6  <0> d           0.935  -5.582  -0.796  0.00  0.00     0.142 A 
ATOM     22  C5  <0> d           0.717  -5.553   0.531  0.00  0.00     0.027 A 
ATOM     23  C4  <0> d           0.242  -4.258   0.841  0.00  0.00     0.037 A 
ENDBRANCH  17  19
ENDBRANCH  15  17
BRANCH  15  24
ATOM     24  C7  <0> d           0.143  -1.199  -2.800  0.00  0.00     0.088 A 
ATOM     25  C9  <0> d           0.255   0.235  -3.321  0.00  0.00     0.027 A 
ATOM     26  C8  <0> d           1.186  -0.851  -3.864  0.00  0.00     0.027 A 
ENDBRANCH  15  24
ENDBRANCH   1  14
TORSDOF 4
