REMARK  6 active torsions:
REMARK  status: ('A' for Active; 'I' for Inactive)
REMARK    1  A    between atoms: N1_2  and  C2_3 
REMARK    2  A    between atoms: N1_2  and  C9_11 
REMARK    3  A    between atoms: C2_3  and  C3_4 
REMARK    4  A    between atoms: C9_11  and  C10_12 
REMARK    5  A    between atoms: C13_15  and  O1_19 
REMARK    6  A    between atoms: C14_16  and  N2_18 
ROOT
ATOM      1  C9  <0> d           0.690  -0.478  -1.207  0.00  0.00     0.273 C 
ENDROOT
BRANCH   1   2
ATOM      2  N1  <0> d           0.002  -0.004   0.002  0.00  0.00    -0.067 N 
ATOM      3  C1  <0> d          -0.018   1.465   0.010  0.00  0.00     0.270 C 
ATOM      4  H18 <0> d           0.490  -0.338   0.820  0.00  0.00     0.280 HD
BRANCH   2   5
ATOM      5  C2  <0> d          -1.376  -0.512   0.012  0.00  0.00     0.273 C 
BRANCH   5   6
ATOM      6  C3  <0> d          -2.043  -0.130   1.309  0.00  0.00    -0.033 A 
ATOM      7  C8  <0> d          -2.729   1.066   1.406  0.00  0.00     0.010 A 
ATOM      8  C7  <0> d          -3.345   1.415   2.593  0.00  0.00     0.024 A 
ATOM      9  C6  <0> d          -3.266   0.572   3.687  0.00  0.00     0.034 A 
ATOM     10  C5  <0> d          -2.575  -0.623   3.591  0.00  0.00     0.024 A 
ATOM     11 Cl1  <0> d          -4.035   1.012   5.180  0.00  0.00    -0.084 Cl
ATOM     12  C4  <0> d          -1.963  -0.973   2.401  0.00  0.00     0.010 A 
ENDBRANCH   5   6
ENDBRANCH   2   5
ENDBRANCH   1   2
BRANCH   1  13
ATOM     13  C10 <0> d           2.137  -0.060  -1.158  0.00  0.00    -0.030 A 
ATOM     14  C15 <0> d           3.075  -0.892  -0.577  0.00  0.00     0.040 A 
ATOM     15  C14 <0> d           4.409  -0.510  -0.536  0.00  0.00     0.059 A 
ATOM     16  C13 <0> d           4.795   0.717  -1.071  0.00  0.00     0.091 A 
ATOM     17  C12 <0> d           3.847   1.547  -1.647  0.00  0.00     0.039 A 
ATOM     18  C11 <0> d           2.521   1.157  -1.689  0.00  0.00     0.012 A 
BRANCH  15  19
ATOM     19  N2  <0> d           5.362  -1.353   0.047  0.00  0.00    -0.397 N 
ATOM     20  H15 <0> d           6.293  -1.084   0.078  0.00  0.00     0.156 HD
ATOM     21  H16 <0> d           5.091  -2.207   0.419  0.00  0.00     0.156 HD
ENDBRANCH  15  19
BRANCH  16  22
ATOM     22  O1  <0> d           6.100   1.098  -1.029  0.00  0.00    -0.358 OA
ATOM     23  H17 <0> d           6.340   1.594  -0.234  0.00  0.00     0.217 HD
ENDBRANCH  16  22
ENDBRANCH   1  13
TORSDOF 6
