REMARK  2 active torsions:
REMARK  status: ('A' for Active; 'I' for Inactive)
REMARK    1  A    between atoms: C8_9  and  C10_12 
REMARK       I    between atoms: C10_12  and  N1_14 
REMARK    2  A    between atoms: N1_14  and  C11_15 
ROOT
ATOM      1  C10 <0> d           4.827  -2.980  -0.060  0.00  0.00     0.263 C 
ATOM      2  O3  <0> d           5.920  -2.446  -0.067  0.00  0.00    -0.267 OA
ATOM      3  N1  <0> d           4.733  -4.324  -0.066  0.00  0.00    -0.301 N 
ATOM      4  H6  <0> d           3.861  -4.750  -0.060  0.00  0.00     0.171 HD
ENDROOT
BRANCH   3   5
ATOM      5  C11 <0> d           5.884  -5.101  -0.081  0.00  0.00     0.174 A 
ATOM      6  S1  <0> d           7.597  -4.586  -0.093  0.00  0.00    -0.053 SA
ATOM      7  C13 <0> d           8.302  -6.214  -0.111  0.00  0.00     0.025 A 
ATOM      8  C12 <0> d           7.199  -7.025  -0.098  0.00  0.00     0.085 A 
ATOM      9  C14 <0> d           9.739  -6.617  -0.142  0.00  0.00     0.128 C 
ATOM     10  N2  <0> d           6.006  -6.412  -0.083  0.00  0.00    -0.223 NA
ATOM     11  C16 <0> d           7.340  -8.516  -0.081  0.00  0.00     0.011 A 
ATOM     12  C15 <0> d           8.538  -9.123   0.296  0.00  0.00     0.013 A 
ATOM     13  C17 <0> d           6.249  -9.298  -0.453  0.00  0.00     0.015 A 
ATOM     14  S2  <0> d           9.923  -8.158   0.807  0.00  0.00    -0.124 SA
ATOM     15  C20 <0> d           8.641 -10.509   0.277  0.00  0.00     0.019 A 
ATOM     16  C19 <0> d           7.555 -11.277  -0.100  0.00  0.00     0.001 A 
ATOM     17  C18 <0> d           6.363 -10.675  -0.459  0.00  0.00     0.001 A 
ENDBRANCH   3   5
BRANCH   1  18
ATOM     18  C8  <0> d           3.606  -2.157  -0.044  0.00  0.00     0.105 A 
ATOM     19  C7  <0> d           3.690  -0.684  -0.037  0.00  0.00     0.202 A 
ATOM     20  C5  <0> d           2.411   0.053  -0.021  0.00  0.00     0.049 A 
ATOM     21  O1  <0> d           4.762  -0.105  -0.044  0.00  0.00    -0.286 OA
ATOM     22  C4  <0> d           1.216  -0.683  -0.013  0.00  0.00     0.089 A 
ATOM     23  C6  <0> d           2.379   1.446  -0.013  0.00  0.00     0.018 A 
ATOM     24  C3  <0> d           0.002  -0.004   0.002  0.00  0.00     0.038 A 
ATOM     25  O2  <0> d           1.245  -2.031  -0.020  0.00  0.00    -0.321 OA
ATOM     26  C2  <0> d          -0.017   1.374   0.010  0.00  0.00     0.003 A 
ATOM     27  C1  <0> d           1.166   2.099   0.002  0.00  0.00     0.001 A 
ATOM     28  C9  <0> d           2.371  -2.740  -0.035  0.00  0.00     0.163 A 
ENDBRANCH   1  18
TORSDOF 2
