REMARK  2 active torsions:
REMARK  status: ('A' for Active; 'I' for Inactive)
REMARK    1  A    between atoms: C5_5  and  C7_7 
REMARK    2  A    between atoms: C7_7  and  C8_8 
ROOT
ATOM      1  C8  <0> d           1.345  -2.679  -1.441  0.00  0.00    -0.033 A 
ATOM      2  C9  <0> d           0.323  -2.434  -2.343  0.00  0.00     0.011 A 
ATOM      3  C10 <0> d           0.422  -2.881  -3.644  0.00  0.00     0.032 A 
ATOM      4  C11 <0> d           1.551  -3.582  -4.056  0.00  0.00     0.062 A 
ATOM      5  C12 <0> d           2.581  -3.828  -3.147  0.00  0.00     0.062 A 
ATOM      6  C13 <0> d           2.473  -3.367  -1.839  0.00  0.00     0.041 A 
ATOM      7  N1  <0> d           3.719  -4.528  -3.539  0.00  0.00    -0.317 N 
ATOM      8  H2  <0> d           4.429  -4.695  -2.900  0.00  0.00     0.169 HD
ATOM      9  C14 <0> d           3.835  -4.974  -4.806  0.00  0.00     0.314 A 
ATOM     10  O1  <0> d           4.825  -5.586  -5.153  0.00  0.00    -0.262 OA
ATOM     11  C15 <0> d           2.734  -4.710  -5.777  0.00  0.00     0.314 A 
ATOM     12  O2  <0> d           2.819  -5.104  -6.923  0.00  0.00    -0.262 OA
ATOM     13  N2  <0> d           1.643  -4.031  -5.370  0.00  0.00    -0.317 N 
ATOM     14  H3  <0> d           0.921  -3.854  -5.994  0.00  0.00     0.169 HD
ENDROOT
BRANCH   1  15
ATOM     15  C7  <0> d           1.229  -2.186  -0.022  0.00  0.00     0.149 C 
ATOM     16 Cl1  <0> d          -0.297  -2.812   0.708  0.00  0.00    -0.115 Cl
BRANCH  15  17
ATOM     17  C5  <0> d           1.208  -0.679  -0.013  0.00  0.00    -0.018 A 
ATOM     18  C4  <0> d           2.397   0.029  -0.021  0.00  0.00     0.019 A 
ATOM     19  C3  <0> d           2.377   1.412  -0.013  0.00  0.00     0.019 A 
ATOM     20 Br1  <0> d           4.047  -0.894  -0.042  0.00  0.00    -0.051 Br
ATOM     21  C2  <0> d           1.171   2.086   0.002  0.00  0.00     0.001 A 
ATOM     22  C1  <0> d          -0.017   1.378   0.010  0.00  0.00     0.001 A 
ATOM     23  C6  <0> d           0.002  -0.004   0.002  0.00  0.00     0.010 A 
ENDBRANCH  15  17
ENDBRANCH   1  15
TORSDOF 2
