REMARK  4 active torsions:
REMARK  status: ('A' for Active; 'I' for Inactive)
REMARK    1  A    between atoms: C2_2  and  O6_17 
REMARK    2  A    between atoms: C3_3  and  S2_8 
REMARK    3  A    between atoms: S2_8  and  C5_9 
REMARK    4  A    between atoms: C8_15  and  O5_16 
ROOT
ATOM      1  S2  <0> d          -0.843   0.401  -2.504  0.00  0.00    -0.152 SA
ENDROOT
BRANCH   1   2
ATOM      2  C3  <0> d           0.886   0.340  -3.051  0.00  0.00     0.091 C 
ATOM      3  C2  <0> d           1.011  -0.585  -4.274  0.00  0.00     0.146 C 
ATOM      4  C1  <0> d           2.502  -0.897  -4.549  0.00  0.00     0.173 C 
ATOM      5  S1  <0> d           3.259  -0.758  -2.879  0.00  0.00     0.148 S 
ATOM      6  C4  <0> d           1.777  -0.238  -1.915  0.00  0.00     0.158 C 
ATOM      7  O1  <0> d           4.202   0.305  -2.885  0.00  0.00    -0.228 OA
ATOM      8  O2  <0> d           3.663  -2.049  -2.445  0.00  0.00    -0.228 OA
BRANCH   3   9
ATOM      9  O6  <0> d           0.310  -1.804  -4.021  0.00  0.00    -0.393 OA
ATOM     10  H14 <0> d           0.345  -2.437  -4.751  0.00  0.00     0.210 HD
ENDBRANCH   3   9
ENDBRANCH   1   2
BRANCH   1  11
ATOM     11  C5  <0> d          -0.839   1.637  -1.176  0.00  0.00     0.091 C 
ATOM     12  C8  <0> d          -2.281   1.966  -0.820  0.00  0.00     0.146 C 
ATOM     13  C7  <0> d          -2.641   1.687   0.656  0.00  0.00     0.173 C 
ATOM     14  S3  <0> d          -0.972   1.728   1.448  0.00  0.00     0.148 S 
ATOM     15  C6  <0> d          -0.013   1.086   0.008  0.00  0.00     0.158 C 
ATOM     16  O3  <0> d          -0.928   0.779   2.505  0.00  0.00    -0.228 OA
ATOM     17  O4  <0> d          -0.603   3.078   1.695  0.00  0.00    -0.228 OA
BRANCH  12  18
ATOM     18  O5  <0> d          -3.145   1.189  -1.652  0.00  0.00    -0.393 OA
ATOM     19  H13 <0> d          -4.086   1.339  -1.490  0.00  0.00     0.210 HD
ENDBRANCH  12  18
ENDBRANCH   1  11
TORSDOF 4
