REMARK  3 active torsions:
REMARK  status: ('A' for Active; 'I' for Inactive)
REMARK    1  A    between atoms: C3_6  and  C4_7 
REMARK    2  A    between atoms: C4_7  and  N4_8 
REMARK       I    between atoms: N4_8  and  C5_9 
REMARK    3  A    between atoms: C5_9  and  C6_11 
ROOT
ATOM      1  N4  <0> d          -1.346  -0.281   3.008  0.00  0.00    -0.350 N 
ATOM      2  C5  <0> d          -1.585   0.089   4.282  0.00  0.00     0.252 C 
ATOM      3  O1  <0> d          -0.657   0.324   5.030  0.00  0.00    -0.268 OA
ATOM      4  H7  <0> d          -2.087  -0.468   2.410  0.00  0.00     0.163 HD
ENDROOT
BRANCH   2   5
ATOM      5  C6  <0> d          -2.979   0.210   4.769  0.00  0.00     0.038 A 
ATOM      6  C10 <0> d          -3.249   0.592   6.086  0.00  0.00     0.061 A 
ATOM      7  C9  <0> d          -4.564   0.697   6.499  0.00  0.00     0.128 A 
ATOM      8  N5  <0> d          -5.557   0.432   5.670  0.00  0.00    -0.225 NA
ATOM      9 Cl1  <0> d          -4.915   1.177   8.130  0.00  0.00    -0.062 Cl
ATOM     10  C8  <0> d          -5.346   0.063   4.422  0.00  0.00     0.128 A 
ATOM     11  C7  <0> d          -4.061  -0.061   3.926  0.00  0.00     0.061 A 
ATOM     12 Cl2  <0> d          -6.699  -0.270   3.386  0.00  0.00    -0.062 Cl
ENDBRANCH   2   5
BRANCH   1  13
ATOM     13  C4  <0> d           0.032  -0.400   2.526  0.00  0.00     0.203 C 
BRANCH  13  14
ATOM     14  C3  <0> d           0.024  -0.825   1.080  0.00  0.00     0.147 A 
ATOM     15  N1  <0> d           0.002  -0.004   0.002  0.00  0.00    -0.330 N 
ATOM     16  C1  <0> d          -0.018   1.461   0.010  0.00  0.00     0.158 C 
ATOM     17  C2  <0> d           0.009  -0.813  -1.085  0.00  0.00     0.235 A 
ATOM     18  N2  <0> d           0.027  -2.044  -0.652  0.00  0.00    -0.143 NA
ATOM     19  N3  <0> d           0.032  -2.051   0.634  0.00  0.00    -0.134 NA
ENDBRANCH  13  14
ENDBRANCH   1  13
TORSDOF 3
