REMARK  7 active torsions:
REMARK  status: ('A' for Active; 'I' for Inactive)
REMARK    1  A    between atoms: C4_4  and  N2_25 
REMARK    2  A    between atoms: C5_5  and  C7_7 
REMARK    3  A    between atoms: C10_10  and  C11_12 
REMARK    4  A    between atoms: C11_12  and  C12_13 
REMARK    5  A    between atoms: N1_16  and  C15_20 
REMARK    6  A    between atoms: C15_20  and  C16_21 
REMARK    7  A    between atoms: C16_21  and  S3_22 
ROOT
ATOM      1  C7  <0> d           2.614   3.450  -0.006  0.00  0.00     0.088 A 
ATOM      2  C8  <0> d           3.388   2.271  -0.019  0.00  0.00     0.041 A 
ATOM      3  C9  <0> d           2.529   1.216  -0.016  0.00  0.00     0.040 A 
ATOM      4  C10 <0> d           1.178   1.785   0.000  0.00  0.00     0.077 A 
ATOM      5  O1  <0> d           1.310   3.130   0.000  0.00  0.00    -0.310 OA
ENDROOT
BRANCH   4   6
ATOM      6  C11 <0> d          -0.013   1.076   0.008  0.00  0.00     0.061 C 
BRANCH   6   7
ATOM      7  C12 <0> d          -1.239   1.762   0.018  0.00  0.00     0.078 A 
ATOM      8  S2  <0> d          -2.854   1.124   0.014  0.00  0.00    -0.055 SA
ATOM      9  C14 <0> d          -3.746   2.669   0.034  0.00  0.00     0.148 A 
ATOM     10  N1  <0> d          -2.770   3.599   0.034  0.00  0.00    -0.297 N 
ATOM     11  S1  <0> d          -5.440   2.912   0.043  0.00  0.00    -0.052 SA
ATOM     12  C13 <0> d          -1.498   3.232   0.027  0.00  0.00     0.266 A 
ATOM     13  O2  <0> d          -0.596   4.044   0.027  0.00  0.00    -0.266 OA
BRANCH  10  14
ATOM     14  C15 <0> d          -3.119   5.022   0.044  0.00  0.00     0.151 C 
BRANCH  14  15
ATOM     15  C16 <0> d          -3.247   5.525  -1.396  0.00  0.00     0.185 C 
BRANCH  15  16
ATOM     16  S3  <0> d          -3.679   7.287  -1.384  0.00  0.00     0.103 S 
ATOM     17  O3  <0> d          -4.992   7.465  -0.872  0.00  0.00    -0.595 OA
ATOM     18  O4  <0> d          -2.594   8.053  -0.879  0.00  0.00    -0.595 OA
ATOM     19  O7  <0> d          -3.778   7.675  -2.852  0.00  0.00    -0.595 OA
ENDBRANCH  15  16
ENDBRANCH  14  15
ENDBRANCH  10  14
ENDBRANCH   6   7
ENDBRANCH   4   6
BRANCH   1  20
ATOM     20  C5  <0> d           3.150   4.812  -0.004  0.00  0.00     0.031 A 
ATOM     21  C4  <0> d           2.678   5.759  -0.929  0.00  0.00     0.115 A 
ATOM     22  C3  <0> d           3.186   7.038  -0.916  0.00  0.00     0.037 A 
ATOM     23  C2  <0> d           4.166   7.391  -0.001  0.00  0.00     0.002 A 
ATOM     24  C1  <0> d           4.642   6.463   0.913  0.00  0.00     0.001 A 
ATOM     25  C6  <0> d           4.144   5.180   0.920  0.00  0.00     0.017 A 
BRANCH  21  26
ATOM     26  N2  <0> d           1.635   5.383  -1.911  0.00  0.00    -0.115 N 
ATOM     27  O5  <0> d           1.195   6.273  -2.776  0.00  0.00    -0.532 OA
ATOM     28  O6  <0> d           1.149   4.160  -1.918  0.00  0.00    -0.532 OA
ENDBRANCH  21  26
ENDBRANCH   1  20
TORSDOF 7
