REMARK  4 active torsions:
REMARK  status: ('A' for Active; 'I' for Inactive)
REMARK    1  A    between atoms: C4_6  and  C5_7 
REMARK    2  A    between atoms: C5_7  and  C6_9 
REMARK    3  A    between atoms: C9_12  and  N3_15 
REMARK       I    between atoms: N3_15  and  C12_16 
REMARK    4  A    between atoms: C12_16  and  C13_18 
ROOT
ATOM      1  N3  <0> d          -2.439  -0.115   0.024  0.00  0.00    -0.323 N 
ATOM      2  C12 <0> d          -2.344   1.030  -0.680  0.00  0.00     0.257 C 
ATOM      3  O2  <0> d          -3.290   1.420  -1.337  0.00  0.00    -0.267 OA
ATOM      4  H10 <0> d          -1.663  -0.466   0.487  0.00  0.00     0.169 HD
ENDROOT
BRANCH   1   5
ATOM      5  C9  <0> d          -3.653  -0.797   0.085  0.00  0.00     0.035 A 
ATOM      6  C8  <0> d          -4.849  -0.086   0.073  0.00  0.00     0.030 A 
ATOM      7  C7  <0> d          -6.050  -0.755   0.133  0.00  0.00     0.018 A 
ATOM      8  C6  <0> d          -6.067  -2.152   0.206  0.00  0.00     0.018 A 
ATOM      9  C11 <0> d          -4.863  -2.863   0.218  0.00  0.00     0.018 A 
ATOM     10  C10 <0> d          -3.666  -2.187   0.152  0.00  0.00     0.030 A 
BRANCH   8  11
ATOM     11  C5  <0> d          -7.352  -2.873   0.270  0.00  0.00     0.228 C 
ATOM     12  O1  <0> d          -8.398  -2.264   0.151  0.00  0.00    -0.283 OA
BRANCH  11  13
ATOM     13  C4  <0> d          -7.368  -4.331   0.478  0.00  0.00     0.180 A 
ATOM     14  N1  <0> d          -8.482  -5.101   0.669  0.00  0.00    -0.342 N 
ATOM     15  C1  <0> d          -9.869  -4.630   0.704  0.00  0.00     0.157 C 
ATOM     16  C2  <0> d          -8.063  -6.380   0.817  0.00  0.00     0.111 A 
ATOM     17  C3  <0> d          -6.709  -6.370   0.723  0.00  0.00     0.136 A 
ATOM     18  N2  <0> d          -6.312  -5.117   0.518  0.00  0.00    -0.238 NA
ENDBRANCH  11  13
ENDBRANCH   8  11
ENDBRANCH   1   5
BRANCH   2  19
ATOM     19  C13 <0> d          -1.096   1.810  -0.652  0.00  0.00     0.048 A 
ATOM     20  C19 <0> d           0.051   1.351   0.135  0.00  0.00     0.022 A 
ATOM     21  C18 <0> d           1.166   2.112   0.150  0.00  0.00     0.052 A 
ATOM     22  C17 <0> d           1.221   3.334  -0.586  0.00  0.00     0.142 A 
ATOM     23  N4  <0> d           0.156   3.716  -1.355  0.00  0.00    -0.339 N 
ATOM     24  N5  <0> d           2.337   4.014  -0.448  0.00  0.00    -0.146 NA
ATOM     25  C14 <0> d          -0.987   2.979  -1.364  0.00  0.00     0.109 A 
ATOM     26  C15 <0> d           0.153   4.900  -2.219  0.00  0.00     0.147 C 
ATOM     27  C16 <0> d           0.910   6.053  -1.554  0.00  0.00     0.185 C 
ATOM     28  S1  <0> d           2.597   5.455  -1.216  0.00  0.00     0.254 S 
ATOM     29  O3  <0> d           3.231   6.281  -0.249  0.00  0.00    -0.204 OA
ATOM     30  O4  <0> d           3.255   5.114  -2.429  0.00  0.00    -0.204 OA
ENDBRANCH   2  19
TORSDOF 4
