REMARK  5 active torsions:
REMARK  status: ('A' for Active; 'I' for Inactive)
REMARK    1  A    between atoms: N2_8  and  C8_11 
REMARK    2  A    between atoms: C8_11  and  C9_12 
REMARK    3  A    between atoms: C9_12  and  O2_13 
REMARK    4  A    between atoms: O2_13  and  C10_14 
REMARK    5  A    between atoms: C13_17  and  N3_20 
ROOT
ATOM      1  C1  <0> d          -0.018   1.461   0.010  0.00  0.00     0.164 C 
ATOM      2  N1  <0> d           0.002  -0.004   0.002  0.00  0.00    -0.272 N 
ATOM      3  C2  <0> d          -1.104  -0.777   0.003  0.00  0.00     0.256 A 
ATOM      4  O1  <0> d          -2.258  -0.408   0.011  0.00  0.00    -0.270 OA
ATOM      5  C3  <0> d          -0.599  -2.201  -0.008  0.00  0.00     0.119 A 
ATOM      6  C4  <0> d          -1.074  -2.928  -1.262  0.00  0.00     0.068 C 
ATOM      7  C5  <0> d          -0.587  -4.379  -1.222  0.00  0.00     0.238 C 
ATOM      8  N2  <0> d          -1.111  -5.040  -0.021  0.00  0.00    -0.069 N 
ATOM      9  C6  <0> d          -0.575  -4.393   1.182  0.00  0.00     0.238 C 
ATOM     10  C7  <0> d          -1.062  -2.942   1.243  0.00  0.00     0.068 C 
ATOM     11  N4  <0> d           0.862  -2.064  -0.014  0.00  0.00    -0.324 N 
ATOM     12  C16 <0> d           1.119  -0.741  -0.013  0.00  0.00     0.325 A 
ATOM     13  O3  <0> d           2.240  -0.271  -0.022  0.00  0.00    -0.247 OA
ATOM     14  H22 <0> d           1.514  -2.782  -0.021  0.00  0.00     0.165 HD
ATOM     15  H23 <0> d          -2.118  -4.975  -0.016  0.00  0.00     0.280 HD
ENDROOT
BRANCH   8  16
ATOM     16  C8  <0> d          -0.716  -6.455  -0.032  0.00  0.00     0.261 C 
BRANCH  16  17
ATOM     17  C9  <0> d          -1.365  -7.174   1.153  0.00  0.00     0.203 C 
BRANCH  17  18
ATOM     18  O2  <0> d          -2.784  -7.177   0.988  0.00  0.00    -0.349 OA
BRANCH  18  19
ATOM     19  C10 <0> d          -3.517  -7.782   1.961  0.00  0.00     0.069 A 
ATOM     20  C15 <0> d          -4.900  -7.821   1.864  0.00  0.00     0.039 A 
ATOM     21  C14 <0> d          -5.645  -8.440   2.849  0.00  0.00     0.031 A 
ATOM     22  C13 <0> d          -5.009  -9.013   3.942  0.00  0.00     0.025 A 
ATOM     23  C12 <0> d          -3.625  -8.969   4.042  0.00  0.00     0.031 A 
ATOM     24  C11 <0> d          -2.881  -8.354   3.053  0.00  0.00     0.039 A 
BRANCH  22  25
ATOM     25  N3  <0> d          -5.763  -9.636   4.944  0.00  0.00    -0.399 N 
ATOM     26  H20 <0> d          -5.319 -10.037   5.707  0.00  0.00     0.156 HD
ATOM     27  H21 <0> d          -6.730  -9.667   4.874  0.00  0.00     0.156 HD
ENDBRANCH  22  25
ENDBRANCH  18  19
ENDBRANCH  17  18
ENDBRANCH  16  17
ENDBRANCH   8  16
TORSDOF 5
