REMARK  7 active torsions:
REMARK  status: ('A' for Active; 'I' for Inactive)
REMARK    1  A    between atoms: C2_2  and  C4_4 
REMARK    2  A    between atoms: C4_4  and  C5_5 
REMARK    3  A    between atoms: C5_5  and  N1_6 
REMARK       I    between atoms: N1_6  and  C6_7 
REMARK    4  A    between atoms: C6_7  and  C7_9 
REMARK    5  A    between atoms: C15_18  and  N4_29 
REMARK    6  A    between atoms: N3_22  and  C18_23 
REMARK    7  A    between atoms: C18_23  and  C19_24 
REMARK       I    between atoms: N4_29  and  C23_30 
ROOT
ATOM      1  C7  <0> d           1.087   1.496  -0.490  0.00  0.00     0.129 C 
ATOM      2  C8  <0> d          -0.084   0.629  -0.030  0.00  0.00     0.170 C 
ATOM      3  N2  <0> d           0.253  -0.786  -0.235  0.00  0.00    -0.337 N 
ATOM      4  C9  <0> d          -0.158  -1.882   0.453  0.00  0.00     0.048 A 
ATOM      5  C10 <0> d          -0.997  -2.021   1.561  0.00  0.00     0.034 A 
ATOM      6  C11 <0> d          -1.220  -3.303   2.028  0.00  0.00     0.044 A 
ATOM      7  C12 <0> d          -0.646  -4.419   1.437  0.00  0.00     0.117 A 
ATOM      8  C13 <0> d           0.191  -4.314   0.339  0.00  0.00     0.058 A 
ATOM      9  C14 <0> d           0.432  -3.024  -0.149  0.00  0.00     0.023 A 
ATOM     10  C15 <0> d           1.242  -2.546  -1.259  0.00  0.00     0.080 A 
ATOM     11  C16 <0> d           1.112  -1.183  -1.271  0.00  0.00     0.131 A 
ATOM     12  C17 <0> d           1.727  -0.191  -2.159  0.00  0.00     0.274 C 
ATOM     13  O2  <0> d           2.330  -0.519  -3.165  0.00  0.00    -0.266 OA
ATOM     14  N3  <0> d           1.591   1.107  -1.802  0.00  0.00    -0.321 N 
ATOM     15  F1  <0> d          -0.910  -5.642   1.947  0.00  0.00    -0.206 F 
ATOM     16  C25 <0> d           0.629   2.954  -0.549  0.00  0.00     0.051 C 
ENDROOT
BRANCH   1  17
ATOM     17  C6  <0> d           2.204   1.379   0.515  0.00  0.00     0.247 C 
ATOM     18  N1  <0> d           3.478   1.607   0.137  0.00  0.00    -0.359 N 
ATOM     19  H12 <0> d           3.701   1.877  -0.906  0.00  0.00     0.162 HD
ATOM     20  O1  <0> d           1.957   1.081   1.664  0.00  0.00    -0.271 OA
BRANCH  18  21
ATOM     21  C5  <0> d           4.563   1.493   1.113  0.00  0.00     0.123 C 
BRANCH  21  22
ATOM     22  C4  <0> d           5.898   1.799   0.430  0.00  0.00     0.023 C 
BRANCH  22  23
ATOM     23  C2  <0> d           7.032   1.681   1.451  0.00  0.00    -0.021 C 
ATOM     24  C1  <0> d           7.143   0.230   1.924  0.00  0.00     0.009 C 
ATOM     25  C3  <0> d           8.350   2.107   0.801  0.00  0.00     0.009 C 
ENDBRANCH  22  23
ENDBRANCH  21  22
ENDBRANCH  18  21
ENDBRANCH   1  17
BRANCH  14  26
ATOM     26  C18 <0> d           1.960   2.151  -2.761  0.00  0.00     0.192 C 
BRANCH  26  27
ATOM     27  C19 <0> d           0.808   2.402  -3.699  0.00  0.00     0.070 A 
ATOM     28  O3  <0> d           0.530   1.697  -4.808  0.00  0.00    -0.325 OA
ATOM     29  C22 <0> d          -0.570   2.199  -5.393  0.00  0.00     0.142 A 
ATOM     30  C21 <0> d          -1.002   3.243  -4.663  0.00  0.00     0.027 A 
ATOM     31  C20 <0> d          -0.114   3.374  -3.571  0.00  0.00     0.036 A 
ENDBRANCH  26  27
ENDBRANCH  14  26
BRANCH  10  32
ATOM     32  N4  <0> d           2.000  -3.319  -2.134  0.00  0.00    -0.325 N 
ATOM     33  C23 <0> d           1.656  -4.600  -2.372  0.00  0.00     0.218 C 
ATOM     34  O4  <0> d           0.637  -5.053  -1.894  0.00  0.00    -0.274 OA
ATOM     35  C24 <0> d           2.536  -5.470  -3.233  0.00  0.00     0.117 C 
ATOM     36  H23 <0> d           2.881  -2.885  -2.630  0.00  0.00     0.169 HD
ENDBRANCH  10  32
TORSDOF 7
