REMARK  6 active torsions:
REMARK  status: ('A' for Active; 'I' for Inactive)
REMARK    1  A    between atoms: C4_4  and  N1_9 
REMARK       I    between atoms: N1_9  and  C8_10 
REMARK    2  A    between atoms: C8_10  and  C9_12 
REMARK    3  A    between atoms: C9_12  and  S1_14 
REMARK    4  A    between atoms: S1_14  and  C11_15 
REMARK    5  A    between atoms: N5_19  and  C12_20 
REMARK    6  A    between atoms: C15_23  and  O2_26 
ROOT
ATOM      1  C9  <0> d          -2.946  -1.953   1.955  0.00  0.00     0.143 C 
ATOM      2  C10 <0> d          -1.851  -2.474   2.889  0.00  0.00     0.031 C 
ENDROOT
BRANCH   1   3
ATOM      3  C8  <0> d          -4.236  -1.817   2.721  0.00  0.00     0.236 C 
ATOM      4  N1  <0> d          -4.999  -2.904   2.954  0.00  0.00    -0.326 N 
ATOM      5  H8  <0> d          -4.725  -3.873   2.512  0.00  0.00     0.169 HD
ATOM      6  O1  <0> d          -4.589  -0.731   3.127  0.00  0.00    -0.272 OA
BRANCH   4   7
ATOM      7  C4  <0> d          -6.140  -2.799   3.757  0.00  0.00     0.035 A 
ATOM      8  C3  <0> d          -7.253  -3.586   3.493  0.00  0.00     0.037 A 
ATOM      9  C2  <0> d          -8.377  -3.481   4.288  0.00  0.00    -0.043 A 
ATOM     10  C1  <0> d          -9.585  -4.335   4.002  0.00  0.00     0.049 C 
ATOM     11  C7  <0> d          -8.396  -2.591   5.347  0.00  0.00     0.017 A 
ATOM     12  C6  <0> d          -7.288  -1.805   5.613  0.00  0.00     0.022 A 
ATOM     13 Br1  <0> d          -9.937  -2.449   6.433  0.00  0.00    -0.051 Br
ATOM     14  C5  <0> d          -6.160  -1.910   4.825  0.00  0.00     0.031 A 
ENDBRANCH   4   7
ENDBRANCH   1   3
BRANCH   1  15
ATOM     15  S1  <0> d          -2.460  -0.337   1.299  0.00  0.00    -0.074 SA
BRANCH  15  16
ATOM     16  C11 <0> d          -1.050  -0.803   0.352  0.00  0.00     0.215 A 
ATOM     17  N5  <0> d          -0.261   0.024  -0.380  0.00  0.00    -0.188 N 
ATOM     18  N4  <0> d           0.725  -0.808  -0.940  0.00  0.00    -0.038 NA
ATOM     19  N3  <0> d           0.475  -2.007  -0.537  0.00  0.00    -0.022 NA
ATOM     20  N2  <0> d          -0.564  -2.018   0.218  0.00  0.00    -0.101 NA
BRANCH  17  21
ATOM     21  C12 <0> d          -0.396   1.411  -0.538  0.00  0.00     0.063 A 
ATOM     22  C17 <0> d           0.734   2.211  -0.644  0.00  0.00     0.034 A 
ATOM     23  C16 <0> d           0.601   3.577  -0.799  0.00  0.00     0.039 A 
ATOM     24  C15 <0> d          -0.662   4.149  -0.850  0.00  0.00     0.065 A 
ATOM     25  C14 <0> d          -1.791   3.350  -0.744  0.00  0.00     0.039 A 
ATOM     26  C13 <0> d          -1.659   1.984  -0.595  0.00  0.00     0.034 A 
BRANCH  24  27
ATOM     27  O2  <0> d          -0.792   5.494  -1.004  0.00  0.00    -0.361 OA
ATOM     28  H16 <0> d           0.103   6.127  -1.088  0.00  0.00     0.217 HD
ENDBRANCH  24  27
ENDBRANCH  17  21
ENDBRANCH  15  16
ENDBRANCH   1  15
TORSDOF 6
