REMARK  5 active torsions:
REMARK  status: ('A' for Active; 'I' for Inactive)
REMARK    1  A    between atoms: C3_3  and  C10_12 
REMARK    2  A    between atoms: C10_12  and  C11_13 
REMARK       I    between atoms: C11_13  and  N2_15 
REMARK    3  A    between atoms: N2_15  and  C12_16 
REMARK    4  A    between atoms: C12_16  and  C14_18 
REMARK    5  A    between atoms: C17_21  and  N3_24 
ROOT
ATOM      1  C11 <0> d           1.409  -0.102  -3.011  0.00  0.00     0.222 C 
ATOM      2  O1  <0> d           2.338  -0.344  -2.269  0.00  0.00    -0.273 OA
ATOM      3  N2  <0> d           1.643   0.327  -4.267  0.00  0.00    -0.353 N 
ATOM      4  H12 <0> d           0.900   0.520  -4.860  0.00  0.00     0.163 HD
ENDROOT
BRANCH   3   5
ATOM      5  C12 <0> d           3.020   0.503  -4.736  0.00  0.00     0.113 C 
ATOM      6  C13 <0> d           3.559  -0.833  -5.250  0.00  0.00     0.037 C 
BRANCH   5   7
ATOM      7  C14 <0> d           3.045   1.517  -5.851  0.00  0.00    -0.036 A 
ATOM      8  C19 <0> d           4.069   2.443  -5.918  0.00  0.00     0.011 A 
ATOM      9  C18 <0> d           4.097   3.371  -6.942  0.00  0.00     0.030 A 
ATOM     10  C17 <0> d           3.090   3.378  -7.897  0.00  0.00     0.039 A 
ATOM     11  C16 <0> d           2.060   2.450  -7.824  0.00  0.00     0.030 A 
ATOM     12  C15 <0> d           2.040   1.522  -6.801  0.00  0.00     0.011 A 
BRANCH  10  13
ATOM     13  N3  <0> d           3.114   4.321  -8.935  0.00  0.00    -0.315 N 
ATOM     14  C22 <0> d           2.201   4.445  -9.934  0.00  0.00     0.214 A 
ATOM     15  N4  <0> d           2.560   5.437 -10.704  0.00  0.00    -0.254 NA
ATOM     16  C21 <0> d           3.701   5.969 -10.240  0.00  0.00     0.135 A 
ATOM     17  C20 <0> d           4.064   5.288  -9.136  0.00  0.00     0.117 A 
ENDBRANCH  10  13
ENDBRANCH   5   7
ENDBRANCH   3   5
BRANCH   1  18
ATOM     18  C10 <0> d          -0.006  -0.284  -2.528  0.00  0.00     0.144 C 
BRANCH  18  19
ATOM     19  C3  <0> d           0.007  -0.769  -1.101  0.00  0.00    -0.015 A 
ATOM     20  C2  <0> d           0.002  -0.004   0.002  0.00  0.00     0.013 A 
ATOM     21  C1  <0> d          -0.018   1.503   0.010  0.00  0.00     0.068 C 
ATOM     22  N1  <0> d           0.024  -0.795   1.118  0.00  0.00    -0.359 N 
ATOM     23  C9  <0> d           0.036  -2.122   0.751  0.00  0.00     0.043 A 
ATOM     24  H1  <0> d           0.029  -0.470   2.032  0.00  0.00     0.166 HD
ATOM     25  C4  <0> d           0.029  -2.164  -0.655  0.00  0.00    -0.001 A 
ATOM     26  C8  <0> d           0.056  -3.315   1.468  0.00  0.00     0.030 A 
ATOM     27  C5  <0> d           0.043  -3.394  -1.316  0.00  0.00     0.014 A 
ATOM     28  C6  <0> d           0.063  -4.552  -0.593  0.00  0.00     0.001 A 
ATOM     29  C7  <0> d           0.070  -4.517   0.795  0.00  0.00     0.002 A 
ENDBRANCH  18  19
ENDBRANCH   1  18
TORSDOF 5
