REMARK  6 active torsions:
REMARK  status: ('A' for Active; 'I' for Inactive)
REMARK    1  A    between atoms: C2_2  and  N1_3 
REMARK    2  A    between atoms: C6_7  and  C12_15 
REMARK       I    between atoms: C12_15  and  N3_17 
REMARK    3  A    between atoms: N3_17  and  C13_18 
REMARK    4  A    between atoms: C17_22  and  S1_24 
REMARK    5  A    between atoms: S1_24  and  N4_27 
REMARK    6  A    between atoms: N4_27  and  C19_28 
ROOT
ATOM      1  C12 <0> d           5.118  -0.848  -4.158  0.00  0.00     0.256 C 
ATOM      2  O2  <0> d           4.902  -0.143  -5.124  0.00  0.00    -0.267 OA
ATOM      3  N3  <0> d           4.587  -0.531  -2.960  0.00  0.00    -0.323 N 
ATOM      4  H12 <0> d           4.814  -1.055  -2.176  0.00  0.00     0.169 HD
ENDROOT
BRANCH   3   5
ATOM      5  C13 <0> d           3.709   0.551  -2.849  0.00  0.00     0.036 A 
ATOM      6  C18 <0> d           2.651   0.499  -1.951  0.00  0.00     0.054 A 
ATOM      7  C17 <0> d           1.782   1.569  -1.847  0.00  0.00     0.082 A 
ATOM      8  C16 <0> d           1.973   2.694  -2.627  0.00  0.00     0.025 A 
ATOM      9  C15 <0> d           3.029   2.751  -3.518  0.00  0.00     0.004 A 
ATOM     10  C14 <0> d           3.897   1.683  -3.631  0.00  0.00     0.029 A 
BRANCH   7  11
ATOM     11  S1  <0> d           0.435   1.501  -0.713  0.00  0.00     0.264 S 
ATOM     12  O3  <0> d           0.093   2.846  -0.409  0.00  0.00    -0.200 OA
ATOM     13  O4  <0> d           0.795   0.561   0.290  0.00  0.00    -0.200 OA
BRANCH  11  14
ATOM     14  N4  <0> d          -0.856   0.856  -1.525  0.00  0.00    -0.270 N 
ATOM     15  H17 <0> d          -1.646   1.396  -1.687  0.00  0.00     0.180 HD
BRANCH  14  16
ATOM     16  C19 <0> d          -0.807  -0.437  -1.973  0.00  0.00     0.086 C 
ATOM     17  C22 <0> d          -1.927  -1.129  -2.718  0.00  0.00     0.078 C 
ATOM     18  C21 <0> d          -1.241  -2.368  -3.348  0.00  0.00     0.027 C 
ATOM     19  C20 <0> d          -0.038  -2.553  -2.394  0.00  0.00     0.121 C 
ATOM     20  N5  <0> d           0.212  -1.222  -1.802  0.00  0.00    -0.379 N 
ATOM     21  H24 <0> d           1.078  -0.954  -1.319  0.00  0.00     0.160 HD
ENDBRANCH  14  16
ENDBRANCH  11  14
ENDBRANCH   7  11
ENDBRANCH   3   5
BRANCH   1  22
ATOM     22  C6  <0> d           5.963  -2.051  -4.296  0.00  0.00     0.034 A 
ATOM     23  C5  <0> d           6.212  -2.863  -3.180  0.00  0.00     0.019 A 
ATOM     24  C4  <0> d           6.990  -3.977  -3.294  0.00  0.00     0.033 A 
ATOM     25  C3  <0> d           7.549  -4.322  -4.524  0.00  0.00     0.066 A 
ATOM     26  N1  <0> d           8.336  -5.448  -4.634  0.00  0.00    -0.311 N 
ATOM     27  C8  <0> d           7.310  -3.518  -5.656  0.00  0.00     0.085 A 
ATOM     28  C10 <0> d           8.867  -5.762  -5.835  0.00  0.00     0.272 A 
ATOM     29  C9  <0> d           8.592  -4.897  -6.988  0.00  0.00     0.099 A 
ATOM     30  O1  <0> d           9.565  -6.752  -5.960  0.00  0.00    -0.266 OA
ATOM     31  N2  <0> d           7.845  -3.840  -6.850  0.00  0.00    -0.246 NA
ATOM     32  C11 <0> d           9.178  -5.232  -8.336  0.00  0.00     0.076 C 
ATOM     33  C7  <0> d           6.505  -2.378  -5.533  0.00  0.00     0.051 A 
BRANCH  26  34
ATOM     34  C2  <0> d           8.592  -6.293  -3.465  0.00  0.00     0.128 C 
ATOM     35  C1  <0> d           7.512  -7.373  -3.369  0.00  0.00     0.027 C 
ENDBRANCH  26  34
ENDBRANCH   1  22
TORSDOF 6
