REMARK  2 active torsions:
REMARK  status: ('A' for Active; 'I' for Inactive)
REMARK    1  A    between atoms: C6_7  and  C14_20 
REMARK    2  A    between atoms: C11_14  and  O2_19 
ROOT
ATOM      1  C1  <0> d          -0.018   1.465   0.010  0.00  0.00     0.270 C 
ATOM      2  N1  <0> d           0.002  -0.004   0.002  0.00  0.00    -0.071 N 
ATOM      3  C2  <0> d          -1.377  -0.515   0.026  0.00  0.00     0.240 C 
ATOM      4  C3  <0> d          -1.348  -2.011  -0.291  0.00  0.00     0.085 C 
ATOM      5  C4  <0> d          -0.346  -2.703   0.600  0.00  0.00     0.020 A 
ATOM      6  C5  <0> d           0.614  -1.992   1.285  0.00  0.00     0.003 A 
ATOM      7  C6  <0> d           1.531  -2.665   2.099  0.00  0.00     0.006 A 
ATOM      8  C7  <0> d           1.447  -4.087   2.205  0.00  0.00     0.040 A 
ATOM      9  C8  <0> d           2.311  -4.974   3.002  0.00  0.00     0.094 A 
ATOM     10  N2  <0> d           3.342  -4.564   3.773  0.00  0.00    -0.212 NA
ATOM     11  C9  <0> d           4.107  -5.367   4.483  0.00  0.00     0.249 A 
ATOM     12  O1  <0> d           5.016  -4.915   5.153  0.00  0.00    -0.271 OA
ATOM     13  C10 <0> d           3.843  -6.858   4.457  0.00  0.00     0.170 A 
ATOM     14  C11 <0> d           2.684  -7.309   3.587  0.00  0.00     0.071 A 
ATOM     15  C12 <0> d           1.999  -6.351   2.923  0.00  0.00     0.066 A 
ATOM     16  S1  <0> d           0.607  -6.434   1.822  0.00  0.00    -0.067 SA
ATOM     17  C13 <0> d           0.425  -4.705   1.464  0.00  0.00     0.088 A 
ATOM     18  N3  <0> d          -0.410  -4.023   0.712  0.00  0.00    -0.353 N 
ATOM     19  C18 <0> d           0.711  -0.492   1.189  0.00  0.00     0.275 C 
ATOM     20  H16 <0> d          -1.097  -4.502   0.222  0.00  0.00     0.166 HD
ATOM     21  H17 <0> d           0.471  -0.331  -0.830  0.00  0.00     0.279 HD
ENDROOT
BRANCH   7  22
ATOM     22  C14 <0> d           2.566  -1.920   2.835  0.00  0.00     0.016 A 
ATOM     23  S2  <0> d           3.935  -0.968   2.197  0.00  0.00    -0.101 SA
ATOM     24  C17 <0> d           4.629  -0.445   3.756  0.00  0.00     0.050 A 
ATOM     25  C16 <0> d           3.790  -1.026   4.655  0.00  0.00     0.008 A 
ATOM     26  C15 <0> d           2.735  -1.780   4.200  0.00  0.00     0.020 A 
ENDBRANCH   7  22
BRANCH  14  27
ATOM     27  O2  <0> d           2.351  -8.610   3.482  0.00  0.00    -0.363 OA
ATOM     28  H10 <0> d           2.911  -9.203   4.002  0.00  0.00     0.217 HD
ENDBRANCH  14  27
TORSDOF 2
