REMARK  9 active torsions:
REMARK  status: ('A' for Active; 'I' for Inactive)
REMARK    1  A    between atoms: C2_2  and  C3_3 
REMARK    2  A    between atoms: C2_2  and  O3_32 
REMARK    3  A    between atoms: C3_3  and  N1_4 
REMARK    4  A    between atoms: N1_4  and  C4_5 
REMARK    5  A    between atoms: N1_4  and  C11_12 
REMARK    6  A    between atoms: C4_5  and  C5_6 
REMARK    7  A    between atoms: C11_12  and  C12_13 
REMARK    8  A    between atoms: C15_19  and  C18_24 
REMARK    9  A    between atoms: C23_29  and  O2_30 
ROOT
ATOM      1  C12 <0> d           3.203  -1.948  -1.150  0.00  0.00     0.134 A 
ATOM      2  N2  <0> d           4.347  -2.255  -1.815  0.00  0.00    -0.309 N 
ATOM      3  H2  <0> d           4.304  -2.836  -2.591  0.00  0.00     0.170 HD
ATOM      4  C13 <0> d           5.537  -1.769  -1.419  0.00  0.00     0.260 A 
ATOM      5  O1  <0> d           6.555  -2.053  -2.027  0.00  0.00    -0.267 OA
ATOM      6  C14 <0> d           5.591  -0.912  -0.273  0.00  0.00     0.079 A 
ATOM      7  C15 <0> d           6.744  -0.268   0.344  0.00  0.00     0.002 A 
ATOM      8  C16 <0> d           6.549   0.509   1.437  0.00  0.00     0.065 A 
ATOM      9  S1  <0> d           4.788   0.417   1.699  0.00  0.00    -0.080 SA
ATOM     10  C17 <0> d           4.359  -0.651   0.349  0.00  0.00     0.116 A 
ATOM     11  N3  <0> d           3.219  -1.166  -0.104  0.00  0.00    -0.225 NA
ENDROOT
BRANCH   1  12
ATOM     12  C11 <0> d           1.892  -2.516  -1.630  0.00  0.00     0.313 C 
BRANCH  12  13
ATOM     13  N1  <0> d           0.806  -2.041  -0.762  0.00  0.00    -0.058 N 
ATOM     14  H26 <0> d           1.017  -2.272   0.197  0.00  0.00     0.280 HD
BRANCH  13  15
ATOM     15  C3  <0> d           0.672  -0.585  -0.897  0.00  0.00     0.266 C 
BRANCH  15  16
ATOM     16  C2  <0> d          -0.322  -0.066   0.143  0.00  0.00     0.140 C 
ATOM     17  C1  <0> d          -0.312   1.464   0.140  0.00  0.00     0.041 C 
BRANCH  16  18
ATOM     18  O3  <0> d          -1.634  -0.533  -0.177  0.00  0.00    -0.394 OA
ATOM     19  H25 <0> d          -2.317  -0.247   0.446  0.00  0.00     0.210 HD
ENDBRANCH  16  18
ENDBRANCH  15  16
ENDBRANCH  13  15
BRANCH  13  20
ATOM     20  C4  <0> d          -0.453  -2.688  -1.156  0.00  0.00     0.274 C 
BRANCH  20  21
ATOM     21  C5  <0> d          -0.333  -4.178  -0.967  0.00  0.00    -0.033 A 
ATOM     22  C10 <0> d          -0.578  -4.739   0.273  0.00  0.00     0.009 A 
ATOM     23  C9  <0> d          -0.472  -6.107   0.445  0.00  0.00     0.001 A 
ATOM     24  C8  <0> d          -0.113  -6.912  -0.620  0.00  0.00     0.000 A 
ATOM     25  C7  <0> d           0.137  -6.350  -1.858  0.00  0.00     0.001 A 
ATOM     26  C6  <0> d           0.027  -4.983  -2.031  0.00  0.00     0.009 A 
ENDBRANCH  20  21
ENDBRANCH  13  20
ENDBRANCH  12  13
ENDBRANCH   1  12
BRANCH   7  27
ATOM     27  C18 <0> d           8.104  -0.460  -0.213  0.00  0.00     0.009 A 
ATOM     28  C23 <0> d           8.415   0.020  -1.489  0.00  0.00     0.079 A 
ATOM     29  C22 <0> d           9.690  -0.159  -1.999  0.00  0.00     0.037 A 
ATOM     30  C21 <0> d          10.648  -0.820  -1.254  0.00  0.00     0.003 A 
ATOM     31  C20 <0> d          10.342  -1.302   0.007  0.00  0.00     0.001 A 
ATOM     32  C19 <0> d           9.077  -1.125   0.530  0.00  0.00     0.015 A 
BRANCH  28  33
ATOM     33  O2  <0> d           7.471   0.665  -2.223  0.00  0.00    -0.355 OA
ATOM     34  C24 <0> d           7.861   1.129  -3.518  0.00  0.00     0.210 C 
ENDBRANCH  28  33
ENDBRANCH   7  27
TORSDOF 9
