REMARK  5 active torsions:
REMARK  status: ('A' for Active; 'I' for Inactive)
REMARK    1  A    between atoms: C13_15  and  O5_32 
REMARK    2  A    between atoms: C14_16  and  C15_17 
REMARK    3  A    between atoms: C16_20  and  C18_22 
REMARK    4  A    between atoms: C20_24  and  O4_30 
REMARK    5  A    between atoms: C22_26  and  O3_28 
ROOT
ATOM      1  C1  <0> d           1.970  -1.651  -2.538  0.00  0.00     0.049 C 
ATOM      2  C2  <0> d           2.275  -2.359  -1.243  0.00  0.00    -0.044 A 
ATOM      3  C3  <0> d           2.797  -3.633  -1.269  0.00  0.00     0.046 A 
ATOM      4  C4  <0> d           3.076  -4.300  -0.082  0.00  0.00     0.093 A 
ATOM      5  C5  <0> d           2.829  -3.668   1.149  0.00  0.00     0.039 A 
ATOM      6  C6  <0> d           3.130  -4.382   2.397  0.00  0.00    -0.030 A 
ATOM      7  C7  <0> d           3.632  -5.633   2.313  0.00  0.00     0.025 A 
ATOM      8  C8  <0> d           3.859  -6.206   1.037  0.00  0.00     0.295 A 
ATOM      9  O1  <0> d           4.318  -7.332   0.971  0.00  0.00    -0.259 OA
ATOM     10  O2  <0> d           3.584  -5.551  -0.098  0.00  0.00    -0.274 OA
ATOM     11  C9  <0> d           3.964  -6.458   3.528  0.00  0.00     0.045 C 
ATOM     12  C10 <0> d           4.085  -5.571   4.765  0.00  0.00     0.005 C 
ATOM     13  C11 <0> d           2.831  -4.692   4.853  0.00  0.00     0.005 C 
ATOM     14  C12 <0> d           2.871  -3.685   3.704  0.00  0.00     0.040 C 
ATOM     15  C13 <0> d           2.303  -2.369   1.179  0.00  0.00     0.092 A 
ATOM     16  C14 <0> d           2.029  -1.714  -0.026  0.00  0.00     0.030 A 
ENDROOT
BRANCH  16  17
ATOM     17  C15 <0> d           1.474  -0.348  -0.014  0.00  0.00     0.070 A 
ATOM     18  C17 <0> d           0.002  -0.004   0.002  0.00  0.00     0.093 A 
ATOM     19  C16 <0> d          -0.019   1.537   0.011  0.00  0.00     0.140 A 
ATOM     20  N2  <0> d           1.407   1.902  -0.001  0.00  0.00    -0.304 N 
ATOM     21  N1  <0> d           2.170   0.736  -0.015  0.00  0.00    -0.182 NA
ATOM     22  H14 <0> d           1.758   2.806  -0.000  0.00  0.00     0.183 HD
BRANCH  19  23
ATOM     23  C18 <0> d          -0.711   2.065  -1.220  0.00  0.00    -0.028 A 
ATOM     24  C23 <0> d          -2.026   2.484  -1.145  0.00  0.00     0.046 A 
ATOM     25  C22 <0> d          -2.666   2.970  -2.276  0.00  0.00     0.071 A 
ATOM     26  C21 <0> d          -1.985   3.035  -3.482  0.00  0.00     0.073 A 
ATOM     27  C20 <0> d          -0.666   2.615  -3.554  0.00  0.00     0.071 A 
ATOM     28  C19 <0> d          -0.029   2.134  -2.419  0.00  0.00     0.046 A 
BRANCH  25  29
ATOM     29  O3  <0> d          -3.959   3.381  -2.202  0.00  0.00    -0.356 OA
ATOM     30  C24 <0> d          -4.554   3.870  -3.406  0.00  0.00     0.210 C 
ENDBRANCH  25  29
BRANCH  27  31
ATOM     31  O4  <0> d           0.004   2.677  -4.735  0.00  0.00    -0.356 OA
ATOM     32  C25 <0> d          -0.713   3.187  -5.862  0.00  0.00     0.210 C 
ENDBRANCH  27  31
ENDBRANCH  19  23
ENDBRANCH  16  17
BRANCH  15  33
ATOM     33  O5  <0> d           2.063  -1.753   2.363  0.00  0.00    -0.359 OA
ATOM     34  H26 <0> d           1.175  -1.906   2.713  0.00  0.00     0.217 HD
ENDBRANCH  15  33
TORSDOF 5
