REMARK  5 active torsions:
REMARK  status: ('A' for Active; 'I' for Inactive)
REMARK    1  A    between atoms: C12_13  and  O5_26 
REMARK    2  A    between atoms: C18_19  and  C19_20 
REMARK    3  A    between atoms: C18_19  and  O4_24 
REMARK    4  A    between atoms: C19_20  and  C20_22 
REMARK    5  A    between atoms: C20_22  and  O3_23 
ROOT
ATOM      1  C1  <0> d           0.014   1.127  -0.413  0.00  0.00     0.020 C 
ATOM      2  C2  <0> d          -0.053  -0.393  -0.245  0.00  0.00    -0.014 C 
ATOM      3  C3  <0> d           0.520  -1.030  -1.498  0.00  0.00     0.022 C 
ATOM      4  C4  <0> d           2.048  -1.034  -1.480  0.00  0.00     0.084 C 
ATOM      5  C5  <0> d           2.486  -1.784  -0.237  0.00  0.00     0.149 C 
ATOM      6  O1  <0> d           3.317  -2.666  -0.283  0.00  0.00    -0.293 OA
ATOM      7  C6  <0> d           1.852  -1.385   1.024  0.00  0.00     0.053 C 
ATOM      8  C7  <0> d           0.676  -0.753   1.013  0.00  0.00    -0.068 C 
ATOM      9  C8  <0> d           0.073  -0.346   2.345  0.00  0.00     0.035 C 
ATOM     10  C9  <0> d          -1.396  -0.774   2.371  0.00  0.00     0.010 C 
ATOM     11  C10 <0> d          -2.117  -0.179   1.158  0.00  0.00    -0.002 C 
ATOM     12  C11 <0> d          -1.530  -0.790  -0.123  0.00  0.00     0.031 C 
ATOM     13  C12 <0> d          -2.275  -0.340  -1.376  0.00  0.00     0.124 C 
ATOM     14  C13 <0> d          -3.785  -0.599  -1.263  0.00  0.00     0.045 C 
ATOM     15  C14 <0> d          -4.273   0.135  -0.029  0.00  0.00     0.001 C 
ATOM     16  C15 <0> d          -3.592  -0.532   1.216  0.00  0.00     0.002 C 
ATOM     17  C16 <0> d          -4.375   0.070   2.388  0.00  0.00     0.009 C 
ATOM     18  C17 <0> d          -5.840   0.052   1.873  0.00  0.00     0.047 C 
ATOM     19  C18 <0> d          -5.761   0.019   0.288  0.00  0.00     0.128 C 
ATOM     20  C21 <0> d          -3.874   1.609  -0.111  0.00  0.00     0.019 C 
ENDROOT
BRANCH  19  21
ATOM     21  C19 <0> d          -6.511   1.190  -0.291  0.00  0.00     0.184 C 
ATOM     22  O2  <0> d          -6.740   2.159   0.392  0.00  0.00    -0.292 OA
BRANCH  21  23
ATOM     23  C20 <0> d          -6.976   1.153  -1.724  0.00  0.00     0.245 C 
BRANCH  23  24
ATOM     24  O3  <0> d          -7.657   2.369  -2.036  0.00  0.00    -0.393 OA
ATOM     25  H25 <0> d          -7.985   2.415  -2.945  0.00  0.00     0.209 HD
ENDBRANCH  23  24
ENDBRANCH  21  23
ENDBRANCH  19  21
BRANCH  19  26
ATOM     26  O4  <0> d          -6.282  -1.208  -0.227  0.00  0.00    -0.381 OA
ATOM     27  H26 <0> d          -7.225  -1.337  -0.055  0.00  0.00     0.211 HD
ENDBRANCH  19  26
BRANCH  13  28
ATOM     28  O5  <0> d          -1.764  -1.054  -2.503  0.00  0.00    -0.395 OA
ATOM     29  H30 <0> d          -2.188  -0.823  -3.341  0.00  0.00     0.210 HD
ENDBRANCH  13  28
TORSDOF 5
