REMARK  2 active torsions:
REMARK  status: ('A' for Active; 'I' for Inactive)
REMARK    1  A    between atoms: N1_8  and  C10_13 
REMARK    2  A    between atoms: C10_13  and  C11_14 
ROOT
ATOM      1  C1  <0> d          -0.346   1.493   0.060  0.00  0.00     0.050 C 
ATOM      2  C2  <0> d          -0.280  -0.013   0.045  0.00  0.00    -0.033 A 
ATOM      3  C3  <0> d          -0.490  -0.700  -1.136  0.00  0.00     0.028 A 
ATOM      4  C4  <0> d          -0.434  -2.083  -1.169  0.00  0.00     0.012 A 
ATOM      5  C5  <0> d          -0.165  -2.792  -0.014  0.00  0.00     0.037 A 
ATOM      6  C6  <0> d           0.049  -2.108   1.182  0.00  0.00     0.049 A 
ATOM      7  C7  <0> d          -0.002  -0.705   1.216  0.00  0.00     0.058 A 
ATOM      8  N1  <0> d           0.249  -0.259   2.512  0.00  0.00    -0.307 N 
ATOM      9  C8  <0> d           0.472  -1.286   3.350  0.00  0.00     0.299 A 
ATOM     10  O1  <0> d           0.717  -1.204   4.536  0.00  0.00    -0.264 OA
ATOM     11  C9  <0> d           0.351  -2.552   2.555  0.00  0.00     0.252 A 
ATOM     12  O2  <0> d           0.484  -3.691   2.953  0.00  0.00    -0.281 OA
ATOM     13 Br1  <0> d          -0.726  -3.003  -2.795  0.00  0.00    -0.051 Br
ENDROOT
BRANCH   8  14
ATOM     14  C10 <0> d           0.268   1.151   2.911  0.00  0.00     0.167 C 
BRANCH  14  15
ATOM     15  C11 <0> d          -1.144   1.587   3.308  0.00  0.00     0.170 C 
ATOM     16  O4  <0> d          -1.550   0.958   4.539  0.00  0.00    -0.295 OA
ATOM     17  C13 <0> d          -2.298   1.837   5.228  0.00  0.00     0.361 C 
ATOM     18  N2  <0> d          -2.127   3.106   4.813  0.00  0.00    -0.334 N 
ATOM     19  O3  <0> d          -3.050   1.519   6.128  0.00  0.00    -0.239 OA
ATOM     20  C12 <0> d          -1.172   3.087   3.687  0.00  0.00     0.159 C 
ATOM     21  H11 <0> d          -2.554   3.893   5.188  0.00  0.00     0.164 HD
ENDBRANCH  14  15
ENDBRANCH   8  14
TORSDOF 2
