REMARK  6 active torsions:
REMARK  status: ('A' for Active; 'I' for Inactive)
REMARK    1  A    between atoms: C5_5  and  N2_15 
REMARK       I    between atoms: N2_15  and  C13_16 
REMARK    2  A    between atoms: C13_16  and  C14_18 
REMARK       I    between atoms: C14_18  and  N3_20 
REMARK    3  A    between atoms: N3_20  and  C15_21 
REMARK    4  A    between atoms: C15_21  and  C16_22 
REMARK    5  A    between atoms: C16_22  and  C17_23 
REMARK    6  A    between atoms: C17_23  and  N4_24 
ROOT
ATOM      1  N2  <0> d           1.323  -0.947  -4.807  0.00  0.00    -0.319 N 
ATOM      2  C13 <0> d           2.254  -1.458  -5.636  0.00  0.00     0.313 C 
ATOM      3  O2  <0> d           3.192  -2.082  -5.185  0.00  0.00    -0.262 OA
ATOM      4  H13 <0> d           0.539  -0.506  -5.171  0.00  0.00     0.169 HD
ENDROOT
BRANCH   1   5
ATOM      5  C5  <0> d           1.486  -1.051  -3.422  0.00  0.00     0.036 A 
ATOM      6  C4  <0> d           2.084  -2.189  -2.885  0.00  0.00     0.039 A 
ATOM      7  C3  <0> d           2.247  -2.293  -1.522  0.00  0.00    -0.016 A 
ATOM      8  C2  <0> d           2.824  -3.322  -0.581  0.00  0.00     0.109 A 
ATOM      9  C8  <0> d           1.815  -1.264  -0.717  0.00  0.00     0.050 A 
ATOM     10  C1  <0> d           2.052  -4.638  -0.689  0.00  0.00     0.025 C 
ATOM     11  C9  <0> d           2.648  -2.715   0.801  0.00  0.00     0.232 A 
ATOM     12  N1  <0> d           2.059  -1.523   0.643  0.00  0.00    -0.316 N 
ATOM     13  O1  <0> d           2.979  -3.220   1.854  0.00  0.00    -0.272 OA
ATOM     14  C10 <0> d           1.672  -0.520   1.650  0.00  0.00     0.132 C 
ATOM     15  C11 <0> d           1.692   0.862   0.988  0.00  0.00     0.025 C 
ATOM     16  C12 <0> d           0.783   0.922  -0.243  0.00  0.00     0.042 C 
ATOM     17  C7  <0> d           1.212  -0.120  -1.241  0.00  0.00    -0.028 A 
ATOM     18  C6  <0> d           1.049  -0.014  -2.598  0.00  0.00     0.039 A 
ENDBRANCH   1   5
BRANCH   2  19
ATOM     19  C14 <0> d           2.131  -1.258  -7.111  0.00  0.00     0.309 C 
ATOM     20  O3  <0> d           1.193  -0.635  -7.563  0.00  0.00    -0.262 OA
ATOM     21  N3  <0> d           3.062  -1.770  -7.941  0.00  0.00    -0.353 N 
ATOM     22  H14 <0> d           3.812  -2.268  -7.579  0.00  0.00     0.162 HD
BRANCH  21  23
ATOM     23  C15 <0> d           2.941  -1.574  -9.387  0.00  0.00     0.125 C 
BRANCH  23  24
ATOM     24  C16 <0> d           4.119  -2.249 -10.093  0.00  0.00     0.040 C 
BRANCH  24  25
ATOM     25  C17 <0> d           3.993  -2.044 -11.604  0.00  0.00     0.130 C 
BRANCH  25  26
ATOM     26  N4  <0> d           5.120  -2.691 -12.280  0.00  0.00    -0.352 N 
ATOM     27  C20 <0> d           5.162  -3.965 -12.727  0.00  0.00     0.182 A 
ATOM     28  N5  <0> d           6.328  -4.178 -13.275  0.00  0.00    -0.361 N 
ATOM     29  C19 <0> d           7.066  -3.061 -13.191  0.00  0.00     0.106 A 
ATOM     30  H24 <0> d           6.616  -5.013 -13.676  0.00  0.00     0.166 HD
ATOM     31  C18 <0> d           6.329  -2.119 -12.572  0.00  0.00     0.108 A 
ENDBRANCH  25  26
ENDBRANCH  24  25
ENDBRANCH  23  24
ENDBRANCH  21  23
ENDBRANCH   2  19
TORSDOF 6
