REMARK  4 active torsions:
REMARK  status: ('A' for Active; 'I' for Inactive)
REMARK    1  A    between atoms: C2_2  and  N1_3 
REMARK    2  A    between atoms: N1_3  and  C3_4 
REMARK       I    between atoms: N1_3  and  C5_8 
REMARK    3  A    between atoms: C3_4  and  C4_5 
REMARK    4  A    between atoms: C5_8  and  C6_10 
ROOT
ATOM      1  N1  <0> d          -1.410  -0.435   0.018  0.00  0.00    -0.342 N 
ATOM      2  C5  <0> d          -1.958  -0.846   1.179  0.00  0.00     0.255 C 
ATOM      3  O1  <0> d          -3.030  -1.420   1.175  0.00  0.00    -0.267 OA
ENDROOT
BRANCH   1   4
ATOM      4  C2  <0> d          -0.074   0.165   0.011  0.00  0.00     0.122 C 
ATOM      5  C1  <0> d          -0.182   1.656   0.338  0.00  0.00     0.026 C 
ENDBRANCH   1   4
BRANCH   1   6
ATOM      6  C3  <0> d          -2.151  -0.588  -1.236  0.00  0.00     0.195 C 
BRANCH   6   7
ATOM      7  C4  <0> d          -1.829  -1.926  -1.850  0.00  0.00     0.089 C 
ATOM      8  S1  <0> d          -0.810  -2.917  -1.117  0.00  0.00    -0.064 SA
ATOM      9  N2  <0> d          -2.399  -2.288  -3.016  0.00  0.00    -0.392 N 
ATOM     10  H8  <0> d          -3.016  -1.686  -3.461  0.00  0.00     0.156 HD
ATOM     11  H9  <0> d          -2.191  -3.149  -3.411  0.00  0.00     0.156 HD
ENDBRANCH   6   7
ENDBRANCH   1   6
BRANCH   2  12
ATOM     12  C6  <0> d          -1.256  -0.599   2.456  0.00  0.00     0.048 A 
ATOM     13  C11 <0> d          -1.869   0.156   3.458  0.00  0.00     0.022 A 
ATOM     14  C10 <0> d          -1.210   0.379   4.651  0.00  0.00     0.019 A 
ATOM     15  I1  <0> d          -3.788   0.942   3.157  0.00  0.00    -0.043 I 
ATOM     16  C9  <0> d           0.059  -0.135   4.849  0.00  0.00     0.001 A 
ATOM     17  C8  <0> d           0.674  -0.879   3.858  0.00  0.00     0.001 A 
ATOM     18  C7  <0> d           0.024  -1.114   2.664  0.00  0.00     0.018 A 
ENDBRANCH   2  12
TORSDOF 4
