REMARK  4 active torsions:
REMARK  status: ('A' for Active; 'I' for Inactive)
REMARK    1  A    between atoms: C7_7  and  C8_8 
REMARK    2  A    between atoms: C8_8  and  N1_9 
REMARK    3  A    between atoms: N1_9  and  C9_10 
REMARK    4  A    between atoms: C11_12  and  N4_21 
ROOT
ATOM      1  C9  <0> d          -1.609   0.971   4.122  0.00  0.00     0.075 A 
ATOM      2  C10 <0> d          -0.575   1.432   4.886  0.00  0.00     0.064 A 
ATOM      3  C11 <0> d          -0.847   2.087   6.103  0.00  0.00     0.057 A 
ATOM      4  C12 <0> d          -2.127   2.257   6.514  0.00  0.00     0.128 A 
ATOM      5  N2  <0> d          -3.171   1.798   5.757  0.00  0.00    -0.306 N 
ATOM      6  C13 <0> d          -2.939   1.163   4.566  0.00  0.00     0.139 A 
ATOM      7  N3  <0> d          -4.111   0.833   4.041  0.00  0.00    -0.342 N 
ATOM      8  C14 <0> d          -5.086   1.241   4.856  0.00  0.00     0.029 A 
ATOM      9  C15 <0> d          -4.526   1.836   5.933  0.00  0.00     0.036 A 
ATOM     10  C16 <0> d          -5.260   2.443   7.101  0.00  0.00     0.071 C 
ATOM     11  C17 <0> d          -6.563   1.057   4.620  0.00  0.00     0.070 C 
ATOM     12  H26 <0> d          -4.239   0.368   3.199  0.00  0.00     0.167 HD
ENDROOT
BRANCH   1  13
ATOM     13  N1  <0> d          -1.357   0.320   2.913  0.00  0.00    -0.383 N 
ATOM     14  H9  <0> d          -2.095  -0.003   2.372  0.00  0.00     0.160 HD
BRANCH  13  15
ATOM     15  C8  <0> d           0.023   0.124   2.460  0.00  0.00     0.159 C 
BRANCH  15  16
ATOM     16  C7  <0> d           0.019  -0.598   1.137  0.00  0.00    -0.029 A 
ATOM     17  C2  <0> d          -0.021   0.121  -0.043  0.00  0.00    -0.054 A 
ATOM     18  C1  <0> d          -0.062   1.627  -0.006  0.00  0.00     0.049 C 
ATOM     19  C3  <0> d          -0.018  -0.541  -1.256  0.00  0.00     0.007 A 
ATOM     20  C4  <0> d           0.019  -1.922  -1.290  0.00  0.00     0.001 A 
ATOM     21  C5  <0> d           0.055  -2.642  -0.110  0.00  0.00     0.007 A 
ATOM     22  C6  <0> d           0.053  -1.980   1.104  0.00  0.00    -0.054 A 
ATOM     23  C21 <0> d           0.091  -2.764   2.390  0.00  0.00     0.049 C 
ENDBRANCH  15  16
ENDBRANCH  13  15
ENDBRANCH   1  13
BRANCH   3  24
ATOM     24  N4  <0> d           0.210   2.563   6.892  0.00  0.00    -0.297 N 
ATOM     25  C20 <0> d           1.512   2.351   6.656  0.00  0.00     0.323 A 
ATOM     26  N5  <0> d           2.326   2.917   7.556  0.00  0.00    -0.341 N 
ATOM     27  O1  <0> d           1.917   1.706   5.708  0.00  0.00    -0.247 OA
ATOM     28  C19 <0> d           1.518   3.613   8.569  0.00  0.00     0.144 A 
ATOM     29  H22 <0> d           3.295   2.872   7.545  0.00  0.00     0.164 HD
ATOM     30  C18 <0> d           0.066   3.370   8.113  0.00  0.00     0.153 A 
ENDBRANCH   3  24
TORSDOF 4
