REMARK  7 active torsions:
REMARK  status: ('A' for Active; 'I' for Inactive)
REMARK    1  A    between atoms: C2_2  and  N1_3 
REMARK    2  A    between atoms: N2_6  and  C7_9 
REMARK    3  A    between atoms: C7_9  and  C9_11 
REMARK    4  A    between atoms: C9_11  and  N3_12 
REMARK       I    between atoms: N3_12  and  C10_13 
REMARK    5  A    between atoms: C10_13  and  C11_15 
REMARK       I    between atoms: C11_15  and  N4_17 
REMARK    6  A    between atoms: N4_17  and  C12_18 
REMARK    7  A    between atoms: C17_23  and  N5_24 
ROOT
ATOM      1  N3  <0> d           1.839  -4.339   3.699  0.00  0.00    -0.351 N 
ATOM      2  C10 <0> d           1.391  -5.598   3.879  0.00  0.00     0.309 C 
ATOM      3  O1  <0> d           2.178  -6.496   4.097  0.00  0.00    -0.262 OA
ATOM      4  H20 <0> d           1.210  -3.621   3.525  0.00  0.00     0.162 HD
ENDROOT
BRANCH   2   5
ATOM      5  C11 <0> d          -0.072  -5.887   3.809  0.00  0.00     0.314 C 
ATOM      6  O2  <0> d          -0.859  -4.989   3.591  0.00  0.00    -0.262 OA
ATOM      7  N4  <0> d          -0.519  -7.146   3.989  0.00  0.00    -0.317 N 
ATOM      8  H21 <0> d           0.113  -7.876   4.085  0.00  0.00     0.169 HD
BRANCH   7   9
ATOM      9  C12 <0> d          -1.894  -7.400   4.037  0.00  0.00     0.061 A 
ATOM     10  C17 <0> d          -2.384  -8.664   3.707  0.00  0.00     0.057 A 
ATOM     11  C16 <0> d          -3.748  -8.910   3.762  0.00  0.00     0.031 A 
ATOM     12  C15 <0> d          -4.618  -7.901   4.133  0.00  0.00     0.002 A 
ATOM     13  C14 <0> d          -4.132  -6.647   4.455  0.00  0.00     0.002 A 
ATOM     14  C13 <0> d          -2.775  -6.394   4.409  0.00  0.00     0.032 A 
BRANCH  10  15
ATOM     15  N5  <0> d          -1.503  -9.680   3.326  0.00  0.00    -0.379 N 
ATOM     16  C21 <0> d          -1.065  -9.966   1.947  0.00  0.00     0.123 C 
ATOM     17  C20 <0> d           0.296 -10.692   2.109  0.00  0.00     0.021 C 
ATOM     18  C19 <0> d           0.038 -11.555   3.373  0.00  0.00     0.021 C 
ATOM     19  C18 <0> d          -0.866 -10.646   4.233  0.00  0.00     0.123 C 
ENDBRANCH  10  15
ENDBRANCH   7   9
ENDBRANCH   2   5
BRANCH   1  20
ATOM     20  C9  <0> d           3.274  -4.055   3.767  0.00  0.00     0.158 C 
BRANCH  20  21
ATOM     21  C7  <0> d           3.502  -2.546   3.654  0.00  0.00     0.236 C 
ATOM     22  C8  <0> d           5.003  -2.260   3.589  0.00  0.00     0.044 C 
BRANCH  21  23
ATOM     23  N2  <0> d           2.854  -2.044   2.435  0.00  0.00     0.097 N 
ATOM     24  C4  <0> d           3.554  -2.519   1.233  0.00  0.00     0.300 C 
ATOM     25  C3  <0> d           2.816  -2.024  -0.013  0.00  0.00     0.265 C 
ATOM     26  N1  <0> d           2.767  -0.556  -0.002  0.00  0.00    -0.068 N 
ATOM     27  C6  <0> d           2.043  -0.098   1.191  0.00  0.00     0.265 C 
ATOM     28  H34 <0> d           3.706  -0.189   0.012  0.00  0.00     0.280 HD
ATOM     29  C5  <0> d           2.775  -0.576   2.447  0.00  0.00     0.300 C 
BRANCH  26  30
ATOM     30  C2  <0> d           2.074  -0.081  -1.207  0.00  0.00     0.230 C 
ATOM     31  C1  <0> d           2.892  -0.451  -2.446  0.00  0.00     0.034 C 
ENDBRANCH  26  30
ENDBRANCH  21  23
ENDBRANCH  20  21
ENDBRANCH   1  20
TORSDOF 7
