REMARK  7 active torsions:
REMARK  status: ('A' for Active; 'I' for Inactive)
REMARK    1  A    between atoms: C9_12  and  C11_14 
REMARK    2  A    between atoms: C11_14  and  N2_15 
REMARK    3  A    between atoms: N2_15  and  C12_16 
REMARK    4  A    between atoms: N2_15  and  C17_22 
REMARK    5  A    between atoms: C12_16  and  C13_17 
REMARK    6  A    between atoms: N3_24  and  C18_25 
REMARK    7  A    between atoms: C18_25  and  C19_26 
ROOT
ATOM      1  N2  <0> d          -3.053   3.934  -1.328  0.00  0.00    -0.348 N 
ENDROOT
BRANCH   1   2
ATOM      2  C11 <0> d          -2.594   3.699   0.043  0.00  0.00     0.169 C 
BRANCH   2   3
ATOM      3  C9  <0> d          -1.228   3.063   0.013  0.00  0.00     0.029 A 
ATOM      4  C8  <0> d          -1.107   1.664  -0.127  0.00  0.00     0.253 A 
ATOM      5  N1  <0> d           0.094   1.058  -0.152  0.00  0.00    -0.322 N 
ATOM      6  O1  <0> d          -2.116   0.986  -0.222  0.00  0.00    -0.268 OA
ATOM      7  C7  <0> d           1.258   1.789  -0.053  0.00  0.00     0.051 A 
ATOM      8  H1  <0> d           0.142   0.064  -0.244  0.00  0.00     0.169 HD
ATOM      9  C2  <0> d           2.501   1.164  -0.085  0.00  0.00    -0.034 A 
ATOM     10  C6  <0> d           1.192   3.189   0.082  0.00  0.00    -0.008 A 
ATOM     11  C1  <0> d           2.590  -0.333  -0.229  0.00  0.00     0.050 C 
ATOM     12  C3  <0> d           3.649   1.920   0.016  0.00  0.00     0.009 A 
ATOM     13  C4  <0> d           3.580   3.300   0.149  0.00  0.00     0.002 A 
ATOM     14  C5  <0> d           2.371   3.935   0.182  0.00  0.00     0.014 A 
ATOM     15  C10 <0> d          -0.120   3.838   0.114  0.00  0.00     0.028 A 
ENDBRANCH   2   3
ENDBRANCH   1   2
BRANCH   1  16
ATOM     16  C12 <0> d          -2.623   5.135  -2.049  0.00  0.00     0.190 C 
BRANCH  16  17
ATOM     17  C13 <0> d          -1.347   4.842  -2.796  0.00  0.00     0.070 A 
ATOM     18  O2  <0> d          -0.102   5.008  -2.319  0.00  0.00    -0.325 OA
ATOM     19  C16 <0> d           0.788   4.643  -3.256  0.00  0.00     0.142 A 
ATOM     20  C15 <0> d           0.115   4.247  -4.351  0.00  0.00     0.027 A 
ATOM     21  C14 <0> d          -1.261   4.375  -4.054  0.00  0.00     0.036 A 
ENDBRANCH  16  17
ENDBRANCH   1  16
BRANCH   1  22
ATOM     22  C17 <0> d          -3.872   3.046  -1.926  0.00  0.00     0.170 C 
ATOM     23  S1  <0> d          -4.491   1.719  -1.039  0.00  0.00    -0.041 SA
ATOM     24  N3  <0> d          -4.205   3.203  -3.223  0.00  0.00    -0.363 N 
ATOM     25  H16 <0> d          -3.854   3.955  -3.726  0.00  0.00     0.162 HD
BRANCH  24  26
ATOM     26  C18 <0> d          -5.095   2.238  -3.873  0.00  0.00     0.160 C 
BRANCH  26  27
ATOM     27  C19 <0> d          -5.306   2.639  -5.311  0.00  0.00    -0.041 A 
ATOM     28  C24 <0> d          -4.455   2.166  -6.292  0.00  0.00     0.009 A 
ATOM     29  C23 <0> d          -4.649   2.533  -7.611  0.00  0.00     0.001 A 
ATOM     30  C22 <0> d          -5.694   3.373  -7.948  0.00  0.00     0.000 A 
ATOM     31  C21 <0> d          -6.544   3.846  -6.966  0.00  0.00     0.001 A 
ATOM     32  C20 <0> d          -6.354   3.475  -5.648  0.00  0.00     0.009 A 
ENDBRANCH  26  27
ENDBRANCH  24  26
ENDBRANCH   1  22
TORSDOF 7
