REMARK  4 active torsions:
REMARK  status: ('A' for Active; 'I' for Inactive)
REMARK    1  A    between atoms: C7_7  and  N1_8 
REMARK       I    between atoms: N1_8  and  C8_9 
REMARK    2  A    between atoms: C8_9  and  C9_11 
REMARK    3  A    between atoms: C12_15  and  N2_16 
REMARK       I    between atoms: N2_16  and  C13_17 
REMARK    4  A    between atoms: C13_17  and  C14_19 
ROOT
ATOM      1  C9  <0> d           2.986  -1.636   1.744  0.00  0.00     0.073 A 
ATOM      2  C10 <0> d           2.157  -0.683   1.018  0.00  0.00    -0.026 A 
ATOM      3  C11 <0> d           2.815   0.068   0.109  0.00  0.00    -0.008 A 
ATOM      4  S1  <0> d           4.503  -0.461   0.217  0.00  0.00    -0.075 SA
ATOM      5  C12 <0> d           4.340  -1.672   1.445  0.00  0.00     0.093 A 
ATOM      6  C18 <0> d           2.245   1.108  -0.804  0.00  0.00     0.046 C 
ATOM      7  C19 <0> d           1.361   2.064   0.007  0.00  0.00     0.005 C 
ATOM      8  C20 <0> d          -0.060   1.510   0.023  0.00  0.00     0.001 C 
ATOM      9  C21 <0> d          -0.029  -0.017   0.013  0.00  0.00     0.005 C 
ATOM     10  C22 <0> d           0.660  -0.544   1.267  0.00  0.00     0.041 C 
ENDROOT
BRANCH   1  11
ATOM     11  C8  <0> d           2.409  -2.526   2.756  0.00  0.00     0.259 C 
ATOM     12  N1  <0> d           2.347  -2.132   4.043  0.00  0.00    -0.322 N 
ATOM     13  H8  <0> d           2.755  -1.294   4.314  0.00  0.00     0.169 HD
ATOM     14  O1  <0> d           1.987  -3.621   2.433  0.00  0.00    -0.267 OA
BRANCH  12  15
ATOM     15  C7  <0> d           1.694  -2.930   4.988  0.00  0.00     0.041 A 
ATOM     16  C2  <0> d           2.033  -2.837   6.331  0.00  0.00    -0.035 A 
ATOM     17  C1  <0> d           3.106  -1.876   6.773  0.00  0.00     0.050 C 
ATOM     18  C3  <0> d           1.386  -3.627   7.261  0.00  0.00     0.009 A 
ATOM     19  C4  <0> d           0.401  -4.509   6.857  0.00  0.00     0.001 A 
ATOM     20  C5  <0> d           0.060  -4.603   5.520  0.00  0.00     0.002 A 
ATOM     21  C6  <0> d           0.700  -3.813   4.585  0.00  0.00     0.030 A 
ENDBRANCH  12  15
ENDBRANCH   1  11
BRANCH   5  22
ATOM     22  N2  <0> d           5.322  -2.479   1.995  0.00  0.00    -0.315 N 
ATOM     23  C13 <0> d           6.597  -2.370   1.573  0.00  0.00     0.280 C 
ATOM     24  O2  <0> d           6.886  -1.563   0.710  0.00  0.00    -0.265 OA
ATOM     25  H9  <0> d           5.091  -3.122   2.683  0.00  0.00     0.170 HD
BRANCH  23  26
ATOM     26  C14 <0> d           7.637  -3.224   2.155  0.00  0.00     0.142 A 
ATOM     27  O3  <0> d           7.454  -4.151   3.118  0.00  0.00    -0.317 OA
ATOM     28  C17 <0> d           8.625  -4.738   3.398  0.00  0.00     0.143 A 
ATOM     29  C16 <0> d           9.584  -4.188   2.621  0.00  0.00     0.027 A 
ATOM     30  C15 <0> d           8.961  -3.218   1.821  0.00  0.00     0.045 A 
ENDBRANCH  23  26
ENDBRANCH   5  22
TORSDOF 4
