REMARK  4 active torsions:
REMARK  status: ('A' for Active; 'I' for Inactive)
REMARK    1  A    between atoms: C8_8  and  N2_20 
REMARK    2  A    between atoms: N1_14  and  C14_15 
REMARK    3  A    between atoms: C14_15  and  C15_16 
REMARK    4  A    between atoms: N2_20  and  C19_21 
ROOT
ATOM      1  C1  <0> d          -3.248   5.010  -2.685  0.00  0.00     0.013 C 
ATOM      2  C2  <0> d          -2.744   3.799  -1.896  0.00  0.00     0.025 C 
ATOM      3  C3  <0> d          -3.411   2.528  -2.421  0.00  0.00     0.197 C 
ATOM      4  C4  <0> d          -3.046   1.363  -1.518  0.00  0.00     0.072 C 
ATOM      5  C5  <0> d          -1.605   1.334  -1.157  0.00  0.00    -0.049 A 
ATOM      6  C6  <0> d          -1.108   0.184  -0.552  0.00  0.00     0.010 A 
ATOM      7  C7  <0> d           0.212   0.107  -0.167  0.00  0.00     0.030 A 
ATOM      8  C8  <0> d           1.063   1.182  -0.396  0.00  0.00     0.033 A 
ATOM      9  C9  <0> d           0.571   2.322  -1.013  0.00  0.00     0.038 A 
ATOM     10  C10 <0> d          -0.760   2.394  -1.394  0.00  0.00    -0.041 A 
ATOM     11  C11 <0> d          -1.230   3.656  -2.079  0.00  0.00    -0.009 C 
ATOM     12  C12 <0> d          -0.950   3.493  -3.584  0.00  0.00     0.042 C 
ATOM     13  C13 <0> d          -1.620   2.193  -4.044  0.00  0.00     0.236 C 
ATOM     14  N1  <0> d          -3.066   2.280  -3.815  0.00  0.00    -0.066 N 
ATOM     15  C18 <0> d          -0.492   4.876  -1.524  0.00  0.00     0.021 C 
ATOM     16  H30 <0> d          -3.418   3.160  -4.374  0.00  0.00     0.280 HD
ENDROOT
BRANCH   8  17
ATOM     17  N2  <0> d           2.403   1.114  -0.009  0.00  0.00    -0.356 N 
ATOM     18  H25 <0> d           3.166   1.679  -0.564  0.00  0.00     0.166 HD
BRANCH  17  19
ATOM     19  C19 <0> d           2.774   0.330   1.081  0.00  0.00     0.035 A 
ATOM     20  C23 <0> d           4.033  -0.268   1.137  0.00  0.00     0.046 A 
ATOM     21  C22 <0> d           4.362  -1.036   2.234  0.00  0.00     0.090 A 
ATOM     22  N3  <0> d           3.503  -1.209   3.221  0.00  0.00    -0.375 N 
ATOM     23  C21 <0> d           2.302  -0.660   3.205  0.00  0.00     0.090 A 
ATOM     24  H31 <0> d           3.812  -1.831   4.074  0.00  0.00     0.164 HD
ATOM     25  C20 <0> d           1.899   0.127   2.147  0.00  0.00     0.046 A 
ENDBRANCH  17  19
ENDBRANCH   8  17
BRANCH  14  26
ATOM     26  C14 <0> d          -3.752   1.085  -4.323  0.00  0.00     0.240 C 
BRANCH  26  27
ATOM     27  C15 <0> d          -3.627   1.034  -5.847  0.00  0.00     0.011 A 
ATOM     28  C17 <0> d          -4.178  -0.203  -6.560  0.00  0.00     0.007 A 
ATOM     29  C16 <0> d          -4.916   1.133  -6.666  0.00  0.00     0.007 A 
ENDBRANCH  26  27
ENDBRANCH  14  26
TORSDOF 4
