REMARK  5 active torsions:
REMARK  status: ('A' for Active; 'I' for Inactive)
REMARK       I    between atoms: C2_2  and  N1_4 
REMARK    1  A    between atoms: N1_4  and  C3_5 
REMARK    2  A    between atoms: C3_5  and  C4_6 
REMARK    3  A    between atoms: C3_5  and  C13_16 
REMARK    4  A    between atoms: C4_6  and  C5_7 
REMARK       I    between atoms: C13_16  and  N3_18 
REMARK    5  A    between atoms: N3_18  and  C14_19 
ROOT
ATOM      1  C3  <0> d          -1.142  -2.156   0.006  0.00  0.00     0.180 C 
ENDROOT
BRANCH   1   2
ATOM      2  N1  <0> d          -1.161  -0.691   0.017  0.00  0.00    -0.348 N 
ATOM      3  C2  <0> d          -0.002  -0.002   0.004  0.00  0.00     0.214 C 
ATOM      4  C1  <0> d          -0.021   1.504   0.015  0.00  0.00     0.117 C 
ATOM      5  O1  <0> d           1.056  -0.595  -0.015  0.00  0.00    -0.274 OA
ATOM      6  H5  <0> d          -2.007  -0.217   0.032  0.00  0.00     0.163 HD
ENDBRANCH   1   2
BRANCH   1   7
ATOM      7  C4  <0> d          -0.433  -2.648  -1.257  0.00  0.00     0.071 C 
BRANCH   7   8
ATOM      8  C5  <0> d          -1.234  -2.251  -2.470  0.00  0.00    -0.048 A 
ATOM      9  C12 <0> d          -2.397  -3.003  -3.078  0.00  0.00     0.155 A 
ATOM     10  N2  <0> d          -2.830  -2.209  -4.232  0.00  0.00    -0.385 N 
ATOM     11  C11 <0> d          -2.059  -1.152  -4.326  0.00  0.00     0.038 A 
ATOM     12  H19 <0> d          -3.562  -2.430  -4.829  0.00  0.00     0.160 HD
ATOM     13  C6  <0> d          -1.054  -1.153  -3.239  0.00  0.00    -0.006 A 
ATOM     14  C10 <0> d          -2.041  -0.073  -5.252  0.00  0.00     0.030 A 
ATOM     15  C7  <0> d          -0.097  -0.042  -3.178  0.00  0.00     0.014 A 
ATOM     16  C8  <0> d          -0.166   0.935  -4.110  0.00  0.00     0.001 A 
ATOM     17  C9  <0> d          -1.128   0.914  -5.130  0.00  0.00     0.002 A 
ENDBRANCH   7   8
ENDBRANCH   1   7
BRANCH   1  18
ATOM     18  C13 <0> d          -0.408  -2.657   1.223  0.00  0.00     0.245 C 
ATOM     19  O2  <0> d           0.353  -1.923   1.817  0.00  0.00    -0.271 OA
ATOM     20  N3  <0> d          -0.597  -3.922   1.651  0.00  0.00    -0.324 N 
ATOM     21  H14 <0> d          -1.255  -4.487   1.217  0.00  0.00     0.169 HD
BRANCH  20  22
ATOM     22  C14 <0> d           0.157  -4.419   2.720  0.00  0.00     0.052 A 
ATOM     23  C18 <0> d           0.551  -5.750   2.745  0.00  0.00     0.145 A 
ATOM     24  N4  <0> d           1.265  -6.220   3.749  0.00  0.00    -0.271 NA
ATOM     25  C17 <0> d           1.623  -5.459   4.764  0.00  0.00     0.116 A 
ATOM     26  C16 <0> d           1.264  -4.125   4.812  0.00  0.00     0.021 A 
ATOM     27  C15 <0> d           0.518  -3.587   3.777  0.00  0.00     0.032 A 
ENDBRANCH  20  22
ENDBRANCH   1  18
TORSDOF 5
