REMARK  4 active torsions:
REMARK  status: ('A' for Active; 'I' for Inactive)
REMARK    1  A    between atoms: C3_3  and  S1_9 
REMARK    2  A    between atoms: S1_9  and  N3_12 
REMARK    3  A    between atoms: N3_12  and  C6_13 
REMARK    4  A    between atoms: C6_13  and  C7_14 
ROOT
ATOM      1  N3  <0> d           1.549  -0.085  -3.280  0.00  0.00    -0.315 N 
ATOM      2  H10 <0> d           1.881   0.793  -3.524  0.00  0.00     0.172 HD
ENDROOT
BRANCH   1   3
ATOM      3  S1  <0> d          -0.029  -0.274  -2.814  0.00  0.00     0.262 S 
ATOM      4  O1  <0> d          -0.544  -1.368  -3.561  0.00  0.00    -0.200 OA
ATOM      5  O2  <0> d          -0.620   1.017  -2.848  0.00  0.00    -0.200 OA
BRANCH   3   6
ATOM      6  C3  <0> d          -0.016  -0.778  -1.126  0.00  0.00     0.129 A 
ATOM      7  C2  <0> d          -0.044   0.042  -0.050  0.00  0.00     0.049 A 
ATOM      8  C1  <0> d          -0.089   1.548  -0.081  0.00  0.00     0.071 C 
ATOM      9  N2  <0> d          -0.017  -0.730   1.057  0.00  0.00    -0.281 N 
ATOM     10  N1  <0> d           0.019  -2.070   0.647  0.00  0.00    -0.178 NA
ATOM     11  H1  <0> d          -0.024  -0.414   1.974  0.00  0.00     0.189 HD
ATOM     12  C4  <0> d           0.023  -2.097  -0.661  0.00  0.00     0.076 A 
ATOM     13  C5  <0> d           0.062  -3.336  -1.518  0.00  0.00     0.074 C 
ENDBRANCH   3   6
ENDBRANCH   1   3
BRANCH   1  14
ATOM     14  C6  <0> d           2.444  -1.245  -3.324  0.00  0.00     0.137 C 
BRANCH  14  15
ATOM     15  C7  <0> d           3.699  -0.890  -4.123  0.00  0.00     0.008 C 
ATOM     16  C13 <0> d           4.613  -2.116  -4.208  0.00  0.00     0.039 C 
ATOM     17  C12 <0> d           5.103  -2.455  -2.791  0.00  0.00     0.188 C 
ATOM     18  C11 <0> d           3.896  -2.426  -1.825  0.00  0.00     0.035 C 
ATOM     19  N4  <0> d           5.963  -1.305  -2.350  0.00  0.00    -0.066 N 
ATOM     20  C10 <0> d           3.805  -0.961  -1.350  0.00  0.00     0.035 C 
ATOM     21  C9  <0> d           4.965  -0.238  -2.072  0.00  0.00     0.188 C 
ATOM     22  C8  <0> d           4.438   0.258  -3.429  0.00  0.00     0.039 C 
ATOM     23  C14 <0> d           6.704  -1.651  -1.130  0.00  0.00     0.270 C 
ATOM     24  H25 <0> d           6.595  -1.018  -3.083  0.00  0.00     0.280 HD
ENDBRANCH  14  15
ENDBRANCH   1  14
TORSDOF 4
