REMARK  6 active torsions:
REMARK  status: ('A' for Active; 'I' for Inactive)
REMARK    1  A    between atoms: N1_8  and  C7_9 
REMARK    2  A    between atoms: C7_9  and  C8_10 
REMARK    3  A    between atoms: C8_10  and  C9_11 
REMARK    4  A    between atoms: C23_27  and  C25_31 
REMARK    5  A    between atoms: C24_28  and  N3_30 
REMARK    6  A    between atoms: C25_31  and  O5_33 
ROOT
ATOM      1  C1  <0> d           1.928  -3.214   4.896  0.00  0.00     0.068 C 
ATOM      2  C2  <0> d           1.874  -2.487   3.577  0.00  0.00     0.013 A 
ATOM      3  C3  <0> d           1.796  -3.195   2.430  0.00  0.00     0.063 A 
ATOM      4  C4  <0> d           1.744  -2.520   1.193  0.00  0.00     0.093 A 
ATOM      5  C5  <0> d           1.774  -1.141   1.183  0.00  0.00     0.071 A 
ATOM      6  C6  <0> d           1.855  -0.449   2.398  0.00  0.00     0.259 A 
ATOM      7  O1  <0> d           1.883   0.772   2.405  0.00  0.00    -0.267 OA
ATOM      8  N1  <0> d           1.903  -1.129   3.559  0.00  0.00    -0.318 N 
ATOM      9  C15 <0> d           1.721  -0.386  -0.115  0.00  0.00     0.142 A 
ATOM     10  C16 <0> d           0.389   0.272  -0.297  0.00  0.00    -0.004 A 
ATOM     11  C17 <0> d          -0.882  -0.253  -0.399  0.00  0.00     0.011 A 
ATOM     12  C18 <0> d          -1.925   0.650  -0.569  0.00  0.00     0.001 A 
ATOM     13  C19 <0> d          -1.696   2.010  -0.630  0.00  0.00     0.002 A 
ATOM     14  C20 <0> d          -0.421   2.545  -0.533  0.00  0.00     0.030 A 
ATOM     15  C21 <0> d           0.635   1.649  -0.358  0.00  0.00     0.043 A 
ATOM     16  N2  <0> d           1.989   1.901  -0.230  0.00  0.00    -0.325 N 
ATOM     17  C22 <0> d           2.704   0.767  -0.083  0.00  0.00     0.245 A 
ATOM     18  O2  <0> d           3.907   0.685   0.049  0.00  0.00    -0.271 OA
ATOM     19  C23 <0> d           2.033  -1.295  -1.268  0.00  0.00     0.095 C 
ATOM     20  C24 <0> d           1.989  -2.645  -1.125  0.00  0.00     0.156 C 
ATOM     21  O3  <0> d           1.667  -3.223   0.043  0.00  0.00    -0.293 OA
ATOM     22  H18 <0> d           2.379   2.789  -0.244  0.00  0.00     0.169 HD
ENDROOT
BRANCH  19  23
ATOM     23  C25 <0> d           2.374  -0.742  -2.512  0.00  0.00     0.295 C 
ATOM     24  O4  <0> d           2.740  -1.466  -3.421  0.00  0.00    -0.259 OA
BRANCH  23  25
ATOM     25  O5  <0> d           2.296   0.593  -2.702  0.00  0.00    -0.323 OA
ATOM     26  C26 <0> d           2.658   1.087  -3.993  0.00  0.00     0.213 C 
ENDBRANCH  23  25
ENDBRANCH  19  23
BRANCH  20  27
ATOM     27  N3  <0> d           2.282  -3.438  -2.202  0.00  0.00    -0.379 N 
ATOM     28  H19 <0> d           2.750  -4.278  -2.073  0.00  0.00     0.158 HD
ATOM     29  H20 <0> d           2.022  -3.160  -3.094  0.00  0.00     0.158 HD
ENDBRANCH  20  27
BRANCH   8  30
ATOM     30  C7  <0> d           1.990  -0.393   4.823  0.00  0.00     0.137 C 
BRANCH  30  31
ATOM     31  C8  <0> d           3.460  -0.169   5.183  0.00  0.00     0.058 C 
BRANCH  31  32
ATOM     32  C9  <0> d           3.549   0.589   6.483  0.00  0.00    -0.057 A 
ATOM     33  C14 <0> d           3.599  -0.099   7.681  0.00  0.00     0.007 A 
ATOM     34  C13 <0> d           3.681   0.596   8.873  0.00  0.00     0.001 A 
ATOM     35  C12 <0> d           3.713   1.978   8.867  0.00  0.00     0.000 A 
ATOM     36  C11 <0> d           3.662   2.665   7.669  0.00  0.00     0.001 A 
ATOM     37  C10 <0> d           3.585   1.970   6.476  0.00  0.00     0.007 A 
ENDBRANCH  31  32
ENDBRANCH  30  31
ENDBRANCH   8  30
TORSDOF 6
