REMARK  5 active torsions:
REMARK  status: ('A' for Active; 'I' for Inactive)
REMARK    1  A    between atoms: C4_4  and  N5_19 
REMARK    2  A    between atoms: N3_9  and  C7_11 
REMARK    3  A    between atoms: N5_19  and  C14_20 
REMARK    4  A    between atoms: C17_23  and  N6_26 
REMARK       I    between atoms: N6_26  and  C20_27 
REMARK    5  A    between atoms: C20_27  and  C21_29 
ROOT
ATOM      1  C1  <0> d          -0.036   1.502   0.012  0.00  0.00     0.073 C 
ATOM      2  C2  <0> d          -0.012  -0.004   0.003  0.00  0.00     0.069 A 
ATOM      3  C3  <0> d          -0.099  -0.824  -1.143  0.00  0.00     0.083 A 
ATOM      4  C4  <0> d          -0.222  -0.584  -2.525  0.00  0.00     0.142 A 
ATOM      5  N1  <0> d          -0.276  -1.628  -3.345  0.00  0.00    -0.216 NA
ATOM      6  C5  <0> d          -0.216  -2.865  -2.883  0.00  0.00     0.127 A 
ATOM      7  N2  <0> d          -0.101  -3.138  -1.602  0.00  0.00    -0.213 NA
ATOM      8  C6  <0> d          -0.039  -2.160  -0.701  0.00  0.00     0.169 A 
ATOM      9  N3  <0> d           0.079  -2.114   0.659  0.00  0.00    -0.213 N 
ATOM     10  N4  <0> d           0.097  -0.770   1.052  0.00  0.00    -0.170 NA
ATOM     11  C13 <0> d          -0.283  -4.007  -3.864  0.00  0.00     0.093 C 
ENDROOT
BRANCH   4  12
ATOM     12  N5  <0> d          -0.286   0.705  -3.017  0.00  0.00    -0.369 N 
ATOM     13  H11 <0> d          -0.168   1.459  -2.417  0.00  0.00     0.161 HD
BRANCH  12  14
ATOM     14  C14 <0> d          -0.531   0.934  -4.443  0.00  0.00     0.083 C 
ATOM     15  C19 <0> d          -1.160   2.315  -4.636  0.00  0.00     0.027 C 
ATOM     16  C18 <0> d          -0.209   3.389  -4.104  0.00  0.00     0.027 C 
ATOM     17  C17 <0> d           1.116   3.320  -4.866  0.00  0.00     0.084 C 
ATOM     18  C16 <0> d           1.745   1.939  -4.673  0.00  0.00     0.027 C 
ATOM     19  C15 <0> d           0.794   0.866  -5.205  0.00  0.00     0.027 C 
BRANCH  17  20
ATOM     20  N6  <0> d           2.027   4.348  -4.356  0.00  0.00    -0.356 N 
ATOM     21  C20 <0> d           1.963   5.604  -4.838  0.00  0.00     0.222 C 
ATOM     22  O1  <0> d           1.151   5.885  -5.695  0.00  0.00    -0.273 OA
ATOM     23  H22 <0> d           2.676   4.123  -3.671  0.00  0.00     0.162 HD
BRANCH  21  24
ATOM     24  C21 <0> d           2.900   6.662  -4.314  0.00  0.00     0.078 C 
ATOM     25  C24 <0> d           2.700   8.040  -4.965  0.00  0.00     0.014 C 
ATOM     26  C23 <0> d           2.919   8.644  -3.568  0.00  0.00     0.002 C 
ATOM     27  C22 <0> d           2.431   7.302  -2.997  0.00  0.00     0.014 C 
ENDBRANCH  21  24
ENDBRANCH  17  20
ENDBRANCH  12  14
ENDBRANCH   4  12
BRANCH   9  28
ATOM     28  C7  <0> d           0.170  -3.221   1.514  0.00  0.00     0.082 A 
ATOM     29  C12 <0> d           0.286  -3.034   2.885  0.00  0.00     0.062 A 
ATOM     30  C11 <0> d           0.370  -4.128   3.726  0.00  0.00     0.026 A 
ATOM     31 Cl1  <0> d           0.319  -1.428   3.544  0.00  0.00    -0.082 Cl
ATOM     32  C10 <0> d           0.350  -5.407   3.201  0.00  0.00     0.002 A 
ATOM     33  C9  <0> d           0.240  -5.596   1.835  0.00  0.00     0.002 A 
ATOM     34  C8  <0> d           0.150  -4.507   0.991  0.00  0.00     0.033 A 
ENDBRANCH   9  28
TORSDOF 5
