REMARK  10 active torsions:
REMARK  status: ('A' for Active; 'I' for Inactive)
REMARK    1  A    between atoms: C5_5  and  C8_8 
REMARK    2  A    between atoms: C8_8  and  C9_9 
REMARK    3  A    between atoms: C8_8  and  O1_15 
REMARK    4  A    between atoms: O1_15  and  C15_16 
REMARK    5  A    between atoms: C15_16  and  C16_17 
REMARK    6  A    between atoms: C16_17  and  C17_18 
REMARK    7  A    between atoms: C16_17  and  O3_25 
REMARK    8  A    between atoms: C17_18  and  N1_19 
REMARK    9  A    between atoms: N1_19  and  C19_21 
REMARK   10  A    between atoms: C19_21  and  C20_22 
REMARK       I    between atoms: C20_22  and  N2_24 
ROOT
ATOM      1  O1  <0> d           0.521  -4.985   1.250  0.00  0.00    -0.374 OA
ENDROOT
BRANCH   1   2
ATOM      2  C8  <0> d          -0.340  -4.560   0.192  0.00  0.00     0.187 C 
BRANCH   2   3
ATOM      3  C5  <0> d          -0.503  -3.063   0.247  0.00  0.00    -0.025 A 
ATOM      4  C4  <0> d          -0.623  -2.337  -0.923  0.00  0.00     0.010 A 
ATOM      5  C3  <0> d          -0.774  -0.964  -0.873  0.00  0.00     0.007 A 
ATOM      6  C2  <0> d          -0.804  -0.317   0.348  0.00  0.00    -0.062 A 
ATOM      7  C1  <0> d          -0.968   1.180   0.404  0.00  0.00     0.048 C 
ATOM      8  C7  <0> d          -0.679  -1.042   1.519  0.00  0.00     0.007 A 
ATOM      9  C6  <0> d          -0.532  -2.416   1.468  0.00  0.00     0.010 A 
ENDBRANCH   2   3
BRANCH   2  10
ATOM     10  C9  <0> d          -1.687  -5.218   0.346  0.00  0.00    -0.025 A 
ATOM     11  C14 <0> d          -2.362  -5.680  -0.769  0.00  0.00     0.010 A 
ATOM     12  C13 <0> d          -3.595  -6.287  -0.627  0.00  0.00     0.001 A 
ATOM     13  C12 <0> d          -4.158  -6.425   0.628  0.00  0.00     0.000 A 
ATOM     14  C11 <0> d          -3.485  -5.959   1.742  0.00  0.00     0.001 A 
ATOM     15  C10 <0> d          -2.250  -5.355   1.601  0.00  0.00     0.010 A 
ENDBRANCH   2  10
ENDBRANCH   1   2
BRANCH   1  16
ATOM     16  C15 <0> d           1.278  -6.159   0.948  0.00  0.00     0.202 C 
BRANCH  16  17
ATOM     17  C16 <0> d           2.159  -6.520   2.146  0.00  0.00     0.167 C 
BRANCH  17  18
ATOM     18  C17 <0> d           3.059  -7.702   1.779  0.00  0.00     0.268 C 
BRANCH  18  19
ATOM     19  N1  <0> d           3.958  -8.000   2.902  0.00  0.00    -0.064 N 
ATOM     20  C18 <0> d           4.718  -9.222   2.609  0.00  0.00     0.270 C 
ATOM     21  H27 <0> d           3.414  -8.135   3.741  0.00  0.00     0.280 HD
BRANCH  19  22
ATOM     22  C19 <0> d           4.887  -6.880   3.096  0.00  0.00     0.336 C 
BRANCH  22  23
ATOM     23  C20 <0> d           5.727  -7.130   4.323  0.00  0.00     0.241 C 
ATOM     24  O2  <0> d           5.566  -8.142   4.971  0.00  0.00    -0.272 OA
ATOM     25  N2  <0> d           6.656  -6.229   4.699  0.00  0.00    -0.369 N 
ATOM     26  H24 <0> d           6.784  -5.420   4.181  0.00  0.00     0.159 HD
ATOM     27  H25 <0> d           7.196  -6.391   5.489  0.00  0.00     0.159 HD
ENDBRANCH  22  23
ENDBRANCH  19  22
ENDBRANCH  18  19
ENDBRANCH  17  18
BRANCH  17  28
ATOM     28  O3  <0> d           1.333  -6.877   3.255  0.00  0.00    -0.392 OA
ATOM     29  H26 <0> d           0.755  -7.634   3.088  0.00  0.00     0.210 HD
ENDBRANCH  17  28
ENDBRANCH  16  17
ENDBRANCH   1  16
TORSDOF 10
