REMARK  5 active torsions:
REMARK  status: ('A' for Active; 'I' for Inactive)
REMARK    1  A    between atoms: N1_5  and  C5_8 
REMARK    2  A    between atoms: C5_8  and  C6_9 
REMARK    3  A    between atoms: C6_9  and  S1_10 
REMARK    4  A    between atoms: S1_10  and  C7_11 
REMARK    5  A    between atoms: C8_14  and  C9_16 
ROOT
ATOM      1  C7  <0> d           2.350  -4.541   3.157  0.00  0.00     0.311 A 
ATOM      2  N2  <0> d           1.076  -4.273   3.846  0.00  0.00    -0.273 N 
ATOM      3  N3  <0> d           1.375  -3.315   4.826  0.00  0.00    -0.149 NA
ATOM      4  C8  <0> d           2.636  -3.007   4.784  0.00  0.00     0.211 A 
ATOM      5  O3  <0> d           3.300  -3.693   3.817  0.00  0.00    -0.295 OA
ATOM      6  H10 <0> d           0.213  -4.675   3.662  0.00  0.00     0.186 HD
ENDROOT
BRANCH   1   7
ATOM      7  S1  <0> d           2.224  -4.106   1.400  0.00  0.00    -0.113 SA
BRANCH   7   8
ATOM      8  C6  <0> d           1.775  -2.349   1.415  0.00  0.00     0.098 C 
BRANCH   8   9
ATOM      9  C5  <0> d           1.635  -1.847  -0.024  0.00  0.00     0.145 C 
BRANCH   9  10
ATOM     10  N1  <0> d           1.272  -0.427  -0.012  0.00  0.00    -0.288 N 
ATOM     11  C3  <0> d           2.183   0.553  -0.016  0.00  0.00     0.226 A 
ATOM     12  C2  <0> d           1.476   1.891  -0.002  0.00  0.00     0.112 A 
ATOM     13  O1  <0> d           3.385   0.395  -0.028  0.00  0.00    -0.273 OA
ATOM     14  C1  <0> d          -0.018   1.509   0.010  0.00  0.00     0.112 A 
ATOM     15  C4  <0> d           0.002  -0.004   0.002  0.00  0.00     0.226 A 
ATOM     16  O2  <0> d          -0.977  -0.720   0.008  0.00  0.00    -0.273 OA
ENDBRANCH   9  10
ENDBRANCH   8   9
ENDBRANCH   7   8
ENDBRANCH   1   7
BRANCH   4  17
ATOM     17  C9  <0> d           3.249  -2.066   5.647  0.00  0.00     0.092 A 
ATOM     18  C12 <0> d           2.579  -1.265   6.747  0.00  0.00     0.092 A 
ATOM     19  C11 <0> d           3.724  -0.447   7.315  0.00  0.00    -0.001 A 
ATOM     20  C10 <0> d           4.792  -0.788   6.595  0.00  0.00     0.113 A 
ATOM     21  N4  <0> d           4.507  -1.707   5.654  0.00  0.00    -0.261 NA
ENDBRANCH   4  17
TORSDOF 5
