REMARK  3 active torsions:
REMARK  status: ('A' for Active; 'I' for Inactive)
REMARK    1  A    between atoms: C3_3  and  C10_16 
REMARK    2  A    between atoms: N3_6  and  C4_7 
REMARK    3  A    between atoms: C10_16  and  N4_18 
ROOT
ATOM      1  C1  <0> d          -0.018   1.503   0.010  0.00  0.00     0.073 C 
ATOM      2  C2  <0> d           0.002  -0.004   0.002  0.00  0.00     0.063 A 
ATOM      3  C3  <0> d           0.008  -0.812  -1.084  0.00  0.00     0.112 A 
ATOM      4  N1  <0> d           0.028  -2.068  -0.624  0.00  0.00    -0.132 NA
ATOM      5  N2  <0> d           0.034  -2.044   0.662  0.00  0.00    -0.060 NA
ATOM      6  N3  <0> d           0.024  -0.828   1.085  0.00  0.00    -0.218 N 
ENDROOT
BRANCH   6   7
ATOM      7  C4  <0> d           0.031  -0.423   2.428  0.00  0.00     0.066 A 
ATOM      8  C9  <0> d          -0.638  -1.175   3.384  0.00  0.00     0.077 A 
ATOM      9  C8  <0> d          -0.626  -0.778   4.709  0.00  0.00     0.160 A 
ATOM     10  C7  <0> d           0.045   0.377   5.080  0.00  0.00     0.193 A 
ATOM     11  F1  <0> d          -1.273  -1.512   5.640  0.00  0.00    -0.203 F 
ATOM     12  C6  <0> d           0.710   1.131   4.126  0.00  0.00     0.160 A 
ATOM     13  F2  <0> d           0.052   0.767   6.374  0.00  0.00    -0.200 F 
ATOM     14  C5  <0> d           0.704   0.732   2.801  0.00  0.00     0.077 A 
ATOM     15  F3  <0> d           1.365   2.255   4.489  0.00  0.00    -0.203 F 
ENDBRANCH   6   7
BRANCH   3  16
ATOM     16  C10 <0> d          -0.005  -0.382  -2.528  0.00  0.00     0.235 C 
ATOM     17  C11 <0> d           1.389  -0.574  -3.130  0.00  0.00     0.046 C 
BRANCH  16  18
ATOM     18  N4  <0> d          -0.976  -1.194  -3.272  0.00  0.00    -0.070 N 
ATOM     19  H10 <0> d          -1.895  -1.067  -2.875  0.00  0.00     0.275 HD
ATOM     20  H11 <0> d          -0.985  -0.906  -4.239  0.00  0.00     0.275 HD
ATOM     21  H12 <0> d          -0.716  -2.167  -3.214  0.00  0.00     0.275 HD
ENDBRANCH  16  18
ENDBRANCH   3  16
TORSDOF 3
