REMARK  4 active torsions:
REMARK  status: ('A' for Active; 'I' for Inactive)
REMARK    1  A    between atoms: C4_6  and  C5_7 
REMARK    2  A    between atoms: N2_9  and  C13_16 
REMARK    3  A    between atoms: C13_16  and  C14_17 
REMARK    4  A    between atoms: C17_20  and  C18_22 
ROOT
ATOM      1  C5  <0> d           2.504  -0.048   0.072  0.00  0.00    -0.007 A 
ATOM      2  C6  <0> d           1.415  -0.902   0.083  0.00  0.00     0.104 A 
ATOM      3  N2  <0> d           1.841  -2.174   0.176  0.00  0.00    -0.349 N 
ATOM      4  C7  <0> d           3.220  -2.227   0.230  0.00  0.00     0.045 A 
ATOM      5  C8  <0> d           3.700  -0.910   0.162  0.00  0.00     0.002 A 
ATOM      6  C9  <0> d           5.069  -0.663   0.191  0.00  0.00     0.014 A 
ATOM      7  C10 <0> d           5.952  -1.718   0.282  0.00  0.00     0.001 A 
ATOM      8  C11 <0> d           5.480  -3.020   0.346  0.00  0.00     0.002 A 
ATOM      9  C12 <0> d           4.125  -3.278   0.327  0.00  0.00     0.030 A 
ENDROOT
BRANCH   1  10
ATOM     10  C4  <0> d           2.478   1.359  -0.014  0.00  0.00     0.036 C 
ATOM     11  C3  <0> d           1.652   1.982  -0.939  0.00  0.00     0.101 A 
ATOM     12  C2  <0> d           0.941   1.214  -1.976  0.00  0.00     0.265 A 
ATOM     13  C19 <0> d           1.449   3.442  -0.928  0.00  0.00     0.263 A 
ATOM     14  N1  <0> d           0.159   1.887  -2.845  0.00  0.00    -0.294 N 
ATOM     15  O1  <0> d           1.059   0.005  -2.049  0.00  0.00    -0.267 OA
ATOM     16  C1  <0> d          -0.554   1.146  -3.889  0.00  0.00     0.162 C 
ATOM     17  C20 <0> d           0.015   3.218  -2.773  0.00  0.00     0.183 A 
ATOM     18  N3  <0> d           0.632   3.979  -1.857  0.00  0.00    -0.299 N 
ATOM     19  S1  <0> d          -1.004   3.986  -3.913  0.00  0.00    -0.040 SA
ATOM     20  H14 <0> d           0.487   4.938  -1.864  0.00  0.00     0.171 HD
ATOM     21  O4  <0> d           2.003   4.144  -0.103  0.00  0.00    -0.267 OA
ENDBRANCH   1  10
BRANCH   3  22
ATOM     22  C13 <0> d           0.962  -3.346   0.213  0.00  0.00     0.193 C 
BRANCH  22  23
ATOM     23  C14 <0> d           0.706  -3.737   1.646  0.00  0.00     0.072 A 
ATOM     24  O2  <0> d           1.441  -4.597   2.362  0.00  0.00    -0.306 OA
ATOM     25  C17 <0> d           0.923  -4.703   3.604  0.00  0.00     0.152 A 
ATOM     26  C16 <0> d          -0.175  -3.893   3.673  0.00  0.00     0.047 A 
ATOM     27  C15 <0> d          -0.305  -3.281   2.418  0.00  0.00     0.037 A 
BRANCH  25  28
ATOM     28  C18 <0> d           1.444  -5.542   4.685  0.00  0.00     0.234 C 
ATOM     29  O3  <0> d           0.886  -5.558   5.765  0.00  0.00    -0.642 OA
ATOM     30  O5  <0> d           2.543  -6.297   4.483  0.00  0.00    -0.642 OA
ENDBRANCH  25  28
ENDBRANCH  22  23
ENDBRANCH   3  22
TORSDOF 4
