REMARK  3 active torsions:
REMARK  status: ('A' for Active; 'I' for Inactive)
REMARK    1  A    between atoms: C5_5  and  N1_8 
REMARK       I    between atoms: N1_8  and  C8_9 
REMARK    2  A    between atoms: C8_9  and  C9_11 
REMARK    3  A    between atoms: C9_11  and  C10_12 
ROOT
ATOM      1  N1  <0> d          -2.668   2.917   4.675  0.00  0.00    -0.327 N 
ATOM      2  C8  <0> d          -3.980   3.221   4.628  0.00  0.00     0.223 C 
ATOM      3  O1  <0> d          -4.614   3.017   3.615  0.00  0.00    -0.273 OA
ATOM      4  H9  <0> d          -2.178   3.008   5.507  0.00  0.00     0.169 HD
ENDROOT
BRANCH   2   5
ATOM      5  C9  <0> d          -4.660   3.813   5.836  0.00  0.00     0.128 C 
BRANCH   5   6
ATOM      6  C10 <0> d          -6.136   4.061   5.520  0.00  0.00     0.158 A 
ATOM      7  S1  <0> d          -6.347   5.516   4.420  0.00  0.00    -0.075 SA
ATOM      8  C12 <0> d          -7.298   6.519   5.540  0.00  0.00     0.194 A 
ATOM      9  N2  <0> d          -7.431   5.768   6.673  0.00  0.00    -0.174 N 
ATOM     10  N3  <0> d          -7.903   7.664   5.699  0.00  0.00    -0.214 NA
ATOM     11  C11 <0> d          -6.888   4.544   6.745  0.00  0.00     0.261 A 
ATOM     12  N4  <0> d          -8.194   6.597   7.545  0.00  0.00    -0.156 NA
ATOM     13  O2  <0> d          -6.992   3.860   7.736  0.00  0.00    -0.270 OA
ATOM     14  C13 <0> d          -8.446   7.709   6.918  0.00  0.00     0.258 A 
ENDBRANCH   5   6
ENDBRANCH   2   5
BRANCH   1  15
ATOM     15  C5  <0> d          -2.012   2.471   3.522  0.00  0.00     0.034 A 
ATOM     16  C4  <0> d          -0.977   1.550   3.623  0.00  0.00     0.030 A 
ATOM     17  C3  <0> d          -0.335   1.107   2.483  0.00  0.00     0.009 A 
ATOM     18  C2  <0> d          -0.714   1.589   1.244  0.00  0.00    -0.062 A 
ATOM     19  C1  <0> d          -0.007   1.108   0.002  0.00  0.00     0.048 C 
ATOM     20  C7  <0> d          -1.743   2.506   1.140  0.00  0.00     0.009 A 
ATOM     21  C6  <0> d          -2.393   2.948   2.276  0.00  0.00     0.030 A 
ENDBRANCH   1  15
TORSDOF 3
