REMARK  6 active torsions:
REMARK  status: ('A' for Active; 'I' for Inactive)
REMARK    1  A    between atoms: C6_6  and  S1_8 
REMARK    2  A    between atoms: S1_8  and  N1_11 
REMARK    3  A    between atoms: N1_11  and  C8_12 
REMARK    4  A    between atoms: C8_12  and  C9_13 
REMARK    5  A    between atoms: C9_13  and  N2_14 
REMARK       I    between atoms: N2_14  and  C10_15 
REMARK    6  A    between atoms: C10_15  and  C11_17 
ROOT
ATOM      1  N1  <0> d           3.780   1.585  -0.071  0.00  0.00    -0.314 N 
ATOM      2  H7  <0> d           3.900   2.619  -0.426  0.00  0.00     0.172 HD
ENDROOT
BRANCH   1   3
ATOM      3  S1  <0> d           5.109   0.750   0.455  0.00  0.00     0.259 S 
ATOM      4  O1  <0> d           6.182   1.681   0.498  0.00  0.00    -0.201 OA
ATOM      5  O2  <0> d           4.698   0.008   1.595  0.00  0.00    -0.201 OA
BRANCH   3   6
ATOM      6  C6  <0> d           5.513  -0.426  -0.793  0.00  0.00     0.086 A 
ATOM      7  C5  <0> d           5.933   0.003  -2.038  0.00  0.00    -0.039 A 
ATOM      8  C4  <0> d           6.250  -0.920  -3.017  0.00  0.00     0.009 A 
ATOM      9  C17 <0> d           6.045   1.478  -2.328  0.00  0.00     0.050 C 
ATOM     10  C3  <0> d           6.148  -2.272  -2.751  0.00  0.00     0.007 A 
ATOM     11  C2  <0> d           5.729  -2.702  -1.505  0.00  0.00    -0.060 A 
ATOM     12  C1  <0> d           5.618  -4.177  -1.215  0.00  0.00     0.048 C 
ATOM     13  C7  <0> d           5.416  -1.779  -0.525  0.00  0.00     0.032 A 
ENDBRANCH   3   6
ENDBRANCH   1   3
BRANCH   1  14
ATOM     14  C8  <0> d           2.506   0.887  -0.266  0.00  0.00     0.152 C 
BRANCH  14  15
ATOM     15  C9  <0> d           1.374   1.911  -0.369  0.00  0.00     0.143 C 
BRANCH  15  16
ATOM     16  N2  <0> d           0.101   1.213  -0.564  0.00  0.00    -0.355 N 
ATOM     17  C10 <0> d          -1.042   1.917  -0.688  0.00  0.00     0.253 C 
ATOM     18  O3  <0> d          -1.016   3.131  -0.632  0.00  0.00    -0.268 OA
ATOM     19  H12 <0> d           0.077   0.114  -0.610  0.00  0.00     0.162 HD
BRANCH  17  20
ATOM     20  C11 <0> d          -2.326   1.213  -0.890  0.00  0.00     0.049 A 
ATOM     21  C15 <0> d          -2.367  -0.180  -0.962  0.00  0.00     0.134 A 
ATOM     22  N3  <0> d          -3.512  -0.808  -1.137  0.00  0.00    -0.265 NA
ATOM     23  C14 <0> d          -4.652  -0.156  -1.263  0.00  0.00     0.030 A 
ATOM     24  C13 <0> d          -4.694   1.226  -1.209  0.00  0.00     0.028 A 
ATOM     25  C16 <0> d          -5.929  -0.929  -1.469  0.00  0.00     0.070 C 
ATOM     26  C12 <0> d          -3.520   1.933  -1.020  0.00  0.00     0.020 A 
ENDBRANCH  17  20
ENDBRANCH  15  16
ENDBRANCH  14  15
ENDBRANCH   1  14
TORSDOF 6
