REMARK  6 active torsions:
REMARK  status: ('A' for Active; 'I' for Inactive)
REMARK    1  A    between atoms: C2_2  and  O2_4 
REMARK    2  A    between atoms: O2_4  and  C3_5 
REMARK    3  A    between atoms: C8_10  and  C9_11 
REMARK       I    between atoms: C9_11  and  N1_13 
REMARK    4  A    between atoms: C11_15  and  C18_23 
REMARK       I    between atoms: C18_23  and  N3_25 
REMARK    5  A    between atoms: N3_25  and  C19_26 
REMARK    6  A    between atoms: C19_26  and  C20_27 
ROOT
ATOM      1  C9  <0> d           0.144  -2.200  -3.465  0.00  0.00     0.256 C 
ATOM      2  O3  <0> d           0.216  -0.989  -3.558  0.00  0.00    -0.267 OA
ATOM      3  N1  <0> d           0.115  -2.960  -4.578  0.00  0.00    -0.346 N 
ATOM      4  C10 <0> d           0.091  -4.439  -4.666  0.00  0.00     0.141 C 
ATOM      5  C11 <0> d          -0.879  -4.745  -5.829  0.00  0.00     0.106 C 
ATOM      6  C12 <0> d          -0.868  -3.474  -6.694  0.00  0.00    -0.007 C 
ATOM      7  C13 <0> d           0.093  -2.506  -5.989  0.00  0.00     0.136 C 
ATOM      8  C14 <0> d          -0.361  -3.794  -8.097  0.00  0.00     0.039 C 
ATOM      9  C15 <0> d          -0.414  -2.527  -8.956  0.00  0.00     0.233 C 
ATOM     10  N2  <0> d          -1.794  -2.030  -9.014  0.00  0.00    -0.075 N 
ATOM     11  C16 <0> d          -2.241  -1.637  -7.672  0.00  0.00     0.233 C 
ATOM     12  C17 <0> d          -2.266  -2.867  -6.760  0.00  0.00     0.039 C 
ATOM     13  H17 <0> d          -1.836  -1.231  -9.629  0.00  0.00     0.277 HD
ATOM     14  H28 <0> d          -2.397  -2.757  -9.369  0.00  0.00     0.277 HD
ENDROOT
BRANCH   1  15
ATOM     15  C8  <0> d           0.088  -2.836  -2.135  0.00  0.00     0.066 A 
ATOM     16  C3  <0> d          -0.606  -2.217  -1.087  0.00  0.00     0.094 A 
ATOM     17  C4  <0> d          -0.658  -2.826   0.158  0.00  0.00     0.038 A 
ATOM     18  C5  <0> d          -0.022  -4.035   0.363  0.00  0.00     0.003 A 
ATOM     19  C6  <0> d           0.670  -4.647  -0.669  0.00  0.00     0.001 A 
ATOM     20  C7  <0> d           0.731  -4.055  -1.912  0.00  0.00     0.020 A 
BRANCH  16  21
ATOM     21  O2  <0> d          -1.230  -1.029  -1.290  0.00  0.00    -0.278 OA
BRANCH  21  22
ATOM     22  C2  <0> d          -2.495  -1.050  -1.742  0.00  0.00     0.260 C 
ATOM     23  C1  <0> d          -3.269   0.236  -1.876  0.00  0.00     0.126 C 
ATOM     24  O1  <0> d          -3.013  -2.101  -2.040  0.00  0.00    -0.265 OA
ENDBRANCH  21  22
ENDBRANCH  16  21
ENDBRANCH   1  15
BRANCH   5  25
ATOM     25  C18 <0> d          -0.389  -5.928  -6.624  0.00  0.00     0.224 C 
ATOM     26  O4  <0> d           0.791  -6.206  -6.632  0.00  0.00    -0.273 OA
ATOM     27  N3  <0> d          -1.263  -6.677  -7.325  0.00  0.00    -0.355 N 
ATOM     28  H22 <0> d          -2.207  -6.455  -7.318  0.00  0.00     0.162 HD
BRANCH  27  29
ATOM     29  C19 <0> d          -0.786  -7.827  -8.098  0.00  0.00     0.187 C 
BRANCH  29  30
ATOM     30  C20 <0> d          -1.953  -8.490  -8.784  0.00  0.00     0.070 A 
ATOM     31  O5  <0> d          -2.706  -9.478  -8.274  0.00  0.00    -0.325 OA
ATOM     32  C23 <0> d          -3.657  -9.819  -9.160  0.00  0.00     0.142 A 
ATOM     33  C22 <0> d          -3.512  -9.052 -10.255  0.00  0.00     0.027 A 
ATOM     34  C21 <0> d          -2.414  -8.195 -10.013  0.00  0.00     0.036 A 
ENDBRANCH  29  30
ENDBRANCH  27  29
ENDBRANCH   5  25
TORSDOF 6
