REMARK  5 active torsions:
REMARK  status: ('A' for Active; 'I' for Inactive)
REMARK    1  A    between atoms: C6_8  and  C10_13 
REMARK       I    between atoms: C10_13  and  N2_15 
REMARK    2  A    between atoms: N2_15  and  C11_16 
REMARK    3  A    between atoms: C11_16  and  C12_17 
REMARK    4  A    between atoms: C12_17  and  C14_19 
REMARK    5  A    between atoms: C14_19  and  N3_20 
ROOT
ATOM      1  C10 <0> d           6.646   0.467  -0.050  0.00  0.00     0.251 C 
ATOM      2  O2  <0> d           6.956   0.628  -1.214  0.00  0.00    -0.268 OA
ATOM      3  N2  <0> d           7.568   0.624   0.921  0.00  0.00    -0.356 N 
ATOM      4  H10 <0> d           7.320   0.495   1.850  0.00  0.00     0.162 HD
ENDROOT
BRANCH   1   5
ATOM      5  C6  <0> d           5.261   0.101   0.301  0.00  0.00     0.034 A 
ATOM      6  C5  <0> d           4.307  -0.060  -0.706  0.00  0.00     0.048 A 
ATOM      7  C4  <0> d           3.005  -0.404  -0.382  0.00  0.00     0.052 A 
ATOM      8  N1  <0> d           2.067  -0.565  -1.399  0.00  0.00    -0.325 N 
ATOM      9  C9  <0> d           2.662  -0.582   0.963  0.00  0.00     0.028 A 
ATOM     10  C3  <0> d           0.745  -0.492  -1.271  0.00  0.00     0.236 C 
ATOM     11  H6  <0> d           2.411  -0.749  -2.288  0.00  0.00     0.169 HD
ATOM     12  C2  <0> d           0.049  -0.227   0.036  0.00  0.00     0.141 C 
ATOM     13  O1  <0> d           0.064  -0.646  -2.262  0.00  0.00    -0.272 OA
ATOM     14  C1  <0> d          -0.032   1.282   0.278  0.00  0.00     0.031 C 
ATOM     15  S1  <0> d           0.996  -1.009   1.377  0.00  0.00    -0.114 SA
ATOM     16  C8  <0> d           3.611  -0.424   1.964  0.00  0.00     0.022 A 
ATOM     17  C7  <0> d           4.906  -0.084   1.640  0.00  0.00     0.018 A 
ENDBRANCH   1   5
BRANCH   3  18
ATOM     18  C11 <0> d           8.944   0.987   0.573  0.00  0.00     0.128 C 
BRANCH  18  19
ATOM     19  C12 <0> d           9.780   1.100   1.849  0.00  0.00     0.025 C 
ATOM     20  C13 <0> d           9.258   2.259   2.700  0.00  0.00     0.013 C 
BRANCH  19  21
ATOM     21  C14 <0> d          11.242   1.357   1.480  0.00  0.00     0.240 C 
BRANCH  21  22
ATOM     22  N3  <0> d          12.063   1.349   2.698  0.00  0.00    -0.071 N 
ATOM     23  C19 <0> d          12.062   0.001   3.279  0.00  0.00     0.235 C 
ATOM     24  C18 <0> d          12.849   0.006   4.591  0.00  0.00     0.028 C 
ATOM     25  C17 <0> d          14.291   0.443   4.314  0.00  0.00     0.003 C 
ATOM     26  C16 <0> d          14.276   1.818   3.641  0.00  0.00     0.028 C 
ATOM     27  C15 <0> d          13.436   1.746   2.364  0.00  0.00     0.235 C 
ATOM     28  H28 <0> d          11.680   2.002   3.365  0.00  0.00     0.279 HD
ENDBRANCH  21  22
ENDBRANCH  19  21
ENDBRANCH  18  19
ENDBRANCH   3  18
TORSDOF 5
