REMARK  4 active torsions:
REMARK  status: ('A' for Active; 'I' for Inactive)
REMARK    1  A    between atoms: N1_4  and  C5_6 
REMARK    2  A    between atoms: C6_7  and  N6_15 
REMARK    3  A    between atoms: C11_18  and  N7_28 
REMARK    4  A    between atoms: C17_24  and  O2_26 
ROOT
ATOM      1  N6  <0> d          -2.777   3.488  -4.886  0.00  0.00    -0.265 NA
ATOM      2  C9  <0> d          -1.311   3.534  -4.813  0.00  0.00     0.099 C 
ATOM      3  C10 <0> d          -0.861   3.233  -3.381  0.00  0.00     0.048 C 
ATOM      4  C11 <0> d          -1.471   4.267  -2.432  0.00  0.00     0.190 C 
ATOM      5  C12 <0> d          -2.996   4.232  -2.563  0.00  0.00     0.048 C 
ATOM      6  C13 <0> d          -3.384   4.504  -4.018  0.00  0.00     0.099 C 
ENDROOT
BRANCH   1   7
ATOM      7  C6  <0> d          -3.211   3.626  -6.190  0.00  0.00     0.148 A 
ATOM      8  C5  <0> d          -4.385   2.872  -6.649  0.00  0.00     0.148 A 
ATOM      9  N3  <0> d          -4.816   2.989  -7.886  0.00  0.00    -0.208 NA
ATOM     10  C8  <0> d          -4.177   3.805  -8.735  0.00  0.00     0.231 A 
ATOM     11  C7  <0> d          -2.993   4.566  -8.272  0.00  0.00     0.231 A 
ATOM     12  N4  <0> d          -4.290   4.178  -9.987  0.00  0.00    -0.081 NA
ATOM     13  N2  <0> d          -2.573   4.437  -7.006  0.00  0.00    -0.208 NA
ATOM     14  N5  <0> d          -2.643   5.237  -9.343  0.00  0.00    -0.081 NA
ATOM     15  O1  <0> d          -3.407   4.969 -10.247  0.00  0.00    -0.103 OA
BRANCH   8  16
ATOM     16  N1  <0> d          -5.042   2.031  -5.772  0.00  0.00    -0.265 NA
ATOM     17  C3  <0> d          -4.186   0.885  -5.395  0.00  0.00     0.097 C 
ATOM     18  C2  <0> d          -5.114  -0.330  -5.210  0.00  0.00     0.016 C 
ATOM     19  C1  <0> d          -6.532   0.192  -5.535  0.00  0.00     0.016 C 
ATOM     20  C4  <0> d          -6.250   1.443  -6.405  0.00  0.00     0.097 C 
ENDBRANCH   8  16
ENDBRANCH   1   7
BRANCH   4  21
ATOM     21  N7  <0> d          -1.060   3.949  -1.049  0.00  0.00    -0.064 N 
ATOM     22  C14 <0> d          -1.592   2.626  -0.656  0.00  0.00     0.235 C 
ATOM     23  C15 <0> d          -1.056   2.267   0.732  0.00  0.00     0.030 C 
ATOM     24  C16 <0> d          -1.511   3.326   1.740  0.00  0.00     0.035 C 
ATOM     25  C17 <0> d          -1.017   4.701   1.281  0.00  0.00     0.144 C 
ATOM     26  C18 <0> d          -1.554   4.990  -0.122  0.00  0.00     0.266 C 
ATOM     27  H28 <0> d          -0.035   3.922  -1.003  0.00  0.00     0.280 HD
BRANCH  25  28
ATOM     28  O2  <0> d          -1.485   5.703   2.186  0.00  0.00    -0.394 OA
ATOM     29  H27 <0> d          -1.182   5.583   3.097  0.00  0.00     0.210 HD
ENDBRANCH  25  28
ENDBRANCH   4  21
TORSDOF 4
