REMARK  4 active torsions:
REMARK  status: ('A' for Active; 'I' for Inactive)
REMARK    1  A    between atoms: N1_6  and  C7_10 
REMARK    2  A    between atoms: C9_12  and  C13_17 
REMARK    3  A    between atoms: C14_18  and  C15_19 
REMARK    4  A    between atoms: C15_19  and  N2_20 
ROOT
ATOM      1  C7  <0> d           1.028  -4.048  -0.022  0.00  0.00     0.068 A 
ATOM      2  C8  <0> d           2.281  -4.638  -0.021  0.00  0.00     0.052 A 
ATOM      3  C9  <0> d           2.394  -6.028  -0.029  0.00  0.00     0.020 A 
ATOM      4  C10 <0> d           1.242  -6.817  -0.037  0.00  0.00     0.022 A 
ATOM      5  C11 <0> d          -0.002  -6.221  -0.038  0.00  0.00     0.028 A 
ATOM      6  C12 <0> d          -0.114  -4.842  -0.024  0.00  0.00     0.061 A 
ATOM      7 Cl1  <0> d          -1.683  -4.101  -0.017  0.00  0.00    -0.082 Cl
ENDROOT
BRANCH   1   8
ATOM      8  N1  <0> d           0.910  -2.651  -0.014  0.00  0.00    -0.251 N 
ATOM      9  C4  <0> d           0.854  -2.002  -1.187  0.00  0.00     0.232 C 
ATOM     10  C3  <0> d           0.739  -0.502  -1.246  0.00  0.00     0.113 C 
ATOM     11  O1  <0> d           0.897  -2.636  -2.219  0.00  0.00    -0.273 OA
ATOM     12  C2  <0> d           0.002  -0.004   0.002  0.00  0.00    -0.031 C 
ATOM     13  C1  <0> d          -0.019   1.526   0.010  0.00  0.00     0.016 C 
ATOM     14  C6  <0> d           0.743  -0.515   1.242  0.00  0.00     0.113 C 
ATOM     15  C16 <0> d          -1.432  -0.537   0.004  0.00  0.00     0.016 C 
ATOM     16  C5  <0> d           0.857  -2.015   1.166  0.00  0.00     0.232 C 
ATOM     17  O2  <0> d           0.903  -2.660   2.192  0.00  0.00    -0.273 OA
ENDBRANCH   1   8
BRANCH   3  18
ATOM     18  C13 <0> d           3.687  -6.644  -0.029  0.00  0.00    -0.065 C 
ATOM     19  C14 <0> d           4.746  -7.149  -0.029  0.00  0.00    -0.074 C 
BRANCH  19  20
ATOM     20  C15 <0> d           6.075  -7.782  -0.029  0.00  0.00     0.323 C 
BRANCH  20  21
ATOM     21  N2  <0> d           5.921  -9.243  -0.038  0.00  0.00    -0.069 N 
ATOM     22  H13 <0> d           5.411  -9.532   0.782  0.00  0.00     0.275 HD
ATOM     23  H14 <0> d           5.415  -9.523  -0.865  0.00  0.00     0.275 HD
ATOM     24  H18 <0> d           6.832  -9.677  -0.038  0.00  0.00     0.275 HD
ENDBRANCH  20  21
ENDBRANCH  19  20
ENDBRANCH   3  18
TORSDOF 4
