REMARK  5 active torsions:
REMARK  status: ('A' for Active; 'I' for Inactive)
REMARK    1  A    between atoms: C3_3  and  S1_7 
REMARK    2  A    between atoms: S1_7  and  N2_10 
REMARK    3  A    between atoms: N3_13  and  C10_16 
REMARK    4  A    between atoms: C10_16  and  C11_17 
REMARK    5  A    between atoms: C11_17  and  O3_23 
ROOT
ATOM      1  N2  <0> d           4.352   1.678   2.027  0.00  0.00    -0.303 N 
ATOM      2  C6  <0> d           3.938   3.017   2.472  0.00  0.00     0.165 C 
ATOM      3  C7  <0> d           5.183   3.789   2.921  0.00  0.00     0.293 C 
ATOM      4  N3  <0> d           5.910   2.998   3.924  0.00  0.00     0.094 N 
ATOM      5  C8  <0> d           6.396   1.734   3.356  0.00  0.00     0.293 C 
ATOM      6  C9  <0> d           5.194   0.876   2.927  0.00  0.00     0.165 C 
ENDROOT
BRANCH   1   7
ATOM      7  S1  <0> d           3.878   1.087   0.555  0.00  0.00     0.262 S 
ATOM      8  O1  <0> d           4.831   0.099   0.188  0.00  0.00    -0.200 OA
ATOM      9  O2  <0> d           3.596   2.214  -0.264  0.00  0.00    -0.200 OA
BRANCH   7  10
ATOM     10  C3  <0> d           2.349   0.246   0.799  0.00  0.00     0.097 A 
ATOM     11  C2  <0> d           1.147   0.927   0.679  0.00  0.00     0.028 A 
ATOM     12  C1  <0> d          -0.032   0.224   0.880  0.00  0.00     0.021 A 
ATOM     13  C5  <0> d           0.030  -1.121   1.190  0.00  0.00     0.116 A 
ATOM     14  N1  <0> d           1.192  -1.736   1.295  0.00  0.00    -0.272 NA
ATOM     15  C4  <0> d           2.333  -1.100   1.112  0.00  0.00     0.141 A 
ENDBRANCH   7  10
ENDBRANCH   1   7
BRANCH   4  16
ATOM     16  C10 <0> d           7.014   3.773   4.506  0.00  0.00     0.310 C 
BRANCH  16  17
ATOM     17  C11 <0> d           6.457   4.767   5.527  0.00  0.00     0.084 C 
ATOM     18  C16 <0> d           7.615   5.467   6.241  0.00  0.00     0.039 C 
ATOM     19  C15 <0> d           7.058   6.461   7.262  0.00  0.00     0.003 C 
ATOM     20  C14 <0> d           6.204   5.713   8.288  0.00  0.00     0.000 C 
ATOM     21  C13 <0> d           5.046   5.013   7.574  0.00  0.00     0.003 C 
ATOM     22  C12 <0> d           5.603   4.019   6.553  0.00  0.00     0.039 C 
BRANCH  17  23
ATOM     23  O3  <0> d           5.653   5.739   4.856  0.00  0.00    -0.388 OA
ATOM     24  H25 <0> d           5.266   6.403   5.443  0.00  0.00     0.210 HD
ENDBRANCH  17  23
ENDBRANCH  16  17
ENDBRANCH   4  16
TORSDOF 5
