REMARK  5 active torsions:
REMARK  status: ('A' for Active; 'I' for Inactive)
REMARK    1  A    between atoms: C2_2  and  N1_3 
REMARK    2  A    between atoms: C3_4  and  S2_13 
REMARK    3  A    between atoms: S2_13  and  C9_14 
REMARK    4  A    between atoms: C9_14  and  C10_15 
REMARK       I    between atoms: C10_15  and  N3_17 
REMARK    5  A    between atoms: N3_17  and  C11_18 
ROOT
ATOM      1  N1  <0> d          -1.361  -0.511  -0.104  0.00  0.00    -0.313 N 
ATOM      2  C3  <0> d          -2.127  -0.711   1.114  0.00  0.00     0.389 C 
ATOM      3  N2  <0> d          -3.554  -0.820   0.859  0.00  0.00     0.126 N 
ATOM      4  C4  <0> d          -3.921  -1.658  -0.263  0.00  0.00     0.270 C 
ATOM      5  C5  <0> d          -3.695  -3.108   0.010  0.00  0.00     0.017 C 
ATOM      6  C6  <0> d          -3.309  -3.902  -0.972  0.00  0.00     0.044 C 
ATOM      7  S1  <0> d          -3.168  -2.861  -2.414  0.00  0.00    -0.125 SA
ATOM      8  C7  <0> d          -3.232  -1.231  -1.571  0.00  0.00     0.180 C 
ATOM      9  C8  <0> d          -1.844  -0.752  -1.324  0.00  0.00     0.238 C 
ATOM     10  O1  <0> d          -1.113  -0.587  -2.278  0.00  0.00    -0.272 OA
ATOM     11  H10 <0> d          -4.050  -1.095   1.694  0.00  0.00     0.320 HD
ENDROOT
BRANCH   2  12
ATOM     12  S2  <0> d          -1.837   0.691   2.228  0.00  0.00    -0.104 SA
BRANCH  12  13
ATOM     13  C9  <0> d          -2.557   2.105   1.349  0.00  0.00     0.180 C 
BRANCH  13  14
ATOM     14  C10 <0> d          -2.491   3.328   2.228  0.00  0.00     0.229 C 
ATOM     15  O2  <0> d          -2.006   3.253   3.337  0.00  0.00    -0.273 OA
ATOM     16  N3  <0> d          -2.970   4.506   1.781  0.00  0.00    -0.333 N 
ATOM     17  H15 <0> d          -3.358   4.566   0.894  0.00  0.00     0.165 HD
BRANCH  16  18
ATOM     18  C11 <0> d          -2.906   5.694   2.634  0.00  0.00     0.256 A 
ATOM     19  N5  <0> d          -1.905   6.648   2.126  0.00  0.00    -0.162 NA
ATOM     20  N4  <0> d          -2.499   7.694   1.838  0.00  0.00    -0.158 NA
ATOM     21  C13 <0> d          -3.831   7.665   2.065  0.00  0.00     0.052 A 
ATOM     22  C12 <0> d          -4.202   6.481   2.558  0.00  0.00     0.051 A 
ATOM     23  C14 <0> d          -4.770   8.813   1.798  0.00  0.00     0.072 C 
ENDBRANCH  16  18
ENDBRANCH  13  14
ENDBRANCH  12  13
ENDBRANCH   2  12
BRANCH   1  24
ATOM     24  C2  <0> d           0.012  -0.013   0.013  0.00  0.00     0.124 C 
ATOM     25  C1  <0> d           0.985  -1.194   0.013  0.00  0.00     0.026 C 
ENDBRANCH   1  24
TORSDOF 5
