REMARK  2 active torsions:
REMARK  status: ('A' for Active; 'I' for Inactive)
REMARK    1  A    between atoms: C4_4  and  O2_16 
REMARK    2  A    between atoms: C5_5  and  N1_7 
ROOT
ATOM      1  N1  <0> d           0.762  -1.976   1.234  0.00  0.00    -0.230 N 
ATOM      2  C7  <0> d           0.219  -2.758   2.198  0.00  0.00     0.250 C 
ATOM      3  O1  <0> d          -0.212  -2.413   3.278  0.00  0.00    -0.271 OA
ATOM      4  C8  <0> d           0.270  -4.146   1.629  0.00  0.00     0.129 C 
ATOM      5  C9  <0> d           1.029  -5.159   2.501  0.00  0.00     0.020 C 
ATOM      6  C10 <0> d           1.545  -6.185   1.457  0.00  0.00     0.007 C 
ATOM      7  C11 <0> d           1.591  -5.428   0.110  0.00  0.00     0.057 C 
ATOM      8  C12 <0> d           1.185  -3.994   0.412  0.00  0.00     0.046 C 
ATOM      9  N2  <0> d           1.337  -2.755   0.229  0.00  0.00    -0.177 NA
ENDROOT
BRANCH   1  10
ATOM     10  C5  <0> d           0.742  -0.511   1.242  0.00  0.00     0.142 C 
ATOM     11  C4  <0> d           2.178   0.019   1.231  0.00  0.00     0.143 C 
ATOM     12  C3  <0> d           2.157   1.548   1.239  0.00  0.00     0.034 C 
ATOM     13  C2  <0> d           1.417   2.055  -0.000  0.00  0.00     0.003 C 
ATOM     14  C1  <0> d          -0.019   1.526   0.010  0.00  0.00     0.002 C 
ATOM     15  C6  <0> d           0.002  -0.004   0.002  0.00  0.00     0.030 C 
BRANCH  11  16
ATOM     16  O2  <0> d           2.869  -0.455   2.388  0.00  0.00    -0.393 OA
ATOM     17  H18 <0> d           3.787  -0.157   2.447  0.00  0.00     0.210 HD
ENDBRANCH  11  16
ENDBRANCH   1  10
TORSDOF 2
