REMARK  3 active torsions:
REMARK  status: ('A' for Active; 'I' for Inactive)
REMARK    1  A    between atoms: N1_7  and  C5_10 
REMARK    2  A    between atoms: C9_14  and  C11_16 
REMARK       I    between atoms: C11_16  and  N2_18 
REMARK    3  A    between atoms: N2_18  and  C12_19 
ROOT
ATOM      1  C5  <0> d           2.433   4.065  -0.001  0.00  0.00     0.054 A 
ATOM      2  C6  <0> d           3.643   3.380  -0.015  0.00  0.00     0.032 A 
ATOM      3  C7  <0> d           3.661   1.998  -0.023  0.00  0.00     0.027 A 
ATOM      4  C8  <0> d           2.476   1.288  -0.015  0.00  0.00     0.050 A 
ATOM      5  C9  <0> d           1.255   1.967   0.001  0.00  0.00     0.056 A 
ATOM      6  C10 <0> d           1.239   3.363   0.003  0.00  0.00     0.049 A 
ATOM      7 Cl1  <0> d           2.504  -0.448  -0.023  0.00  0.00    -0.083 Cl
ENDROOT
BRANCH   1   8
ATOM      8  N1  <0> d           2.422   5.465   0.006  0.00  0.00    -0.208 N 
ATOM      9  S1  <0> d           3.635   6.462  -0.573  0.00  0.00     0.240 S 
ATOM     10  C3  <0> d           3.084   8.065   0.144  0.00  0.00     0.177 C 
ATOM     11  O1  <0> d           4.832   6.013   0.048  0.00  0.00    -0.205 OA
ATOM     12  O2  <0> d           3.491   6.463  -1.987  0.00  0.00    -0.205 OA
ATOM     13  C2  <0> d           1.585   7.731   0.364  0.00  0.00     0.091 C 
ATOM     14  C1  <0> d           0.765   8.241  -0.823  0.00  0.00     0.021 C 
ATOM     15  C4  <0> d           1.434   6.244   0.472  0.00  0.00     0.242 C 
ATOM     16  O3  <0> d           0.444   5.756   0.974  0.00  0.00    -0.272 OA
ENDBRANCH   1   8
BRANCH   5  17
ATOM     17  C11 <0> d          -0.014   1.211   0.009  0.00  0.00     0.259 C 
ATOM     18  O4  <0> d           0.002  -0.004   0.002  0.00  0.00    -0.267 OA
ATOM     19  N2  <0> d          -1.191   1.869   0.018  0.00  0.00    -0.302 N 
ATOM     20  H10 <0> d          -1.204   2.839   0.023  0.00  0.00     0.171 HD
BRANCH  19  21
ATOM     21  C12 <0> d          -2.377   1.162   0.020  0.00  0.00     0.164 A 
ATOM     22  S2  <0> d          -4.027   1.836   0.031  0.00  0.00    -0.091 SA
ATOM     23  C14 <0> d          -4.977   0.267   0.026  0.00  0.00     0.104 A 
ATOM     24  C13 <0> d          -3.818  -0.755   0.015  0.00  0.00     0.162 A 
ATOM     25  N3  <0> d          -2.518  -0.124   0.008  0.00  0.00    -0.266 NA
ENDBRANCH  19  21
ENDBRANCH   5  17
TORSDOF 3
