REMARK  3 active torsions:
REMARK  status: ('A' for Active; 'I' for Inactive)
REMARK    1  A    between atoms: C7_7  and  N1_8 
REMARK       I    between atoms: N1_8  and  C8_9 
REMARK    2  A    between atoms: C8_9  and  C9_11 
REMARK       I    between atoms: N2_13  and  C17_21 
REMARK    3  A    between atoms: C17_21  and  C18_23 
ROOT
ATOM      1  C9  <0> d           4.098   0.014   2.475  0.00  0.00     0.106 C 
ATOM      2  C10 <0> d           5.188  -0.718   1.660  0.00  0.00     0.141 C 
ATOM      3  N2  <0> d           6.421  -0.572   2.469  0.00  0.00    -0.346 N 
ATOM      4  C11 <0> d           5.965  -0.737   3.870  0.00  0.00     0.136 C 
ATOM      5  C12 <0> d           4.612  -0.001   3.924  0.00  0.00    -0.007 C 
ATOM      6  C13 <0> d           3.637  -0.757   4.822  0.00  0.00     0.039 C 
ATOM      7  C14 <0> d           4.139  -0.708   6.268  0.00  0.00     0.233 C 
ATOM      8  N3  <0> d           4.253   0.689   6.702  0.00  0.00    -0.075 N 
ATOM      9  C15 <0> d           5.261   1.385   5.893  0.00  0.00     0.233 C 
ATOM     10  C16 <0> d           4.806   1.425   4.431  0.00  0.00     0.039 C 
ATOM     11  C17 <0> d           7.675  -0.341   2.029  0.00  0.00     0.253 C 
ATOM     12  O2  <0> d           7.874  -0.119   0.851  0.00  0.00    -0.267 OA
ATOM     13  H24 <0> d           3.360   1.147   6.592  0.00  0.00     0.277 HD
ATOM     14  H33 <0> d           4.525   0.718   7.673  0.00  0.00     0.277 HD
ENDROOT
BRANCH   1  15
ATOM     15  C8  <0> d           2.786  -0.721   2.375  0.00  0.00     0.224 C 
ATOM     16  N1  <0> d           1.625  -0.043   2.471  0.00  0.00    -0.356 N 
ATOM     17  H15 <0> d           1.634   0.918   2.605  0.00  0.00     0.162 HD
ATOM     18  O1  <0> d           2.775  -1.922   2.208  0.00  0.00    -0.273 OA
BRANCH  16  19
ATOM     19  C7  <0> d           0.350  -0.757   2.375  0.00  0.00     0.088 C 
ATOM     20  C2  <0> d          -0.736   0.038   3.103  0.00  0.00     0.004 C 
ATOM     21  C1  <0> d          -0.351   0.197   4.575  0.00  0.00     0.012 C 
ATOM     22  C3  <0> d          -0.875   1.419   2.460  0.00  0.00     0.006 C 
ATOM     23  C4  <0> d          -1.260   1.260   0.987  0.00  0.00     0.001 C 
ATOM     24  C5  <0> d          -0.174   0.465   0.259  0.00  0.00     0.002 C 
ATOM     25  C6  <0> d          -0.035  -0.916   0.902  0.00  0.00     0.025 C 
ENDBRANCH  16  19
ENDBRANCH   1  15
BRANCH  11  26
ATOM     26  C18 <0> d           8.806  -0.359   2.981  0.00  0.00     0.033 A 
ATOM     27  C23 <0> d           9.999   0.291   2.662  0.00  0.00     0.036 A 
ATOM     28  C22 <0> d          11.050   0.276   3.558  0.00  0.00     0.011 A 
ATOM     29  C21 <0> d          10.925  -0.393   4.764  0.00  0.00     0.019 A 
ATOM     30 Br1  <0> d          12.665   1.163   3.134  0.00  0.00    -0.051 Br
ATOM     31  C20 <0> d           9.747  -1.044   5.082  0.00  0.00     0.002 A 
ATOM     32  C19 <0> d           8.688  -1.031   4.199  0.00  0.00     0.017 A 
ENDBRANCH  11  26
TORSDOF 3
