REMARK  4 active torsions:
REMARK  status: ('A' for Active; 'I' for Inactive)
REMARK    1  A    between atoms: N1_6  and  S1_8 
REMARK    2  A    between atoms: S1_8  and  N2_11 
REMARK    3  A    between atoms: C11_16  and  C12_17 
REMARK    4  A    between atoms: C12_17  and  N3_18 
ROOT
ATOM      1  N2  <0> d           2.440   2.174   1.706  0.00  0.00    -0.288 N 
ATOM      2  C7  <0> d           3.028   2.902   0.573  0.00  0.00     0.137 C 
ATOM      3  C8  <0> d           3.640   4.208   1.090  0.00  0.00     0.021 C 
ATOM      4  C9  <0> d           2.577   4.995   1.859  0.00  0.00     0.004 C 
ATOM      5  C10 <0> d           2.102   4.175   3.061  0.00  0.00     0.028 C 
ATOM      6  C11 <0> d           1.469   2.867   2.563  0.00  0.00     0.123 C 
ENDROOT
BRANCH   1   7
ATOM      7  S1  <0> d           2.859   0.601   2.006  0.00  0.00     0.319 S 
ATOM      8  O1  <0> d           2.721   0.404   3.407  0.00  0.00    -0.182 OA
ATOM      9  O2  <0> d           4.082   0.368   1.321  0.00  0.00    -0.182 OA
BRANCH   7  10
ATOM     10  N1  <0> d           1.720  -0.357   1.280  0.00  0.00    -0.293 N 
ATOM     11  C5  <0> d           1.785  -0.634  -0.162  0.00  0.00     0.141 C 
ATOM     12  C4  <0> d           0.438  -0.268  -0.794  0.00  0.00     0.001 C 
ATOM     13  C3  <0> d          -0.683  -1.008  -0.061  0.00  0.00     0.011 C 
ATOM     14  C14 <0> d           0.440  -0.675  -2.269  0.00  0.00     0.011 C 
ATOM     15  C2  <0> d          -0.707  -0.576   1.407  0.00  0.00     0.001 C 
ATOM     16  C1  <0> d          -0.916   0.937   1.491  0.00  0.00     0.011 C 
ATOM     17  C6  <0> d           0.626  -0.946   2.065  0.00  0.00     0.141 C 
ENDBRANCH   7  10
ENDBRANCH   1   7
BRANCH   6  18
ATOM     18  C12 <0> d           1.114   1.980   3.757  0.00  0.00     0.257 C 
BRANCH  18  19
ATOM     19  N3  <0> d           0.019   2.596   4.518  0.00  0.00    -0.077 N 
ATOM     20  C13 <0> d          -0.405   1.687   5.591  0.00  0.00     0.267 C 
ATOM     21  H23 <0> d           0.336   3.466   4.919  0.00  0.00     0.276 HD
ATOM     22  H30 <0> d          -0.760   2.775   3.901  0.00  0.00     0.276 HD
ENDBRANCH  18  19
ENDBRANCH   6  18
TORSDOF 4
