REMARK  7 active torsions:
REMARK  status: ('A' for Active; 'I' for Inactive)
REMARK    1  A    between atoms: C5_5  and  C8_8 
REMARK    2  A    between atoms: C8_8  and  N1_9 
REMARK    3  A    between atoms: N1_9  and  C9_10 
REMARK    4  A    between atoms: N2_16  and  C15_17 
REMARK    5  A    between atoms: N4_22  and  C20_25 
REMARK    6  A    between atoms: C20_25  and  C21_26 
REMARK    7  A    between atoms: C21_26  and  O1_27 
ROOT
ATOM      1  C8  <0> d          -0.272  -4.245   0.601  0.00  0.00     0.118 C 
ATOM      2  N2  <0> d          -1.479  -4.772   0.701  0.00  0.00    -0.319 N 
ATOM      3  H13 <0> d          -1.583  -5.701   0.960  0.00  0.00     0.170 HD
ENDROOT
BRANCH   1   4
ATOM      4  C5  <0> d          -0.113  -2.780   0.506  0.00  0.00     0.008 A 
ATOM      5  C4  <0> d           0.810  -2.232  -0.387  0.00  0.00     0.016 A 
ATOM      6  C3  <0> d           0.954  -0.862  -0.471  0.00  0.00     0.007 A 
ATOM      7  C2  <0> d           0.187  -0.033   0.328  0.00  0.00    -0.062 A 
ATOM      8  C1  <0> d           0.350   1.462   0.231  0.00  0.00     0.048 C 
ATOM      9  C7  <0> d          -0.726  -0.570   1.219  0.00  0.00     0.007 A 
ATOM     10  C6  <0> d          -0.884  -1.937   1.309  0.00  0.00     0.016 A 
ENDBRANCH   1   4
BRANCH   1  11
ATOM     11  N1  <0> d           0.830  -5.056   0.586  0.00  0.00    -0.342 N 
ATOM     12  H27 <0> d           1.718  -4.668   0.617  0.00  0.00     0.167 HD
BRANCH  11  13
ATOM     13  C9  <0> d           0.676  -6.444   0.526  0.00  0.00     0.033 A 
ATOM     14  C14 <0> d           1.456  -7.266   1.329  0.00  0.00     0.029 A 
ATOM     15  C13 <0> d           1.297  -8.637   1.271  0.00  0.00     0.002 A 
ATOM     16  C12 <0> d           0.370  -9.191   0.407  0.00  0.00     0.000 A 
ATOM     17  C11 <0> d          -0.404  -8.376  -0.398  0.00  0.00     0.002 A 
ATOM     18  C10 <0> d          -0.254  -7.004  -0.341  0.00  0.00     0.029 A 
ENDBRANCH  11  13
ENDBRANCH   1  11
BRANCH   2  19
ATOM     19  C15 <0> d          -2.562  -4.023   0.443  0.00  0.00     0.175 C 
ATOM     20  S1  <0> d          -3.623  -3.586   1.714  0.00  0.00    -0.041 SA
ATOM     21  N3  <0> d          -2.815  -3.615  -0.817  0.00  0.00    -0.355 N 
ATOM     22  C19 <0> d          -3.928  -2.697  -1.103  0.00  0.00     0.155 C 
ATOM     23  C16 <0> d          -1.989  -4.080  -1.941  0.00  0.00     0.155 C 
ATOM     24  C18 <0> d          -4.775  -3.289  -2.229  0.00  0.00     0.292 C 
ATOM     25  N4  <0> d          -3.913  -3.599  -3.377  0.00  0.00     0.093 N 
ATOM     26  C17 <0> d          -2.916  -4.622  -3.034  0.00  0.00     0.292 C 
BRANCH  25  27
ATOM     27  C20 <0> d          -4.713  -4.011  -4.539  0.00  0.00     0.298 C 
BRANCH  27  28
ATOM     28  C21 <0> d          -5.561  -2.832  -5.019  0.00  0.00     0.194 C 
BRANCH  28  29
ATOM     29  O1  <0> d          -4.705  -1.794  -5.499  0.00  0.00    -0.399 OA
ATOM     30  H26 <0> d          -5.176  -1.012  -5.820  0.00  0.00     0.209 HD
ENDBRANCH  28  29
ENDBRANCH  27  28
ENDBRANCH  25  27
ENDBRANCH   2  19
TORSDOF 7
