REMARK  8 active torsions:
REMARK  status: ('A' for Active; 'I' for Inactive)
REMARK    1  A    between atoms: C4_4  and  O4_32 
REMARK    2  A    between atoms: C7_7  and  N1_8 
REMARK       I    between atoms: N1_8  and  C8_9 
REMARK    3  A    between atoms: C8_9  and  C9_11 
REMARK    4  A    between atoms: C9_11  and  O2_12 
REMARK    5  A    between atoms: O2_12  and  C10_13 
REMARK    6  A    between atoms: C13_16  and  C16_20 
REMARK    7  A    between atoms: C14_17  and  O3_19 
REMARK    8  A    between atoms: C17_21  and  C20_26 
ROOT
ATOM      1  C10 <0> d          -0.343  -0.358   7.217  0.00  0.00     0.072 A 
ATOM      2  C11 <0> d          -0.381   1.017   7.402  0.00  0.00     0.037 A 
ATOM      3  C12 <0> d          -0.486   1.541   8.676  0.00  0.00     0.015 A 
ATOM      4  C13 <0> d          -0.554   0.698   9.769  0.00  0.00     0.004 A 
ATOM      5  C14 <0> d          -0.517  -0.677   9.589  0.00  0.00     0.077 A 
ATOM      6  C15 <0> d          -0.417  -1.206   8.311  0.00  0.00     0.073 A 
ENDROOT
BRANCH   1   7
ATOM      7  O2  <0> d          -0.239  -0.873   5.963  0.00  0.00    -0.342 OA
BRANCH   7   8
ATOM      8  C9  <0> d          -0.167   0.059   4.883  0.00  0.00     0.278 C 
BRANCH   8   9
ATOM      9  C8  <0> d          -0.056  -0.689   3.580  0.00  0.00     0.246 C 
ATOM     10  N1  <0> d           0.025  -0.011   2.418  0.00  0.00    -0.325 N 
ATOM     11  H8  <0> d           0.079   0.957   2.424  0.00  0.00     0.169 HD
ATOM     12  O1  <0> d          -0.040  -1.902   3.577  0.00  0.00    -0.271 OA
BRANCH  10  13
ATOM     13  C7  <0> d           0.034  -0.705   1.201  0.00  0.00     0.041 A 
ATOM     14  C2  <0> d          -0.584  -0.158   0.085  0.00  0.00    -0.033 A 
ATOM     15  C1  <0> d          -1.264   1.184   0.182  0.00  0.00     0.050 C 
ATOM     16  C3  <0> d          -0.571  -0.840  -1.116  0.00  0.00     0.045 A 
ATOM     17  C4  <0> d           0.055  -2.074  -1.206  0.00  0.00     0.066 A 
ATOM     18  C5  <0> d           0.668  -2.625  -0.089  0.00  0.00     0.039 A 
ATOM     19  C6  <0> d           0.655  -1.944   1.111  0.00  0.00     0.033 A 
BRANCH  17  20
ATOM     20  O4  <0> d           0.067  -2.745  -2.388  0.00  0.00    -0.361 OA
ATOM     21  H23 <0> d           0.828  -2.540  -2.949  0.00  0.00     0.217 HD
ENDBRANCH  17  20
ENDBRANCH  10  13
ENDBRANCH   8   9
ENDBRANCH   7   8
ENDBRANCH   1   7
BRANCH   5  22
ATOM     22  O3  <0> d          -0.583  -1.506  10.664  0.00  0.00    -0.360 OA
ATOM     23  H14 <0> d          -1.483  -1.761  10.909  0.00  0.00     0.217 HD
ENDBRANCH   5  22
BRANCH   4  24
ATOM     24  C16 <0> d          -0.668   1.273  11.157  0.00  0.00     0.173 A 
ATOM     25  N3  <0> d          -1.186   2.651  11.110  0.00  0.00    -0.300 N 
ATOM     26  N2  <0> d          -0.321   3.396  11.584  0.00  0.00    -0.183 NA
ATOM     27  H24 <0> d          -2.051   2.923  10.766  0.00  0.00     0.183 HD
ATOM     28  C18 <0> d           0.795   2.778  11.994  0.00  0.00     0.060 A 
ATOM     29  C17 <0> d           0.705   1.444  11.783  0.00  0.00     0.007 A 
ATOM     30  C19 <0> d           1.984   3.472  12.607  0.00  0.00     0.073 C 
BRANCH  29  31
ATOM     31  C20 <0> d           1.703   0.406  12.088  0.00  0.00    -0.025 A 
ATOM     32  C25 <0> d           2.056   0.139  13.414  0.00  0.00     0.012 A 
ATOM     33  C24 <0> d           2.987  -0.840  13.692  0.00  0.00     0.001 A 
ATOM     34  C23 <0> d           3.579  -1.549  12.661  0.00  0.00     0.000 A 
ATOM     35  C22 <0> d           3.239  -1.287  11.345  0.00  0.00     0.001 A 
ATOM     36  C21 <0> d           2.305  -0.315  11.052  0.00  0.00     0.012 A 
ENDBRANCH  29  31
ENDBRANCH   4  24
TORSDOF 8
