REMARK  6 active torsions:
REMARK  status: ('A' for Active; 'I' for Inactive)
REMARK    1  A    between atoms: C2_2  and  C3_3 
REMARK    2  A    between atoms: C3_3  and  C4_4 
REMARK    3  A    between atoms: C3_3  and  N1_21 
REMARK    4  A    between atoms: C4_4  and  C5_5 
REMARK    5  A    between atoms: C8_8  and  O1_12 
REMARK    6  A    between atoms: O1_12  and  C12_13 
ROOT
ATOM      1  C5  <0> d          -2.829  -2.568  -0.234  0.00  0.00    -0.055 A 
ATOM      2  C6  <0> d          -3.535  -2.902   0.907  0.00  0.00     0.016 A 
ATOM      3  C7  <0> d          -4.831  -3.371   0.806  0.00  0.00    -0.028 A 
ATOM      4  C8  <0> d          -5.423  -3.506  -0.441  0.00  0.00     0.081 A 
ATOM      5  C9  <0> d          -4.713  -3.170  -1.584  0.00  0.00    -0.028 A 
ATOM      6  C10 <0> d          -3.419  -2.697  -1.478  0.00  0.00     0.016 A 
ATOM      7  C11 <0> d          -5.353  -3.316  -2.940  0.00  0.00     0.051 C 
ATOM      8  C16 <0> d          -5.599  -3.736   2.050  0.00  0.00     0.051 C 
ENDROOT
BRANCH   1   9
ATOM      9  C4  <0> d          -1.416  -2.058  -0.121  0.00  0.00     0.071 C 
BRANCH   9  10
ATOM     10  C3  <0> d          -1.433  -0.534   0.013  0.00  0.00     0.187 C 
BRANCH  10  11
ATOM     11  C2  <0> d           0.002  -0.004   0.002  0.00  0.00     0.028 C 
ATOM     12  C1  <0> d          -0.019   1.526   0.010  0.00  0.00     0.007 C 
ENDBRANCH  10  11
BRANCH  10  13
ATOM     13  N1  <0> d          -2.083  -0.161   1.276  0.00  0.00    -0.075 N 
ATOM     14  H24 <0> d          -2.095   0.844   1.365  0.00  0.00     0.274 HD
ATOM     15  H25 <0> d          -3.030  -0.510   1.284  0.00  0.00     0.274 HD
ATOM     16  H26 <0> d          -1.571  -0.560   2.049  0.00  0.00     0.274 HD
ENDBRANCH  10  13
ENDBRANCH   9  10
ENDBRANCH   1   9
BRANCH   4  17
ATOM     17  O1  <0> d          -6.697  -3.968  -0.543  0.00  0.00    -0.344 OA
BRANCH  17  18
ATOM     18  C12 <0> d          -7.744  -2.995  -0.512  0.00  0.00     0.143 C 
ATOM     19  C15 <0> d          -8.954  -3.499  -1.351  0.00  0.00     0.172 C 
ATOM     20  S1  <0> d         -10.300  -2.441  -0.670  0.00  0.00     0.147 S 
ATOM     21  C14 <0> d          -9.546  -1.993   0.947  0.00  0.00     0.143 C 
ATOM     22  O2  <0> d         -11.447  -3.246  -0.438  0.00  0.00    -0.228 OA
ATOM     23  O3  <0> d         -10.416  -1.270  -1.466  0.00  0.00    -0.228 OA
ATOM     24  C13 <0> d          -8.219  -2.788   0.936  0.00  0.00     0.048 C 
ENDBRANCH  17  18
ENDBRANCH   4  17
TORSDOF 6
