REMARK  3 active torsions:
REMARK  status: ('A' for Active; 'I' for Inactive)
REMARK    1  A    between atoms: C6_7  and  N2_8 
REMARK       I    between atoms: N2_8  and  C7_9 
REMARK    2  A    between atoms: C7_9  and  C8_11 
REMARK    3  A    between atoms: C13_17  and  O3_22 
ROOT
ATOM      1  C8  <0> d           0.159   0.012   4.846  0.00  0.00     0.098 A 
ATOM      2  C9  <0> d           0.290  -0.678   6.034  0.00  0.00     0.109 A 
ATOM      3  N3  <0> d           0.395  -0.053   7.214  0.00  0.00    -0.364 N 
ATOM      4  C10 <0> d           0.381   1.320   7.337  0.00  0.00     0.046 A 
ATOM      5  C11 <0> d           0.495   1.919   8.589  0.00  0.00     0.033 A 
ATOM      6  C12 <0> d           0.480   3.291   8.701  0.00  0.00     0.039 A 
ATOM      7  C13 <0> d           0.352   4.095   7.572  0.00  0.00     0.069 A 
ATOM      8  C14 <0> d           0.239   3.520   6.320  0.00  0.00     0.054 A 
ATOM      9  C15 <0> d           0.253   2.131   6.196  0.00  0.00     0.044 A 
ATOM     10  C16 <0> d           0.140   1.483   4.877  0.00  0.00     0.201 A 
ATOM     11  O2  <0> d           0.032   2.138   3.854  0.00  0.00    -0.286 OA
ATOM     12  H15 <0> d           0.485  -0.590   8.017  0.00  0.00     0.165 HD
ENDROOT
BRANCH   1  13
ATOM     13  C7  <0> d           0.045  -0.711   3.570  0.00  0.00     0.262 C 
ATOM     14  N2  <0> d           0.029  -0.029   2.408  0.00  0.00    -0.307 N 
ATOM     15  H7  <0> d           0.014   0.941   2.416  0.00  0.00     0.170 HD
ATOM     16  O1  <0> d          -0.033  -1.925   3.564  0.00  0.00    -0.267 OA
BRANCH  14  17
ATOM     17  C6  <0> d           0.031  -0.716   1.196  0.00  0.00     0.136 A 
ATOM     18  C2  <0> d           0.014  -0.006   0.002  0.00  0.00    -0.016 A 
ATOM     19  C1  <0> d          -0.009   1.501   0.009  0.00  0.00     0.052 C 
ATOM     20  C3  <0> d           0.023  -0.701  -1.195  0.00  0.00     0.012 A 
ATOM     21  C4  <0> d           0.043  -2.089  -1.155  0.00  0.00     0.020 A 
ATOM     22  C5  <0> d           0.055  -2.729   0.069  0.00  0.00     0.119 A 
ATOM     23  N1  <0> d           0.045  -2.040   1.194  0.00  0.00    -0.243 NA
ENDBRANCH  14  17
ENDBRANCH   1  13
BRANCH   7  24
ATOM     24  O3  <0> d           0.339   5.448   7.701  0.00  0.00    -0.356 OA
ATOM     25  C17 <0> d           0.461   5.975   9.023  0.00  0.00     0.210 C 
ENDBRANCH   7  24
TORSDOF 3
