REMARK  4 active torsions:
REMARK  status: ('A' for Active; 'I' for Inactive)
REMARK    1  A    between atoms: C2_2  and  C3_3 
REMARK    2  A    between atoms: C2_2  and  O3_14 
REMARK       I    between atoms: C3_3  and  N1_5 
REMARK    3  A    between atoms: N1_5  and  C4_6 
REMARK    4  A    between atoms: O3_14  and  C10_15 
ROOT
ATOM      1  O3  <0> d          -2.286  -2.830   0.001  0.00  0.00    -0.337 OA
ENDROOT
BRANCH   1   2
ATOM      2  C2  <0> d          -2.172  -4.249  -0.117  0.00  0.00     0.216 C 
ATOM      3  C1  <0> d          -2.080  -4.632  -1.596  0.00  0.00     0.050 C 
BRANCH   2   4
ATOM      4  C3  <0> d          -3.383  -4.903   0.497  0.00  0.00     0.247 C 
ATOM      5  O1  <0> d          -4.299  -4.221   0.905  0.00  0.00    -0.271 OA
ATOM      6  N1  <0> d          -3.449  -6.246   0.592  0.00  0.00    -0.346 N 
ATOM      7  H6  <0> d          -2.618  -6.865   0.221  0.00  0.00     0.163 HD
BRANCH   6   8
ATOM      8  C4  <0> d          -4.626  -6.882   1.188  0.00  0.00     0.176 C 
ATOM      9  C9  <0> d          -4.470  -6.930   2.694  0.00  0.00     0.240 C 
ATOM     10  N2  <0> d          -5.504  -7.266   3.466  0.00  0.00    -0.359 N 
ATOM     11  O2  <0> d          -3.400  -6.664   3.199  0.00  0.00    -0.271 OA
ATOM     12  C8  <0> d          -6.810  -7.584   2.865  0.00  0.00     0.122 C 
ATOM     13  H15 <0> d          -5.377  -7.303   4.558  0.00  0.00     0.162 HD
ATOM     14  C7  <0> d          -6.710  -8.943   2.169  0.00  0.00     0.020 C 
ATOM     15  C6  <0> d          -6.197  -8.787   0.749  0.00  0.00     0.004 C 
ATOM     16  C5  <0> d          -4.756  -8.315   0.667  0.00  0.00     0.035 C 
ENDBRANCH   6   8
ENDBRANCH   2   4
ENDBRANCH   1   2
BRANCH   1  17
ATOM     17  C10 <0> d          -1.131  -2.117  -0.005  0.00  0.00     0.072 A 
ATOM     18  C15 <0> d           0.073  -2.761  -0.237  0.00  0.00     0.075 A 
ATOM     19  C14 <0> d           1.253  -2.032  -0.243  0.00  0.00     0.092 A 
ATOM     20  C13 <0> d           1.211  -0.646  -0.013  0.00  0.00     0.005 A 
ATOM     21  O4  <0> d           2.440  -2.636  -0.467  0.00  0.00    -0.274 OA
ATOM     22  C12 <0> d          -0.014  -0.010   0.218  0.00  0.00     0.017 A 
ATOM     23  C18 <0> d           2.464   0.120  -0.019  0.00  0.00    -0.033 A 
ATOM     24  C11 <0> d          -1.166  -0.742   0.221  0.00  0.00     0.038 A 
ATOM     25  C17 <0> d           3.619  -0.543  -0.242  0.00  0.00     0.025 A 
ATOM     26  C19 <0> d           2.399   1.604   0.215  0.00  0.00     0.040 C 
ATOM     27  C16 <0> d           3.585  -1.941  -0.472  0.00  0.00     0.295 A 
ATOM     28  C22 <0> d           4.960   0.143  -0.256  0.00  0.00     0.045 C 
ATOM     29  O5  <0> d           4.631  -2.530  -0.679  0.00  0.00    -0.259 OA
ATOM     30  C21 <0> d           4.793   1.651  -0.435  0.00  0.00     0.005 C 
ATOM     31  C20 <0> d           3.774   2.150   0.597  0.00  0.00     0.005 C 
ENDBRANCH   1  17
TORSDOF 4
