REMARK  5 active torsions:
REMARK  status: ('A' for Active; 'I' for Inactive)
REMARK    1  A    between atoms: C2_2  and  C3_3 
REMARK    2  A    between atoms: N2_9  and  C7_12 
REMARK    3  A    between atoms: C7_12  and  C8_13 
REMARK    4  A    between atoms: C8_13  and  O3_14 
REMARK    5  A    between atoms: N3_16  and  C10_17 
ROOT
ATOM      1  C3  <0> d           0.217  -0.284   1.193  0.00  0.00     0.122 A 
ATOM      2  C4  <0> d           0.126   0.556   2.401  0.00  0.00     0.265 A 
ATOM      3  O1  <0> d          -0.223   1.719   2.329  0.00  0.00    -0.267 OA
ATOM      4  N1  <0> d           0.439  -0.001   3.589  0.00  0.00    -0.299 N 
ATOM      5  C5  <0> d           0.825  -1.281   3.683  0.00  0.00     0.183 A 
ATOM      6  S1  <0> d           1.203  -1.902   5.233  0.00  0.00    -0.040 SA
ATOM      7  N2  <0> d           0.929  -2.101   2.628  0.00  0.00    -0.288 N 
ATOM      8  C6  <0> d           0.642  -1.683   1.379  0.00  0.00     0.267 A 
ATOM      9  O2  <0> d           0.737  -2.438   0.429  0.00  0.00    -0.267 OA
ATOM     10  H4  <0> d           0.385   0.538   4.394  0.00  0.00     0.171 HD
ENDROOT
BRANCH   1  11
ATOM     11  C2  <0> d          -0.089   0.217  -0.059  0.00  0.00     0.027 C 
ATOM     12  C1  <0> d          -0.396   1.683  -0.229  0.00  0.00     0.069 C 
ATOM     13  N3  <0> d          -0.113  -0.605  -1.128  0.00  0.00    -0.357 N 
ATOM     14  H12 <0> d          -0.731  -1.353  -1.151  0.00  0.00     0.166 HD
BRANCH  13  15
ATOM     15  C10 <0> d           0.754  -0.381  -2.203  0.00  0.00     0.054 A 
ATOM     16  C15 <0> d           0.641  -1.145  -3.358  0.00  0.00     0.063 A 
ATOM     17  C14 <0> d           1.495  -0.917  -4.421  0.00  0.00     0.068 A 
ATOM     18 Cl1  <0> d          -0.574  -2.379  -3.470  0.00  0.00    -0.082 Cl
ATOM     19  C13 <0> d           2.468   0.063  -4.330  0.00  0.00     0.118 A 
ATOM     20  C12 <0> d           2.585   0.822  -3.178  0.00  0.00     0.044 A 
ATOM     21  F1  <0> d           3.305   0.281  -5.368  0.00  0.00    -0.206 F 
ATOM     22  C11 <0> d           1.731   0.602  -2.115  0.00  0.00     0.034 A 
ENDBRANCH  13  15
ENDBRANCH   1  11
BRANCH   7  23
ATOM     23  C7  <0> d           1.359  -3.486   2.838  0.00  0.00     0.161 C 
BRANCH  23  24
ATOM     24  C8  <0> d           0.134  -4.369   3.087  0.00  0.00     0.187 C 
BRANCH  24  25
ATOM     25  O3  <0> d          -0.677  -4.399   1.911  0.00  0.00    -0.394 OA
ATOM     26  C9  <0> d          -1.854  -5.200   2.038  0.00  0.00     0.201 C 
ENDBRANCH  24  25
ENDBRANCH  23  24
ENDBRANCH   7  23
TORSDOF 5
