REMARK  4 active torsions:
REMARK  status: ('A' for Active; 'I' for Inactive)
REMARK    1  A    between atoms: C3_3  and  O6_19 
REMARK    2  A    between atoms: C4_4  and  O5_18 
REMARK    3  A    between atoms: C5_5  and  O4_17 
REMARK    4  A    between atoms: C6_6  and  N1_8 
ROOT
ATOM      1  C1  <0> d          -0.894   1.634   3.590  0.00  0.00     0.042 C 
ATOM      2  C2  <0> d          -0.083   1.106   2.405  0.00  0.00     0.151 C 
ATOM      3  C3  <0> d           1.351   1.637   2.491  0.00  0.00     0.178 C 
ATOM      4  C4  <0> d           2.140   1.154   1.270  0.00  0.00     0.182 C 
ATOM      5  C5  <0> d           1.423   1.616  -0.003  0.00  0.00     0.200 C 
ATOM      6  C6  <0> d          -0.013   1.086   0.008  0.00  0.00     0.282 C 
ATOM      7  O1  <0> d          -0.680   1.547   1.184  0.00  0.00    -0.354 OA
ENDROOT
BRANCH   6   8
ATOM      8  N1  <0> d          -0.722   1.571  -1.179  0.00  0.00    -0.187 N 
ATOM      9  N3  <0> d          -0.600   2.914  -1.554  0.00  0.00    -0.173 NA
ATOM     10  C9  <0> d          -1.228   3.353  -2.610  0.00  0.00     0.213 A 
ATOM     11  C8  <0> d          -2.054   2.422  -3.385  0.00  0.00     0.268 A 
ATOM     12  N2  <0> d          -2.144   1.136  -2.988  0.00  0.00    -0.273 N 
ATOM     13  O3  <0> d          -2.651   2.805  -4.374  0.00  0.00    -0.266 OA
ATOM     14  C7  <0> d          -1.476   0.720  -1.895  0.00  0.00     0.348 A 
ATOM     15  H6  <0> d          -2.687   0.510  -3.492  0.00  0.00     0.173 HD
ATOM     16  O2  <0> d          -1.560  -0.443  -1.549  0.00  0.00    -0.245 OA
ENDBRANCH   6   8
BRANCH   5  17
ATOM     17  O4  <0> d           1.405   3.044  -0.049  0.00  0.00    -0.388 OA
ATOM     18  H11 <0> d           2.283   3.449  -0.058  0.00  0.00     0.210 HD
ENDBRANCH   5  17
BRANCH   4  19
ATOM     19  O5  <0> d           3.458   1.703   1.302  0.00  0.00    -0.390 OA
ATOM     20  H12 <0> d           3.970   1.451   2.083  0.00  0.00     0.210 HD
ENDBRANCH   4  19
BRANCH   3  21
ATOM     21  O6  <0> d           1.970   1.150   3.683  0.00  0.00    -0.390 OA
ATOM     22  H13 <0> d           1.522   1.419   4.497  0.00  0.00     0.210 HD
ENDBRANCH   3  21
TORSDOF 4
