REMARK  6 active torsions:
REMARK  status: ('A' for Active; 'I' for Inactive)
REMARK    1  A    between atoms: C2_2  and  N1_3 
REMARK    2  A    between atoms: C3_4  and  C5_9 
REMARK    3  A    between atoms: C5_9  and  N4_10 
REMARK       I    between atoms: N4_10  and  C6_11 
REMARK    4  A    between atoms: C6_11  and  C7_13 
REMARK    5  A    between atoms: C7_13  and  C8_14 
REMARK    6  A    between atoms: C8_14  and  C9_15 
ROOT
ATOM      1  N4  <0> d          -1.618  -0.968  -4.117  0.00  0.00    -0.354 N 
ATOM      2  C6  <0> d          -2.867  -0.914  -4.620  0.00  0.00     0.218 C 
ATOM      3  O1  <0> d          -3.788  -0.553  -3.917  0.00  0.00    -0.274 OA
ATOM      4  H9  <0> d          -0.881  -1.257  -4.679  0.00  0.00     0.162 HD
ENDROOT
BRANCH   1   5
ATOM      5  C5  <0> d          -1.372  -0.593  -2.723  0.00  0.00     0.203 C 
BRANCH   5   6
ATOM      6  C3  <0> d           0.096  -0.741  -2.414  0.00  0.00     0.146 A 
ATOM      7  N1  <0> d           0.688  -0.476  -1.203  0.00  0.00    -0.308 N 
ATOM      8  C4  <0> d           2.009  -0.721  -1.315  0.00  0.00     0.196 A 
ATOM      9  N3  <0> d           2.236  -1.141  -2.577  0.00  0.00    -0.251 N 
ATOM     10  S1  <0> d           3.182  -0.536  -0.082  0.00  0.00    -0.039 SA
ATOM     11  N2  <0> d           1.004  -1.138  -3.245  0.00  0.00    -0.157 NA
ATOM     12  H6  <0> d           3.094  -1.394  -2.953  0.00  0.00     0.191 HD
BRANCH   7  13
ATOM     13  C2  <0> d           0.002  -0.004   0.002  0.00  0.00     0.128 C 
ATOM     14  C1  <0> d          -0.019   1.526   0.010  0.00  0.00     0.027 C 
ENDBRANCH   7  13
ENDBRANCH   5   6
ENDBRANCH   1   5
BRANCH   2  15
ATOM     15  C7  <0> d          -3.120  -1.300  -6.054  0.00  0.00     0.109 C 
BRANCH  15  16
ATOM     16  C8  <0> d          -4.610  -1.150  -6.368  0.00  0.00     0.076 C 
BRANCH  16  17
ATOM     17  C9  <0> d          -4.863  -1.536  -7.802  0.00  0.00     0.075 A 
ATOM     18  S2  <0> d          -4.833  -0.556  -9.170  0.00  0.00    -0.085 SA
ATOM     19  C11 <0> d          -5.230  -1.810 -10.379  0.00  0.00     0.070 A 
ATOM     20  C10 <0> d          -5.357  -2.898  -9.577  0.00  0.00     0.124 A 
ATOM     21  N5  <0> d          -5.164  -2.716  -8.286  0.00  0.00    -0.258 NA
ENDBRANCH  16  17
ENDBRANCH  15  16
ENDBRANCH   2  15
TORSDOF 6
