REMARK  5 active torsions:
REMARK  status: ('A' for Active; 'I' for Inactive)
REMARK    1  A    between atoms: O1_2  and  C2_3 
REMARK    2  A    between atoms: C2_3  and  C3_5 
REMARK    3  A    between atoms: C7_9  and  N1_11 
REMARK    4  A    between atoms: N1_11  and  S1_12 
REMARK    5  A    between atoms: S1_12  and  C9_15 
ROOT
ATOM      1  C9  <0> d           2.927  -6.838   4.803  0.00  0.00     0.084 A 
ATOM      2  C10 <0> d           4.328  -6.985   4.754  0.00  0.00     0.028 A 
ATOM      3  C11 <0> d           5.050  -7.320   5.847  0.00  0.00     0.033 A 
ATOM      4  C12 <0> d           4.390  -7.533   7.085  0.00  0.00     0.062 A 
ATOM      5  N2  <0> d           5.068  -7.860   8.165  0.00  0.00    -0.317 N 
ATOM      6  C13 <0> d           4.419  -8.057   9.332  0.00  0.00     0.314 A 
ATOM      7  O5  <0> d           5.037  -8.359  10.332  0.00  0.00    -0.262 OA
ATOM      8  C14 <0> d           2.932  -7.901   9.383  0.00  0.00     0.314 A 
ATOM      9  O6  <0> d           2.335  -8.075  10.426  0.00  0.00    -0.262 OA
ATOM     10  N3  <0> d           2.259  -7.565   8.264  0.00  0.00    -0.317 N 
ATOM     11  C15 <0> d           2.914  -7.378   7.137  0.00  0.00     0.063 A 
ATOM     12  C16 <0> d           2.229  -7.019   5.947  0.00  0.00     0.057 A 
ATOM     13  H11 <0> d           1.295  -7.462   8.289  0.00  0.00     0.169 HD
ATOM     14  H12 <0> d           6.032  -7.960   8.123  0.00  0.00     0.169 HD
ENDROOT
BRANCH   1  15
ATOM     15  S1  <0> d           2.061  -6.399   3.333  0.00  0.00     0.283 S 
ATOM     16  O3  <0> d           0.724  -6.850   3.499  0.00  0.00    -0.198 OA
ATOM     17  O4  <0> d           2.875  -6.813   2.243  0.00  0.00    -0.198 OA
BRANCH  15  18
ATOM     18  N1  <0> d           2.000  -4.745   3.276  0.00  0.00    -0.160 NA
BRANCH  18  19
ATOM     19  C7  <0> d           1.366  -4.106   2.207  0.00  0.00     0.071 A 
ATOM     20  C6  <0> d           0.786  -4.858   1.192  0.00  0.00     0.032 A 
ATOM     21  C5  <0> d           0.157  -4.231   0.133  0.00  0.00     0.003 A 
ATOM     22  C4  <0> d           0.101  -2.853   0.076  0.00  0.00     0.018 A 
ATOM     23  C3  <0> d           0.680  -2.088   1.091  0.00  0.00     0.041 A 
ATOM     24  C8  <0> d           1.319  -2.721   2.157  0.00  0.00     0.050 A 
BRANCH  23  25
ATOM     25  C2  <0> d           0.620  -0.613   1.032  0.00  0.00     0.293 C 
ATOM     26  O2  <0> d           1.129   0.051   1.913  0.00  0.00    -0.259 OA
BRANCH  25  27
ATOM     27  O1  <0> d           0.002  -0.004   0.002  0.00  0.00    -0.323 OA
ATOM     28  C1  <0> d          -0.017   1.425   0.010  0.00  0.00     0.213 C 
ENDBRANCH  25  27
ENDBRANCH  23  25
ENDBRANCH  18  19
ENDBRANCH  15  18
ENDBRANCH   1  15
TORSDOF 5
