REMARK  10 active torsions:
REMARK  status: ('A' for Active; 'I' for Inactive)
REMARK    1  A    between atoms: O1_2  and  C2_3 
REMARK    2  A    between atoms: C4_5  and  C10_13 
REMARK    3  A    between atoms: C6_7  and  O3_11 
REMARK    4  A    between atoms: C7_8  and  O2_9 
REMARK       I    between atoms: C10_13  and  N1_15 
REMARK    5  A    between atoms: N1_15  and  C11_16 
REMARK    6  A    between atoms: C11_16  and  C12_17 
REMARK    7  A    between atoms: C12_17  and  N2_29 
REMARK    8  A    between atoms: C13_18  and  C14_19 
REMARK    9  A    between atoms: C13_18  and  N2_29 
REMARK   10  A    between atoms: C19_24  and  O5_25 
ROOT
ATOM      1  C10 <0> d           6.671   5.689  -4.070  0.00  0.00     0.251 C 
ATOM      2  O4  <0> d           6.209   5.213  -5.089  0.00  0.00    -0.268 OA
ATOM      3  N1  <0> d           6.025   5.529  -2.898  0.00  0.00    -0.355 N 
ATOM      4  H12 <0> d           6.394   5.908  -2.086  0.00  0.00     0.162 HD
ENDROOT
BRANCH   3   5
ATOM      5  C11 <0> d           4.766   4.782  -2.853  0.00  0.00     0.150 C 
BRANCH   5   6
ATOM      6  C12 <0> d           4.245   4.749  -1.414  0.00  0.00     0.252 C 
BRANCH   6   7
ATOM      7  N2  <0> d           2.977   3.996  -1.377  0.00  0.00    -0.070 N 
ATOM      8  H23 <0> d           3.142   3.038  -1.710  0.00  0.00     0.277 HD
ATOM      9  H24 <0> d           2.291   4.457  -1.986  0.00  0.00     0.277 HD
BRANCH   7  10
ATOM     10  C13 <0> d           2.450   3.947   0.000  0.00  0.00     0.273 C 
BRANCH  10  11
ATOM     11  C14 <0> d           1.158   3.173   0.008  0.00  0.00     0.002 A 
ATOM     12  C19 <0> d           1.179   1.786   0.000  0.00  0.00     0.073 A 
ATOM     13  C18 <0> d          -0.013   1.076   0.008  0.00  0.00     0.038 A 
ATOM     14  C17 <0> d          -1.218   1.751   0.017  0.00  0.00     0.022 A 
ATOM     15  C16 <0> d          -1.237   3.134   0.030  0.00  0.00     0.011 A 
ATOM     16  C15 <0> d          -0.050   3.844   0.023  0.00  0.00     0.030 A 
ATOM     17 Br1  <0> d          -2.888   4.055   0.050  0.00  0.00    -0.051 Br
BRANCH  12  18
ATOM     18  O5  <0> d           2.366   1.124  -0.015  0.00  0.00    -0.360 OA
ATOM     19  H22 <0> d           2.701   0.938  -0.903  0.00  0.00     0.217 HD
ENDBRANCH  12  18
ENDBRANCH  10  11
ENDBRANCH   7  10
ENDBRANCH   6   7
ENDBRANCH   5   6
ENDBRANCH   3   5
BRANCH   1  20
ATOM     20  C4  <0> d           7.940   6.441  -4.117  0.00  0.00     0.037 A 
ATOM     21  C3  <0> d           8.611   6.608  -5.331  0.00  0.00     0.057 A 
ATOM     22  C2  <0> d           9.799   7.313  -5.372  0.00  0.00     0.105 A 
ATOM     23  C7  <0> d          10.327   7.858  -4.204  0.00  0.00     0.135 A 
ATOM     24  C6  <0> d           9.661   7.693  -2.993  0.00  0.00     0.105 A 
ATOM     25  C5  <0> d           8.470   6.993  -2.948  0.00  0.00     0.057 A 
BRANCH  22  26
ATOM     26  O1  <0> d          10.453   7.476  -6.553  0.00  0.00    -0.353 OA
ATOM     27  C1  <0> d           9.854   6.891  -7.712  0.00  0.00     0.210 C 
ENDBRANCH  22  26
BRANCH  23  28
ATOM     28  O2  <0> d          11.495   8.552  -4.247  0.00  0.00    -0.351 OA
ATOM     29  C8  <0> d          11.405   9.959  -4.477  0.00  0.00     0.210 C 
ENDBRANCH  23  28
BRANCH  24  30
ATOM     30  O3  <0> d          10.180   8.226  -1.854  0.00  0.00    -0.353 OA
ATOM     31  C9  <0> d           9.444   8.018  -0.647  0.00  0.00     0.210 C 
ENDBRANCH  24  30
ENDBRANCH   1  20
TORSDOF 10
