REMARK  3 active torsions:
REMARK  status: ('A' for Active; 'I' for Inactive)
REMARK    1  A    between atoms: N1_10  and  N3_14 
REMARK       I    between atoms: N3_14  and  C10_15 
REMARK    2  A    between atoms: C10_15  and  C11_17 
REMARK    3  A    between atoms: C11_17  and  N4_18 
ROOT
ATOM      1  N3  <0> d          -4.313   7.619   0.600  0.00  0.00    -0.255 N 
ATOM      2  C10 <0> d          -3.867   6.357   0.443  0.00  0.00     0.255 C 
ATOM      3  O3  <0> d          -4.646   5.467   0.176  0.00  0.00    -0.270 OA
ATOM      4  H15 <0> d          -3.690   8.331   0.813  0.00  0.00     0.191 HD
ENDROOT
BRANCH   1   5
ATOM      5  N1  <0> d          -5.678   7.903   0.454  0.00  0.00    -0.167 N 
ATOM      6  C8  <0> d          -6.514   8.151   1.482  0.00  0.00     0.275 A 
ATOM      7  C5  <0> d          -7.866   8.400   0.852  0.00  0.00     0.117 A 
ATOM      8  O1  <0> d          -6.240   8.171   2.663  0.00  0.00    -0.268 OA
ATOM      9  C4  <0> d          -8.875   7.363   1.333  0.00  0.00     0.041 C 
ATOM     10  N2  <0> d          -7.620   8.251  -0.588  0.00  0.00    -0.323 N 
ATOM     11  C6  <0> d          -8.349   9.811   1.170  0.00  0.00     0.041 C 
ATOM     12  C3  <0> d          -9.082   7.513   2.843  0.00  0.00     0.007 C 
ATOM     13  C2  <0> d          -9.589   8.923   3.149  0.00  0.00    -0.019 C 
ATOM     14  C1  <0> d          -9.807   9.071   4.656  0.00  0.00     0.010 C 
ATOM     15  C7  <0> d          -8.558   9.952   2.680  0.00  0.00     0.007 C 
ATOM     16  C9  <0> d          -6.311   7.966  -0.724  0.00  0.00     0.345 A 
ATOM     17  H14 <0> d          -8.272   8.344  -1.300  0.00  0.00     0.165 HD
ATOM     18  O2  <0> d          -5.767   7.784  -1.795  0.00  0.00    -0.245 OA
ENDBRANCH   1   5
BRANCH   2  19
ATOM     19  C11 <0> d          -2.400   6.052   0.600  0.00  0.00     0.241 C 
BRANCH  19  20
ATOM     20  N4  <0> d          -2.172   4.621   0.383  0.00  0.00    -0.259 N 
ATOM     21  C17 <0> d          -1.901   4.069  -0.812  0.00  0.00     0.328 C 
ATOM     22  N5  <0> d          -1.513   2.799  -0.689  0.00  0.00    -0.320 N 
ATOM     23  O5  <0> d          -1.996   4.654  -1.873  0.00  0.00    -0.247 OA
ATOM     24  C13 <0> d          -1.984   2.368   0.657  0.00  0.00     0.181 C 
ATOM     25  C16 <0> d          -0.806   1.621  -1.209  0.00  0.00     0.129 C 
ATOM     26  C12 <0> d          -2.210   3.686   1.359  0.00  0.00     0.251 C 
ATOM     27  C14 <0> d          -0.782   1.607   1.244  0.00  0.00     0.037 C 
ATOM     28  O4  <0> d          -2.388   3.867   2.544  0.00  0.00    -0.271 OA
ATOM     29  C15 <0> d          -0.013   1.086   0.008  0.00  0.00     0.022 C 
ENDBRANCH  19  20
ENDBRANCH   2  19
TORSDOF 3
