REMARK  5 active torsions:
REMARK  status: ('A' for Active; 'I' for Inactive)
REMARK    1  A    between atoms: C7_8  and  C10_11 
REMARK    2  A    between atoms: C10_11  and  C11_12 
REMARK    3  A    between atoms: C11_12  and  N2_13 
REMARK       I    between atoms: N2_13  and  C12_14 
REMARK    4  A    between atoms: C12_14  and  C13_16 
REMARK       I    between atoms: N3_18  and  C21_26 
REMARK    5  A    between atoms: C21_26  and  C22_28 
ROOT
ATOM      1  C13 <0> d           5.460   0.123  -7.060  0.00  0.00     0.106 C 
ATOM      2  C14 <0> d           5.100   0.692  -8.451  0.00  0.00     0.140 C 
ATOM      3  N3  <0> d           5.959  -0.059  -9.397  0.00  0.00    -0.350 N 
ATOM      4  C15 <0> d           5.959  -1.446  -8.873  0.00  0.00     0.136 C 
ATOM      5  C16 <0> d           6.023  -1.281  -7.341  0.00  0.00    -0.007 C 
ATOM      6  C17 <0> d           5.163  -2.341  -6.660  0.00  0.00     0.039 C 
ATOM      7  C18 <0> d           5.775  -3.723  -6.905  0.00  0.00     0.233 C 
ATOM      8  N4  <0> d           7.142  -3.756  -6.372  0.00  0.00    -0.075 N 
ATOM      9  C19 <0> d           7.986  -2.798  -7.096  0.00  0.00     0.233 C 
ATOM     10  C20 <0> d           7.467  -1.377  -6.859  0.00  0.00     0.039 C 
ATOM     11  C21 <0> d           6.596   0.412 -10.487  0.00  0.00     0.224 C 
ATOM     12  O2  <0> d           6.563   1.597 -10.743  0.00  0.00    -0.273 OA
ATOM     13  H24 <0> d           7.126  -3.514  -5.392  0.00  0.00     0.277 HD
ATOM     14  H37 <0> d           7.521  -4.685  -6.479  0.00  0.00     0.277 HD
ENDROOT
BRANCH   1  15
ATOM     15  C12 <0> d           4.229   0.031  -6.196  0.00  0.00     0.224 C 
ATOM     16  N2  <0> d           4.340   0.114  -4.855  0.00  0.00    -0.360 N 
ATOM     17  H15 <0> d           5.212   0.232  -4.447  0.00  0.00     0.162 HD
ATOM     18  O1  <0> d           3.139  -0.117  -6.707  0.00  0.00    -0.273 OA
BRANCH  16  19
ATOM     19  C11 <0> d           3.143   0.024  -4.015  0.00  0.00     0.127 C 
BRANCH  19  20
ATOM     20  C10 <0> d           3.543   0.146  -2.543  0.00  0.00     0.060 C 
BRANCH  20  21
ATOM     21  C7  <0> d           2.312   0.054  -1.678  0.00  0.00    -0.029 A 
ATOM     22  C6  <0> d           1.595   1.082  -1.200  0.00  0.00     0.096 A 
ATOM     23  N1  <0> d           0.546   0.613  -0.455  0.00  0.00    -0.365 N 
ATOM     24  C5  <0> d           0.565  -0.763  -0.436  0.00  0.00     0.043 A 
ATOM     25  H9  <0> d          -0.112   1.168  -0.008  0.00  0.00     0.165 HD
ATOM     26  C4  <0> d          -0.249  -1.724   0.155  0.00  0.00     0.031 A 
ATOM     27  C8  <0> d           1.672  -1.174  -1.202  0.00  0.00    -0.001 A 
ATOM     28  C3  <0> d           0.037  -3.061  -0.015  0.00  0.00     0.009 A 
ATOM     29  C2  <0> d           1.129  -3.461  -0.771  0.00  0.00    -0.061 A 
ATOM     30  C1  <0> d           1.422  -4.929  -0.943  0.00  0.00     0.048 C 
ATOM     31  C9  <0> d           1.945  -2.534  -1.356  0.00  0.00     0.021 A 
ENDBRANCH  20  21
ENDBRANCH  19  20
ENDBRANCH  16  19
ENDBRANCH   1  15
BRANCH  11  32
ATOM     32  C22 <0> d           7.349  -0.533 -11.387  0.00  0.00     0.082 C 
ATOM     33  C27 <0> d           6.393  -1.131 -12.421  0.00  0.00     0.041 C 
ATOM     34  C26 <0> d           7.168  -1.856 -13.482  0.00  0.00    -0.030 C 
ATOM     35  C25 <0> d           8.437  -1.702 -13.689  0.00  0.00    -0.031 C 
ATOM     36  C24 <0> d           9.312  -0.780 -12.892  0.00  0.00     0.027 C 
ATOM     37  C23 <0> d           8.455   0.230 -12.127  0.00  0.00     0.018 C 
ENDBRANCH  11  32
TORSDOF 5
