REMARK  2 active torsions:
REMARK  status: ('A' for Active; 'I' for Inactive)
REMARK    1  A    between atoms: C6_6  and  N1_8 
REMARK    2  A    between atoms: C9_11  and  C12_18 
ROOT
ATOM      1  N1  <0> d           0.137  -2.797   4.779  0.00  0.00    -0.230 N 
ATOM      2  C8  <0> d           0.261  -4.139   4.785  0.00  0.00     0.269 A 
ATOM      3  O1  <0> d           0.433  -4.734   5.834  0.00  0.00    -0.267 OA
ATOM      4  C9  <0> d           0.188  -4.848   3.573  0.00  0.00     0.100 A 
ATOM      5  C10 <0> d          -0.006  -4.158   2.413  0.00  0.00     0.197 A 
ATOM      6  N2  <0> d          -0.127  -2.792   2.451  0.00  0.00    -0.285 N 
ATOM      7  H1  <0> d          -0.265  -2.297   1.629  0.00  0.00     0.172 HD
ATOM      8  C11 <0> d          -0.060  -2.135   3.624  0.00  0.00     0.336 A 
ATOM      9  O2  <0> d          -0.174  -0.924   3.639  0.00  0.00    -0.246 OA
ATOM     10  O3  <0> d          -0.080  -4.814   1.235  0.00  0.00    -0.171 OA
ENDROOT
BRANCH   4  11
ATOM     11  C12 <0> d           0.324  -6.348   3.556  0.00  0.00     0.289 C 
ATOM     12  N4  <0> d           1.522  -6.729   2.791  0.00  0.00     0.095 N 
ATOM     13  C22 <0> d           1.563  -6.139   1.449  0.00  0.00     0.275 C 
ATOM     14  H19 <0> d           2.362  -6.517   3.307  0.00  0.00     0.316 HD
ATOM     15  C21 <0> d           0.410  -6.691   0.591  0.00  0.00     0.067 C 
ATOM     16  C14 <0> d          -0.843  -6.533   1.417  0.00  0.00    -0.041 A 
ATOM     17  C13 <0> d          -0.899  -6.969   2.877  0.00  0.00     0.150 A 
ATOM     18  C15 <0> d          -2.011  -5.966   1.149  0.00  0.00    -0.005 A 
ATOM     19  N3  <0> d          -2.160  -6.456   3.410  0.00  0.00    -0.378 N 
ATOM     20  C20 <0> d          -2.816  -5.903   2.408  0.00  0.00     0.039 A 
ATOM     21  H20 <0> d          -2.450  -6.513   4.334  0.00  0.00     0.160 HD
ATOM     22  C19 <0> d          -4.112  -5.311   2.377  0.00  0.00     0.030 A 
ATOM     23  C18 <0> d          -4.555  -4.840   1.184  0.00  0.00     0.002 A 
ATOM     24  C17 <0> d          -3.827  -4.898  -0.008  0.00  0.00     0.001 A 
ATOM     25  C16 <0> d          -2.581  -5.433  -0.099  0.00  0.00     0.014 A 
ENDBRANCH   4  11
BRANCH   1  26
ATOM     26  C6  <0> d           0.209  -2.086   5.984  0.00  0.00     0.047 A 
ATOM     27  C5  <0> d          -0.944  -1.843   6.718  0.00  0.00     0.030 A 
ATOM     28  C4  <0> d          -0.870  -1.142   7.906  0.00  0.00     0.003 A 
ATOM     29  C3  <0> d           0.351  -0.684   8.365  0.00  0.00     0.007 A 
ATOM     30  C2  <0> d           1.501  -0.925   7.637  0.00  0.00    -0.060 A 
ATOM     31  C1  <0> d           2.830  -0.425   8.141  0.00  0.00     0.048 C 
ATOM     32  C7  <0> d           1.433  -1.620   6.445  0.00  0.00     0.037 A 
ENDBRANCH   1  26
TORSDOF 2
