REMARK  1 active torsions:
REMARK  status: ('A' for Active; 'I' for Inactive)
REMARK       I    between atoms: N1_2  and  C2_3 
REMARK    1  A    between atoms: C2_3  and  C3_5 
ROOT
ATOM      1  C3  <0> d           0.043  -2.191   1.157  0.00  0.00     0.290 C 
ATOM      2  C4  <0> d           1.278  -2.715   0.388  0.00  0.00     0.126 C 
ATOM      3  C5  <0> d           1.725  -3.955   1.151  0.00  0.00     0.179 C 
ATOM      4  C6  <0> d           0.724  -4.096   2.273  0.00  0.00     0.358 C 
ATOM      5  N2  <0> d           1.275  -4.726   3.456  0.00  0.00    -0.356 N 
ATOM      6  C7  <0> d           1.981  -3.972   4.396  0.00  0.00     0.037 A 
ATOM      7  C8  <0> d           2.656  -4.597   5.435  0.00  0.00     0.030 A 
ATOM      8  C9  <0> d           3.337  -3.837   6.367  0.00  0.00     0.002 A 
ATOM      9  C10 <0> d           3.342  -2.458   6.260  0.00  0.00     0.001 A 
ATOM     10  C11 <0> d           2.675  -1.836   5.222  0.00  0.00     0.011 A 
ATOM     11  C12 <0> d           1.996  -2.590   4.280  0.00  0.00    -0.006 A 
ATOM     12  C13 <0> d           1.308  -1.907   3.136  0.00  0.00     0.279 C 
ATOM     13  N3  <0> d           0.238  -2.724   2.544  0.00  0.00    -0.026 N 
ATOM     14  O2  <0> d           2.670  -4.668   0.911  0.00  0.00    -0.294 OA
ATOM     15  H14 <0> d           1.152  -5.678   3.596  0.00  0.00     0.162 HD
ATOM     16  H15 <0> d          -0.613  -2.715   3.086  0.00  0.00     0.284 HD
ENDROOT
BRANCH   1  17
ATOM     17  C2  <0> d           0.022  -0.684   1.165  0.00  0.00     0.259 C 
ATOM     18  N1  <0> d          -0.952  -0.020   0.512  0.00  0.00    -0.293 N 
ATOM     19  C1  <0> d          -0.972   1.445   0.520  0.00  0.00     0.165 C 
ATOM     20  I1  <0> d          -2.405  -1.059  -0.492  0.00  0.00     0.061 I 
ATOM     21  O1  <0> d           0.882  -0.069   1.760  0.00  0.00    -0.270 OA
ENDBRANCH   1  17
TORSDOF 1
