REMARK  7 active torsions:
REMARK  status: ('A' for Active; 'I' for Inactive)
REMARK    1  A    between atoms: C7_7  and  C8_8 
REMARK    2  A    between atoms: N1_9  and  C9_10 
REMARK    3  A    between atoms: C10_13  and  C11_16 
REMARK    4  A    between atoms: C11_16  and  C12_17 
REMARK    5  A    between atoms: C12_17  and  C13_18 
REMARK    6  A    between atoms: C13_18  and  O1_19 
REMARK    7  A    between atoms: N5_22  and  C16_25 
ROOT
ATOM      1  C1  <0> d          -0.068   1.363   0.280  0.00  0.00     0.001 A 
ATOM      2  C2  <0> d           1.108   2.099   0.306  0.00  0.00     0.001 A 
ATOM      3  C3  <0> d           2.333   1.470   0.238  0.00  0.00     0.018 A 
ATOM      4  C4  <0> d           2.391   0.079   0.142  0.00  0.00     0.044 A 
ATOM      5  C5  <0> d           1.193  -0.665   0.117  0.00  0.00    -0.003 A 
ATOM      6  C6  <0> d          -0.033  -0.013   0.186  0.00  0.00     0.013 A 
ATOM      7  C7  <0> d           1.287  -2.136   0.015  0.00  0.00     0.060 A 
ATOM      8  C14 <0> d           2.624  -2.738  -0.054  0.00  0.00     0.267 A 
ATOM      9  O2  <0> d           2.737  -3.947  -0.139  0.00  0.00    -0.267 OA
ATOM     10  N5  <0> d           3.724  -1.968  -0.025  0.00  0.00    -0.242 N 
ATOM     11  C15 <0> d           3.675  -0.629   0.068  0.00  0.00     0.266 A 
ATOM     12  O3  <0> d           4.711   0.007   0.089  0.00  0.00    -0.267 OA
ENDROOT
BRANCH   7  13
ATOM     13  C8  <0> d           0.154  -2.919  -0.016  0.00  0.00     0.124 C 
ATOM     14  N1  <0> d          -1.011  -2.410  -0.499  0.00  0.00    -0.198 N 
ATOM     15  H7  <0> d          -1.023  -1.534  -0.915  0.00  0.00     0.183 HD
BRANCH  14  16
ATOM     16  C9  <0> d          -2.184  -3.146  -0.398  0.00  0.00     0.724 A 
ATOM     17  N4  <0> d          -3.372  -2.780  -0.819  0.00  0.00     0.044 NA
ATOM     18  N3  <0> d          -4.227  -3.706  -0.566  0.00  0.00    -0.120 NA
ATOM     19  C10 <0> d          -3.641  -4.704   0.035  0.00  0.00     0.142 A 
ATOM     20  N2  <0> d          -2.320  -4.382   0.163  0.00  0.00    -0.174 N 
ATOM     21  H1  <0> d          -1.623  -4.921   0.568  0.00  0.00     0.185 HD
BRANCH  19  22
ATOM     22  C11 <0> d          -4.299  -5.976   0.502  0.00  0.00     0.083 C 
BRANCH  22  23
ATOM     23  C12 <0> d          -5.473  -5.636   1.423  0.00  0.00     0.033 C 
BRANCH  23  24
ATOM     24  C13 <0> d          -6.141  -6.928   1.897  0.00  0.00     0.164 C 
BRANCH  24  25
ATOM     25  O1  <0> d          -7.237  -6.609   2.757  0.00  0.00    -0.401 OA
ATOM     26  H14 <0> d          -7.708  -7.383   3.096  0.00  0.00     0.209 HD
ENDBRANCH  24  25
ENDBRANCH  23  24
ENDBRANCH  22  23
ENDBRANCH  19  22
ENDBRANCH  14  16
ENDBRANCH   7  13
BRANCH  10  27
ATOM     27  C16 <0> d           4.978  -2.589  -0.094  0.00  0.00     0.067 A 
ATOM     28  C21 <0> d           5.627  -2.979   1.072  0.00  0.00     0.061 A 
ATOM     29  C20 <0> d           6.861  -3.597   1.000  0.00  0.00     0.026 A 
ATOM     30 Cl1  <0> d           4.884  -2.698   2.615  0.00  0.00    -0.082 Cl
ATOM     31  C19 <0> d           7.455  -3.817  -0.229  0.00  0.00     0.002 A 
ATOM     32  C18 <0> d           6.815  -3.424  -1.390  0.00  0.00     0.002 A 
ATOM     33  C17 <0> d           5.578  -2.811  -1.326  0.00  0.00     0.032 A 
ENDBRANCH  10  27
TORSDOF 7
