REMARK  7 active torsions:
REMARK  status: ('A' for Active; 'I' for Inactive)
REMARK    1  A    between atoms: C2_2  and  C3_3 
REMARK    2  A    between atoms: C3_3  and  O1_4 
REMARK    3  A    between atoms: O1_4  and  C4_5 
REMARK    4  A    between atoms: C4_5  and  C5_6 
REMARK    5  A    between atoms: C5_6  and  N1_7 
REMARK       I    between atoms: N1_7  and  C6_8 
REMARK    6  A    between atoms: C6_8  and  C7_10 
REMARK       I    between atoms: N2_12  and  C15_20 
REMARK    7  A    between atoms: C15_20  and  C16_22 
ROOT
ATOM      1  C7  <0> d          -1.047  -6.286   2.741  0.00  0.00     0.106 C 
ATOM      2  C8  <0> d          -1.872  -5.823   3.962  0.00  0.00     0.141 C 
ATOM      3  N2  <0> d          -2.737  -6.981   4.290  0.00  0.00    -0.345 N 
ATOM      4  C9  <0> d          -1.865  -8.162   4.085  0.00  0.00     0.136 C 
ATOM      5  C10 <0> d          -1.041  -7.822   2.827  0.00  0.00    -0.007 C 
ATOM      6  C11 <0> d           0.387  -8.338   2.976  0.00  0.00     0.039 C 
ATOM      7  C12 <0> d           0.371  -9.869   3.001  0.00  0.00     0.233 C 
ATOM      8  N3  <0> d          -0.227 -10.374   1.759  0.00  0.00    -0.075 N 
ATOM      9  C13 <0> d          -1.629  -9.950   1.669  0.00  0.00     0.233 C 
ATOM     10  C14 <0> d          -1.698  -8.423   1.588  0.00  0.00     0.039 C 
ATOM     11  C15 <0> d          -4.025  -6.963   4.686  0.00  0.00     0.274 C 
ATOM     12  O3  <0> d          -4.604  -8.007   4.920  0.00  0.00    -0.266 OA
ATOM     13  H22 <0> d           0.284 -10.010   0.969  0.00  0.00     0.277 HD
ATOM     14  H34 <0> d          -0.180 -11.382   1.750  0.00  0.00     0.277 HD
ENDROOT
BRANCH   1  15
ATOM     15  C6  <0> d          -1.703  -5.835   1.462  0.00  0.00     0.224 C 
ATOM     16  N1  <0> d          -0.955  -5.606   0.365  0.00  0.00    -0.359 N 
ATOM     17  H13 <0> d           0.006  -5.732   0.398  0.00  0.00     0.162 HD
ATOM     18  O2  <0> d          -2.905  -5.677   1.420  0.00  0.00    -0.273 OA
BRANCH  16  19
ATOM     19  C5  <0> d          -1.593  -5.167  -0.879  0.00  0.00     0.148 C 
BRANCH  19  20
ATOM     20  C4  <0> d          -0.528  -4.981  -1.961  0.00  0.00     0.187 C 
BRANCH  20  21
ATOM     21  O1  <0> d           0.067  -6.244  -2.266  0.00  0.00    -0.390 OA
BRANCH  21  22
ATOM     22  C3  <0> d           1.081  -6.181  -3.271  0.00  0.00     0.167 C 
BRANCH  22  23
ATOM     23  C2  <0> d           1.643  -7.583  -3.516  0.00  0.00     0.022 C 
ATOM     24  C1  <0> d           2.729  -7.516  -4.592  0.00  0.00     0.007 C 
ENDBRANCH  22  23
ENDBRANCH  21  22
ENDBRANCH  20  21
ENDBRANCH  19  20
ENDBRANCH  16  19
ENDBRANCH   1  15
BRANCH  11  25
ATOM     25  C16 <0> d          -4.735  -5.676   4.836  0.00  0.00     0.146 A 
ATOM     26  N5  <0> d          -4.236  -4.476   4.619  0.00  0.00    -0.167 NA
ATOM     27  N4  <0> d          -5.130  -3.580   4.842  0.00  0.00    -0.278 N 
ATOM     28  C18 <0> d          -6.284  -4.160   5.236  0.00  0.00     0.028 A 
ATOM     29  C19 <0> d          -4.924  -2.137   4.696  0.00  0.00     0.179 C 
ATOM     30  C17 <0> d          -6.077  -5.498   5.246  0.00  0.00     0.065 A 
ATOM     31  C20 <0> d          -7.564  -3.450   5.596  0.00  0.00     0.070 C 
ENDBRANCH  11  25
TORSDOF 7
