REMARK  3 active torsions:
REMARK  status: ('A' for Active; 'I' for Inactive)
REMARK    1  A    between atoms: C7_7  and  N1_12 
REMARK    2  A    between atoms: N1_12  and  C9_13 
REMARK    3  A    between atoms: C9_13  and  C10_14 
ROOT
ATOM      1  C1  <0> d           4.069  -1.975  -2.779  0.00  0.00     0.001 A 
ATOM      2  C2  <0> d           5.200  -2.082  -1.990  0.00  0.00     0.002 A 
ATOM      3  C3  <0> d           5.053  -2.197  -0.619  0.00  0.00     0.024 A 
ATOM      4  C4  <0> d           3.796  -2.201  -0.059  0.00  0.00     0.067 A 
ATOM      5  C5  <0> d           2.649  -2.080  -0.827  0.00  0.00    -0.005 A 
ATOM      6  C6  <0> d           2.816  -1.975  -2.212  0.00  0.00     0.011 A 
ATOM      7  C7  <0> d           1.339  -2.056  -0.077  0.00  0.00     0.234 C 
ATOM      8  C8  <0> d           1.475  -2.672   1.333  0.00  0.00     0.183 C 
ATOM      9  S1  <0> d           3.263  -2.352   1.632  0.00  0.00     0.178 S 
ATOM     10  O1  <0> d           3.910  -3.510   2.141  0.00  0.00    -0.223 OA
ATOM     11  O2  <0> d           3.462  -1.073   2.217  0.00  0.00    -0.223 OA
ENDROOT
BRANCH   7  12
ATOM     12  N1  <0> d           0.339  -2.819  -0.837  0.00  0.00    -0.066 N 
ATOM     13  H9  <0> d           0.285  -2.459  -1.778  0.00  0.00     0.278 HD
ATOM     14  H18 <0> d           0.607  -3.791  -0.863  0.00  0.00     0.278 HD
BRANCH  12  15
ATOM     15  C9  <0> d          -0.972  -2.689  -0.187  0.00  0.00     0.238 C 
BRANCH  15  16
ATOM     16  C10 <0> d          -2.026  -3.430  -1.013  0.00  0.00     0.026 C 
ATOM     17  C13 <0> d          -3.391  -3.405  -0.267  0.00  0.00     0.146 C 
ATOM     18  S2  <0> d          -4.542  -3.769  -1.659  0.00  0.00     0.144 S 
ATOM     19  C12 <0> d          -3.480  -3.265  -3.073  0.00  0.00     0.141 C 
ATOM     20  O3  <0> d          -5.655  -2.888  -1.580  0.00  0.00    -0.228 OA
ATOM     21  O4  <0> d          -4.763  -5.171  -1.723  0.00  0.00    -0.228 OA
ATOM     22  C11 <0> d          -2.209  -2.729  -2.369  0.00  0.00     0.022 C 
ENDBRANCH  15  16
ENDBRANCH  12  15
ENDBRANCH   7  12
TORSDOF 3
