REMARK  7 active torsions:
REMARK  status: ('A' for Active; 'I' for Inactive)
REMARK    1  A    between atoms: N1_3  and  C4_6 
REMARK    2  A    between atoms: C4_6  and  C5_7 
REMARK    3  A    between atoms: C5_7  and  C6_8 
REMARK    4  A    between atoms: C6_8  and  N3_9 
REMARK    5  A    between atoms: N3_9  and  C7_10 
REMARK    6  A    between atoms: C7_10  and  C8_11 
REMARK    7  A    between atoms: N5_16  and  C12_19 
ROOT
ATOM      1  C8  <0> d           7.871   0.772   4.299  0.00  0.00     0.115 A 
ATOM      2  C9  <0> d           6.966   0.647   5.456  0.00  0.00     0.264 A 
ATOM      3  O1  <0> d           5.762   0.560   5.301  0.00  0.00    -0.267 OA
ATOM      4  N4  <0> d           7.508   0.633   6.691  0.00  0.00    -0.299 N 
ATOM      5  C10 <0> d           8.832   0.728   6.876  0.00  0.00     0.184 A 
ATOM      6  N5  <0> d           9.713   0.844   5.872  0.00  0.00    -0.285 N 
ATOM      7  C11 <0> d           9.314   0.866   4.584  0.00  0.00     0.267 A 
ATOM      8  O2  <0> d          10.124   0.966   3.681  0.00  0.00    -0.267 OA
ATOM      9  S1  <0> d           9.431   0.701   8.480  0.00  0.00    -0.040 SA
ATOM     10  H16 <0> d           6.927   0.551   7.463  0.00  0.00     0.171 HD
ENDROOT
BRANCH   1  11
ATOM     11  C7  <0> d           7.388   0.793   3.005  0.00  0.00     0.105 C 
BRANCH  11  12
ATOM     12  N3  <0> d           6.059   0.834   2.781  0.00  0.00    -0.398 N 
ATOM     13  H17 <0> d           5.440   0.776   3.526  0.00  0.00     0.158 HD
BRANCH  12  14
ATOM     14  C6  <0> d           5.549   0.968   1.414  0.00  0.00     0.120 C 
BRANCH  14  15
ATOM     15  C5  <0> d           4.019   0.989   1.440  0.00  0.00     0.040 C 
BRANCH  15  16
ATOM     16  C4  <0> d           3.487   1.128   0.012  0.00  0.00     0.131 C 
BRANCH  16  17
ATOM     17  N1  <0> d           2.023   1.148   0.037  0.00  0.00    -0.350 N 
ATOM     18  C2  <0> d           1.228   2.256   0.151  0.00  0.00     0.111 A 
ATOM     19  C1  <0> d          -0.048   1.825   0.131  0.00  0.00     0.135 A 
ATOM     20  N2  <0> d          -0.032   0.489   0.008  0.00  0.00    -0.255 NA
ATOM     21  C3  <0> d           1.205   0.077  -0.049  0.00  0.00     0.209 A 
ENDBRANCH  16  17
ENDBRANCH  15  16
ENDBRANCH  14  15
ENDBRANCH  12  14
ENDBRANCH  11  12
ENDBRANCH   1  11
BRANCH   6  22
ATOM     22  C12 <0> d          11.142   0.943   6.181  0.00  0.00     0.096 A 
ATOM     23  C14 <0> d          11.806  -0.264   6.846  0.00  0.00     0.028 A 
ATOM     24  C13 <0> d          12.100   0.060   5.380  0.00  0.00     0.028 A 
ENDBRANCH   6  22
TORSDOF 7
