REMARK  4 active torsions:
REMARK  status: ('A' for Active; 'I' for Inactive)
REMARK    1  A    between atoms: C5_5  and  C8_8 
REMARK    2  A    between atoms: C8_8  and  C9_10 
REMARK    3  A    between atoms: C10_11  and  C14_20 
REMARK    4  A    between atoms: C17_23  and  O2_26 
ROOT
ATOM      1  C9  <0> d           0.030  -0.103   1.070  0.00  0.00     0.159 C 
ATOM      2  C10 <0> d           0.552   0.834  -0.028  0.00  0.00     0.154 C 
ATOM      3  N1  <0> d          -0.285   0.736  -1.224  0.00  0.00    -0.315 N 
ATOM      4  N2  <0> d          -0.333  -0.513  -1.756  0.00  0.00    -0.219 N 
ATOM      5  C11 <0> d          -0.655  -0.863  -3.036  0.00  0.00     0.146 A 
ATOM      6  N3  <0> d          -0.592  -2.164  -3.111  0.00  0.00    -0.133 NA
ATOM      7  N4  <0> d          -0.249  -2.658  -1.972  0.00  0.00    -0.121 NA
ATOM      8  C12 <0> d          -0.073  -1.691  -1.115  0.00  0.00     0.211 A 
ATOM      9  S1  <0> d           0.418  -1.810   0.577  0.00  0.00    -0.073 SA
ATOM     10  C13 <0> d          -1.016   0.080  -4.155  0.00  0.00     0.095 C 
ATOM     11  H10 <0> d          -0.802   1.627  -1.609  0.00  0.00     0.181 HD
ENDROOT
BRANCH   1  12
ATOM     12  C8  <0> d           0.707   0.217   2.378  0.00  0.00     0.176 C 
ATOM     13  O1  <0> d           0.140   0.899   3.204  0.00  0.00    -0.291 OA
BRANCH  12  14
ATOM     14  C5  <0> d           2.058  -0.300   2.652  0.00  0.00     0.011 A 
ATOM     15  C4  <0> d           2.620  -0.156   3.925  0.00  0.00     0.015 A 
ATOM     16  C3  <0> d           3.885  -0.643   4.175  0.00  0.00     0.007 A 
ATOM     17  C2  <0> d           4.599  -1.272   3.170  0.00  0.00    -0.062 A 
ATOM     18  C1  <0> d           5.982  -1.802   3.451  0.00  0.00     0.048 C 
ATOM     19  C7  <0> d           4.050  -1.419   1.908  0.00  0.00     0.007 A 
ATOM     20  C6  <0> d           2.784  -0.942   1.644  0.00  0.00     0.015 A 
ENDBRANCH  12  14
ENDBRANCH   1  12
BRANCH   2  21
ATOM     21  C14 <0> d           0.533   2.253   0.478  0.00  0.00    -0.032 A 
ATOM     22  C19 <0> d           1.694   2.831   0.957  0.00  0.00     0.012 A 
ATOM     23  C18 <0> d           1.679   4.132   1.422  0.00  0.00     0.037 A 
ATOM     24  C17 <0> d           0.498   4.859   1.408  0.00  0.00     0.065 A 
ATOM     25  C16 <0> d          -0.666   4.277   0.926  0.00  0.00     0.037 A 
ATOM     26  C15 <0> d          -0.645   2.978   0.458  0.00  0.00     0.012 A 
BRANCH  24  27
ATOM     27  O2  <0> d           0.481   6.139   1.864  0.00  0.00    -0.361 OA
ATOM     28  H18 <0> d           1.404   6.599   2.245  0.00  0.00     0.217 HD
ENDBRANCH  24  27
ENDBRANCH   2  21
TORSDOF 4
