REMARK  7 active torsions:
REMARK  status: ('A' for Active; 'I' for Inactive)
REMARK    1  A    between atoms: N1_2  and  C2_3 
REMARK    2  A    between atoms: N1_2  and  C9_11 
REMARK    3  A    between atoms: C2_3  and  C3_4 
REMARK    4  A    between atoms: C9_11  and  C10_12 
REMARK    5  A    between atoms: C13_15  and  C14_17 
REMARK    6  A    between atoms: C15_18  and  C16_19 
REMARK    7  A    between atoms: C16_19  and  N2_20 
ROOT
ATOM      1  C10 <0> d           2.158  -0.072   1.120  0.00  0.00     0.009 A 
ATOM      2  C11 <0> d           2.744   1.060   1.591  0.00  0.00     0.018 A 
ATOM      3  C12 <0> d           4.097   1.239   1.414  0.00  0.00     0.029 A 
ATOM      4  C13 <0> d           4.811   0.264   0.765  0.00  0.00     0.058 A 
ATOM      5  S1  <0> d           3.543  -0.939   0.401  0.00  0.00    -0.084 SA
ENDROOT
BRANCH   1   6
ATOM      6  C9  <0> d           0.713  -0.491   1.192  0.00  0.00     0.280 C 
BRANCH   6   7
ATOM      7  N1  <0> d           0.002  -0.004   0.002  0.00  0.00    -0.067 N 
ATOM      8  C1  <0> d          -0.018   1.465   0.010  0.00  0.00     0.270 C 
ATOM      9  H18 <0> d           0.474  -0.330  -0.828  0.00  0.00     0.280 HD
BRANCH   7  10
ATOM     10  C2  <0> d          -1.376  -0.512   0.012  0.00  0.00     0.273 C 
BRANCH  10  11
ATOM     11  C3  <0> d          -2.067  -0.116  -1.267  0.00  0.00    -0.033 A 
ATOM     12  C8  <0> d          -2.014  -0.950  -2.368  0.00  0.00     0.010 A 
ATOM     13  C7  <0> d          -2.652  -0.589  -3.540  0.00  0.00     0.024 A 
ATOM     14  C6  <0> d          -3.336   0.611  -3.613  0.00  0.00     0.034 A 
ATOM     15  C5  <0> d          -3.385   1.448  -2.513  0.00  0.00     0.024 A 
ATOM     16 Cl1  <0> d          -4.133   1.067  -5.087  0.00  0.00    -0.084 Cl
ATOM     17  C4  <0> d          -2.750   1.084  -1.340  0.00  0.00     0.010 A 
ENDBRANCH  10  11
ENDBRANCH   7  10
ENDBRANCH   6   7
ENDBRANCH   1   6
BRANCH   4  18
ATOM     18  C14 <0> d           6.210   0.220   0.462  0.00  0.00    -0.058 C 
ATOM     19  C15 <0> d           7.357   0.184   0.214  0.00  0.00    -0.073 C 
BRANCH  19  20
ATOM     20  C16 <0> d           8.795   0.139  -0.097  0.00  0.00     0.323 C 
BRANCH  20  21
ATOM     21  N2  <0> d           9.104  -1.110  -0.807  0.00  0.00    -0.069 N 
ATOM     22  H16 <0> d           8.861  -1.897  -0.224  0.00  0.00     0.275 HD
ATOM     23  H17 <0> d           8.573  -1.149  -1.664  0.00  0.00     0.275 HD
ATOM     24  H19 <0> d          10.089  -1.141  -1.020  0.00  0.00     0.275 HD
ENDBRANCH  20  21
ENDBRANCH  19  20
ENDBRANCH   4  18
TORSDOF 7
