REMARK  5 active torsions:
REMARK  status: ('A' for Active; 'I' for Inactive)
REMARK    1  A    between atoms: O1_2  and  C2_3 
REMARK    2  A    between atoms: C5_6  and  C8_10 
REMARK    3  A    between atoms: C8_10  and  S1_11 
REMARK    4  A    between atoms: S1_11  and  C9_13 
REMARK    5  A    between atoms: C12_16  and  N1_20 
ROOT
ATOM      1  S1  <0> d           4.261  -2.762  -4.012  0.00  0.00     0.060 S 
ATOM      2  O2  <0> d           4.389  -3.756  -3.005  0.00  0.00    -0.252 OA
ENDROOT
BRANCH   1   3
ATOM      3  C8  <0> d           2.505  -2.502  -4.385  0.00  0.00     0.153 C 
BRANCH   3   4
ATOM      4  C5  <0> d           1.835  -1.835  -3.211  0.00  0.00    -0.043 A 
ATOM      5  C4  <0> d           1.786  -0.455  -3.137  0.00  0.00     0.011 A 
ATOM      6  C3  <0> d           1.173   0.160  -2.062  0.00  0.00     0.040 A 
ATOM      7  C2  <0> d           0.606  -0.607  -1.056  0.00  0.00     0.106 A 
ATOM      8  C7  <0> d           0.661  -1.994  -1.128  0.00  0.00     0.150 A 
ATOM      9  C6  <0> d           1.271  -2.604  -2.210  0.00  0.00     0.053 A 
ATOM     10  F1  <0> d           0.115  -2.744  -0.147  0.00  0.00    -0.203 F 
BRANCH   7  11
ATOM     11  O1  <0> d           0.002  -0.004   0.002  0.00  0.00    -0.353 OA
ATOM     12  C1  <0> d          -0.017   1.425   0.010  0.00  0.00     0.210 C 
ENDBRANCH   7  11
ENDBRANCH   3   4
ENDBRANCH   1   3
BRANCH   1  13
ATOM     13  C9  <0> d           4.894  -3.539  -5.461  0.00  0.00     0.108 A 
ATOM     14  C14 <0> d           5.400  -2.769  -6.494  0.00  0.00     0.140 A 
ATOM     15  C13 <0> d           5.902  -3.377  -7.630  0.00  0.00     0.072 A 
ATOM     16  F2  <0> d           5.408  -1.422  -6.390  0.00  0.00    -0.204 F 
ATOM     17  C12 <0> d           5.889  -4.761  -7.739  0.00  0.00     0.031 A 
ATOM     18  C11 <0> d           5.376  -5.532  -6.704  0.00  0.00     0.072 A 
ATOM     19  C10 <0> d           4.879  -4.920  -5.567  0.00  0.00     0.140 A 
ATOM     20  F3  <0> d           4.379  -5.670  -4.561  0.00  0.00    -0.204 F 
BRANCH  17  21
ATOM     21  N1  <0> d           6.392  -5.378  -8.887  0.00  0.00    -0.399 N 
ATOM     22  H11 <0> d           6.382  -6.345  -8.962  0.00  0.00     0.156 HD
ATOM     23  H12 <0> d           6.750  -4.838  -9.610  0.00  0.00     0.156 HD
ENDBRANCH  17  21
ENDBRANCH   1  13
TORSDOF 5
