REMARK  5 active torsions:
REMARK  status: ('A' for Active; 'I' for Inactive)
REMARK    1  A    between atoms: C3_3  and  C6_8 
REMARK    2  A    between atoms: C6_8  and  N3_10 
REMARK       I    between atoms: N3_10  and  C8_11 
REMARK    3  A    between atoms: C8_11  and  C9_13 
REMARK       I    between atoms: C9_13  and  N4_15 
REMARK    4  A    between atoms: N4_15  and  C10_16 
REMARK    5  A    between atoms: C15_21  and  C16_22 
ROOT
ATOM      1  N3  <0> d           0.496  -1.397  -3.390  0.00  0.00    -0.344 N 
ATOM      2  C8  <0> d           1.044  -1.102  -4.586  0.00  0.00     0.310 C 
ATOM      3  O1  <0> d           1.146   0.055  -4.937  0.00  0.00    -0.262 OA
ATOM      4  H12 <0> d           0.414  -2.322  -3.109  0.00  0.00     0.163 HD
ENDROOT
BRANCH   2   5
ATOM      5  C9  <0> d           1.525  -2.198  -5.478  0.00  0.00     0.314 C 
ATOM      6  O2  <0> d           1.423  -3.356  -5.127  0.00  0.00    -0.262 OA
ATOM      7  N4  <0> d           2.073  -1.903  -6.674  0.00  0.00    -0.318 N 
ATOM      8  H13 <0> d           2.082  -0.986  -6.989  0.00  0.00     0.169 HD
BRANCH   7   9
ATOM      9  C10 <0> d           2.627  -2.918  -7.458  0.00  0.00     0.041 A 
ATOM     10  C15 <0> d           2.712  -2.765  -8.836  0.00  0.00    -0.028 A 
ATOM     11  C14 <0> d           3.266  -3.767  -9.608  0.00  0.00     0.010 A 
ATOM     12  C13 <0> d           3.725  -4.927  -9.011  0.00  0.00     0.001 A 
ATOM     13  C12 <0> d           3.638  -5.085  -7.640  0.00  0.00     0.002 A 
ATOM     14  C11 <0> d           3.090  -4.084  -6.862  0.00  0.00     0.030 A 
BRANCH  10  15
ATOM     15  C16 <0> d           2.205  -1.504  -9.488  0.00  0.00     0.013 C 
ATOM     16  C17 <0> d           3.321  -0.880 -10.329  0.00  0.00     0.015 C 
ATOM     17  C18 <0> d           1.014  -1.839 -10.388  0.00  0.00     0.015 C 
ENDBRANCH  10  15
ENDBRANCH   7   9
ENDBRANCH   2   5
BRANCH   1  18
ATOM     18  C6  <0> d           0.024  -0.322  -2.515  0.00  0.00     0.117 C 
ATOM     19  C7  <0> d          -1.403   0.067  -2.908  0.00  0.00     0.037 C 
BRANCH  18  20
ATOM     20  C3  <0> d           0.040  -0.795  -1.084  0.00  0.00     0.007 A 
ATOM     21  C2  <0> d           0.044  -0.006   0.015  0.00  0.00     0.036 A 
ATOM     22  C1  <0> d           0.035   1.501   0.028  0.00  0.00     0.070 C 
ATOM     23  N2  <0> d           0.064  -0.810   1.099  0.00  0.00    -0.278 N 
ATOM     24  N1  <0> d           0.064  -2.137   0.650  0.00  0.00    -0.184 NA
ATOM     25  C5  <0> d           0.080  -0.373   2.497  0.00  0.00     0.179 C 
ATOM     26  C4  <0> d           0.052  -2.127  -0.658  0.00  0.00     0.150 A 
ENDBRANCH  18  20
ENDBRANCH   1  18
TORSDOF 5
