REMARK  3 active torsions:
REMARK  status: ('A' for Active; 'I' for Inactive)
REMARK    1  A    between atoms: C3_6  and  C4_7 
REMARK    2  A    between atoms: C4_7  and  C5_8 
REMARK    3  A    between atoms: C4_7  and  O3_20 
ROOT
ATOM      1  C5  <0> d          -1.693  -1.104  -1.403  0.00  0.00    -0.004 A 
ATOM      2  C6  <0> d          -2.704  -0.300  -1.899  0.00  0.00     0.051 A 
ATOM      3  C7  <0> d          -3.151  -0.482  -3.196  0.00  0.00     0.102 A 
ATOM      4  C8  <0> d          -2.587  -1.467  -3.995  0.00  0.00     0.103 A 
ATOM      5  C9  <0> d          -1.577  -2.271  -3.496  0.00  0.00     0.059 A 
ATOM      6  C10 <0> d          -1.127  -2.082  -2.200  0.00  0.00     0.023 A 
ATOM      7 Br1  <0> d           0.259  -3.171  -1.515  0.00  0.00    -0.050 Br
ATOM      8  O1  <0> d          -3.035  -1.638  -5.273  0.00  0.00    -0.348 OA
ATOM      9  C11 <0> d          -4.365  -2.142  -5.407  0.00  0.00     0.178 C 
ATOM     10  C12 <0> d          -5.381  -1.014  -5.320  0.00  0.00     0.053 C 
ATOM     11  C13 <0> d          -5.391  -0.348  -3.953  0.00  0.00     0.178 C 
ATOM     12  O2  <0> d          -4.146   0.305  -3.699  0.00  0.00    -0.348 OA
ENDROOT
BRANCH   1  13
ATOM     13  C4  <0> d          -1.203  -0.909   0.009  0.00  0.00     0.204 C 
BRANCH  13  14
ATOM     14  C3  <0> d           0.002  -0.004   0.002  0.00  0.00     0.062 A 
ATOM     15  C1  <0> d          -0.016   1.349   0.009  0.00  0.00     0.050 A 
ATOM     16  C2  <0> d           1.308   1.797  -0.001  0.00  0.00     0.141 A 
ATOM     17  N1  <0> d           2.094   0.751  -0.014  0.00  0.00    -0.187 NA
ATOM     18  N2  <0> d           1.293  -0.398  -0.012  0.00  0.00    -0.280 N 
ATOM     19  H1  <0> d           1.610  -1.315  -0.021  0.00  0.00     0.189 HD
ENDBRANCH  13  14
BRANCH  13  20
ATOM     20  O3  <0> d          -2.239  -0.317   0.795  0.00  0.00    -0.385 OA
ATOM     21  H13 <0> d          -2.532   0.546   0.473  0.00  0.00     0.211 HD
ENDBRANCH  13  20
ENDBRANCH   1  13
TORSDOF 3
