REMARK  7 active torsions:
REMARK  status: ('A' for Active; 'I' for Inactive)
REMARK    1  A    between atoms: S1_2  and  N1_5 
REMARK    2  A    between atoms: N1_5  and  C2_6 
REMARK    3  A    between atoms: C2_6  and  C3_7 
REMARK    4  A    between atoms: C3_7  and  N2_8 
REMARK    5  A    between atoms: N2_8  and  C4_9 
REMARK    6  A    between atoms: C4_9  and  C5_10 
REMARK    7  A    between atoms: C6_12  and  C8_15 
ROOT
ATOM      1  C5  <0> d           6.255  -0.861  -4.164  0.00  0.00     0.103 A 
ATOM      2  N3  <0> d           7.299  -1.412  -3.601  0.00  0.00    -0.243 NA
ATOM      3  C6  <0> d           8.524  -0.958  -3.825  0.00  0.00     0.074 A 
ATOM      4  C7  <0> d           8.633   0.112  -4.672  0.00  0.00     0.084 A 
ATOM      5  S2  <0> d           6.918   0.377  -5.091  0.00  0.00    -0.083 SA
ENDROOT
BRANCH   1   6
ATOM      6  C4  <0> d           4.805  -1.246  -4.021  0.00  0.00     0.336 C 
BRANCH   6   7
ATOM      7  N2  <0> d           4.209  -0.503  -2.903  0.00  0.00     0.091 N 
ATOM      8  H9  <0> d           4.322   0.492  -3.029  0.00  0.00     0.316 HD
BRANCH   7   9
ATOM      9  C3  <0> d           2.792  -0.854  -2.733  0.00  0.00     0.290 C 
BRANCH   9  10
ATOM     10  C2  <0> d           2.207  -0.061  -1.563  0.00  0.00     0.162 C 
BRANCH  10  11
ATOM     11  N1  <0> d           0.795  -0.411  -1.394  0.00  0.00    -0.318 N 
ATOM     12  H4  <0> d           0.324  -0.881  -2.099  0.00  0.00     0.172 HD
BRANCH  11  13
ATOM     13  S1  <0> d           0.002  -0.004   0.002  0.00  0.00     0.222 S 
ATOM     14  C1  <0> d          -0.022   1.810   0.012  0.00  0.00     0.185 C 
ATOM     15  O1  <0> d           0.835  -0.488   1.046  0.00  0.00    -0.206 OA
ATOM     16  O2  <0> d          -1.315  -0.510  -0.168  0.00  0.00    -0.206 OA
ENDBRANCH  11  13
ENDBRANCH  10  11
ENDBRANCH   9  10
ENDBRANCH   7   9
ENDBRANCH   6   7
ENDBRANCH   1   6
BRANCH   3  17
ATOM     17  C8  <0> d           9.713  -1.577  -3.192  0.00  0.00    -0.007 A 
ATOM     18  C13 <0> d           9.563  -2.666  -2.334  0.00  0.00     0.014 A 
ATOM     19  C12 <0> d          10.674  -3.241  -1.752  0.00  0.00     0.001 A 
ATOM     20  C11 <0> d          11.934  -2.731  -2.008  0.00  0.00     0.000 A 
ATOM     21  C10 <0> d          12.089  -1.648  -2.853  0.00  0.00     0.001 A 
ATOM     22  C9  <0> d          10.986  -1.068  -3.446  0.00  0.00     0.014 A 
ENDBRANCH   3  17
TORSDOF 7
