REMARK  6 active torsions:
REMARK  status: ('A' for Active; 'I' for Inactive)
REMARK    1  A    between atoms: C3_4  and  C5_7 
REMARK    2  A    between atoms: C5_7  and  N2_8 
REMARK    3  A    between atoms: N2_8  and  S2_9 
REMARK    4  A    between atoms: S2_9  and  C6_12 
REMARK    5  A    between atoms: C9_15  and  C12_18 
REMARK    6  A    between atoms: C12_18  and  N3_19 
ROOT
ATOM      1  S2  <0> d          -3.921  -4.014   1.660  0.00  0.00     0.259 S 
ATOM      2  O1  <0> d          -4.052  -4.118   3.071  0.00  0.00    -0.201 OA
ATOM      3  O2  <0> d          -4.864  -3.317   0.857  0.00  0.00    -0.201 OA
ENDROOT
BRANCH   1   4
ATOM      4  N2  <0> d          -2.447  -3.317   1.371  0.00  0.00    -0.310 N 
ATOM      5  H7  <0> d          -1.880  -3.056   2.114  0.00  0.00     0.172 HD
BRANCH   4   6
ATOM      6  C5  <0> d          -1.999  -3.093  -0.006  0.00  0.00     0.192 C 
BRANCH   6   7
ATOM      7  C3  <0> d          -0.834  -2.137  -0.006  0.00  0.00     0.060 A 
ATOM      8  N1  <0> d          -1.013  -0.832   0.002  0.00  0.00    -0.249 NA
ATOM      9  C2  <0> d           0.002  -0.004   0.002  0.00  0.00     0.071 A 
ATOM     10  C1  <0> d          -0.018   1.503   0.010  0.00  0.00     0.078 C 
ATOM     11  S1  <0> d           1.335  -1.032  -0.017  0.00  0.00    -0.085 SA
ATOM     12  C4  <0> d           0.449  -2.582  -0.014  0.00  0.00     0.080 A 
ENDBRANCH   6   7
ENDBRANCH   4   6
ENDBRANCH   1   4
BRANCH   1  13
ATOM     13  C6  <0> d          -3.849  -5.660   1.037  0.00  0.00     0.079 A 
ATOM     14  C11 <0> d          -3.430  -6.692   1.857  0.00  0.00     0.026 A 
ATOM     15  C10 <0> d          -3.378  -7.984   1.371  0.00  0.00     0.010 A 
ATOM     16  C9  <0> d          -3.736  -8.245   0.061  0.00  0.00    -0.033 A 
ATOM     17  C8  <0> d          -4.149  -7.213  -0.761  0.00  0.00     0.010 A 
ATOM     18  C7  <0> d          -4.206  -5.921  -0.273  0.00  0.00     0.026 A 
BRANCH  16  19
ATOM     19  C12 <0> d          -3.675  -9.653  -0.471  0.00  0.00     0.270 C 
BRANCH  19  20
ATOM     20  N3  <0> d          -2.345  -9.904  -1.043  0.00  0.00    -0.075 N 
ATOM     21  C13 <0> d          -2.286 -11.277  -1.562  0.00  0.00     0.267 C 
ATOM     22  H14 <0> d          -2.175  -9.253  -1.795  0.00  0.00     0.277 HD
ATOM     23  H18 <0> d          -1.644  -9.784  -0.328  0.00  0.00     0.277 HD
ENDBRANCH  19  20
ENDBRANCH  16  19
ENDBRANCH   1  13
TORSDOF 6
