REMARK  3 active torsions:
REMARK  status: ('A' for Active; 'I' for Inactive)
REMARK    1  A    between atoms: C2_2  and  C5_7 
REMARK       I    between atoms: C5_7  and  N1_9 
REMARK    2  A    between atoms: N1_9  and  C6_10 
REMARK    3  A    between atoms: C6_10  and  C7_11 
ROOT
ATOM      1  C5  <0> d           0.129  -0.660   1.353  0.00  0.00     0.229 C 
ATOM      2  O1  <0> d           0.749  -1.695   1.469  0.00  0.00    -0.273 OA
ATOM      3  N1  <0> d          -0.448  -0.095   2.433  0.00  0.00    -0.355 N 
ATOM      4  H6  <0> d          -1.011   0.844   2.328  0.00  0.00     0.162 HD
ENDROOT
BRANCH   3   5
ATOM      5  C6  <0> d          -0.325  -0.733   3.746  0.00  0.00     0.183 C 
BRANCH   5   6
ATOM      6  C7  <0> d          -1.053   0.092   4.775  0.00  0.00     0.070 A 
ATOM      7  N3  <0> d          -0.552   1.143   5.428  0.00  0.00    -0.232 NA
ATOM      8  C13 <0> d          -1.471   1.623   6.253  0.00  0.00     0.134 A 
ATOM      9  N2  <0> d          -2.599   0.854   6.125  0.00  0.00    -0.316 N 
ATOM     10  C12 <0> d          -1.464   2.703   7.158  0.00  0.00     0.051 A 
ATOM     11  C8  <0> d          -2.325  -0.104   5.187  0.00  0.00     0.127 A 
ATOM     12  C9  <0> d          -3.711   1.128   6.867  0.00  0.00     0.098 A 
ATOM     13  C10 <0> d          -3.719   2.159   7.737  0.00  0.00     0.018 A 
ATOM     14  C11 <0> d          -2.579   2.966   7.891  0.00  0.00     0.005 A 
ENDBRANCH   5   6
ENDBRANCH   3   5
BRANCH   1  15
ATOM     15  C2  <0> d           0.002  -0.004   0.002  0.00  0.00     0.075 A 
ATOM     16  C1  <0> d          -0.019   1.526   0.010  0.00  0.00     0.029 C 
ATOM     17  C4  <0> d           0.677  -0.695  -1.185  0.00  0.00     0.130 A 
ATOM     18  C3  <0> d          -0.848  -0.716  -1.052  0.00  0.00     0.065 A 
ATOM     19 Cl1  <0> d           1.387   0.356  -2.466  0.00  0.00    -0.100 Cl
ATOM     20 Cl2  <0> d           1.563  -2.231  -0.860  0.00  0.00    -0.100 Cl
ENDBRANCH   1  15
TORSDOF 3
