REMARK  7 active torsions:
REMARK  status: ('A' for Active; 'I' for Inactive)
REMARK    1  A    between atoms: N1_2  and  C2_3 
REMARK       I    between atoms: N1_2  and  C6_9 
REMARK    2  A    between atoms: C2_3  and  C3_4 
REMARK    3  A    between atoms: C3_4  and  C4_5 
REMARK    4  A    between atoms: C3_4  and  O2_8 
REMARK    5  A    between atoms: C4_5  and  O1_6 
REMARK    6  A    between atoms: C6_9  and  C7_11 
REMARK    7  A    between atoms: C9_13  and  N2_18 
ROOT
ATOM      1  C1  <0> d           0.801   1.318  -0.087  0.00  0.00     0.153 C 
ATOM      2  N1  <0> d           0.393  -0.089  -0.054  0.00  0.00    -0.350 N 
ATOM      3  C6  <0> d          -0.102  -0.673  -1.163  0.00  0.00     0.255 C 
ATOM      4  O3  <0> d          -0.529  -1.810  -1.113  0.00  0.00    -0.267 OA
ENDROOT
BRANCH   3   5
ATOM      5  C7  <0> d          -0.124   0.069  -2.442  0.00  0.00     0.051 A 
ATOM      6  C12 <0> d          -1.265   0.043  -3.247  0.00  0.00     0.026 A 
ATOM      7  C11 <0> d          -1.284   0.741  -4.439  0.00  0.00     0.022 A 
ATOM      8 Br1  <0> d          -2.785  -0.942  -2.703  0.00  0.00    -0.050 Br
ATOM      9  C10 <0> d          -0.174   1.458  -4.843  0.00  0.00     0.030 A 
ATOM     10  C9  <0> d           0.968   1.485  -4.051  0.00  0.00     0.026 A 
ATOM     11  C8  <0> d           0.996   0.792  -2.851  0.00  0.00     0.047 A 
BRANCH  10  12
ATOM     12  N2  <0> d           2.088   2.212  -4.465  0.00  0.00    -0.399 N 
ATOM     13  H16 <0> d           2.885   2.231  -3.913  0.00  0.00     0.156 HD
ATOM     14  H17 <0> d           2.068   2.696  -5.305  0.00  0.00     0.156 HD
ENDBRANCH  10  12
ENDBRANCH   3   5
BRANCH   2  15
ATOM     15  C2  <0> d           0.522  -0.860   1.185  0.00  0.00     0.159 C 
BRANCH  15  16
ATOM     16  C3  <0> d          -0.766  -0.734   2.001  0.00  0.00     0.160 C 
BRANCH  16  17
ATOM     17  C4  <0> d          -0.631  -1.539   3.295  0.00  0.00     0.200 C 
BRANCH  17  18
ATOM     18  O1  <0> d          -1.873  -1.517   4.002  0.00  0.00    -0.393 OA
ATOM     19  C5  <0> d          -1.854  -2.244   5.232  0.00  0.00     0.201 C 
ENDBRANCH  17  18
ENDBRANCH  16  17
BRANCH  16  20
ATOM     20  O2  <0> d          -0.996   0.641   2.318  0.00  0.00    -0.392 OA
ATOM     21  H12 <0> d          -0.288   1.049   2.836  0.00  0.00     0.210 HD
ENDBRANCH  16  20
ENDBRANCH  15  16
ENDBRANCH   2  15
TORSDOF 7
