REMARK  6 active torsions:
REMARK  status: ('A' for Active; 'I' for Inactive)
REMARK    1  A    between atoms: C2_2  and  C3_3 
REMARK    2  A    between atoms: C3_3  and  C5_5 
REMARK    3  A    between atoms: C10_10  and  N1_11 
REMARK       I    between atoms: N1_11  and  C11_12 
REMARK    4  A    between atoms: C11_12  and  C12_14 
REMARK    5  A    between atoms: C12_14  and  N2_16 
REMARK    6  A    between atoms: C16_19  and  C19_22 
REMARK       I    between atoms: C19_22  and  N3_24 
ROOT
ATOM      1  N1  <0> d          -1.246  -1.711   2.990  0.00  0.00    -0.325 N 
ATOM      2  C11 <0> d          -2.206  -2.386   3.654  0.00  0.00     0.253 C 
ATOM      3  O1  <0> d          -2.224  -3.598   3.625  0.00  0.00    -0.271 OA
ATOM      4  H15 <0> d          -1.188  -0.746   3.071  0.00  0.00     0.169 HD
ENDROOT
BRANCH   2   5
ATOM      5  C12 <0> d          -3.256  -1.634   4.430  0.00  0.00     0.275 C 
ATOM      6  C13 <0> d          -4.415  -1.271   3.501  0.00  0.00     0.050 C 
BRANCH   5   7
ATOM      7  N2  <0> d          -3.752  -2.477   5.526  0.00  0.00    -0.059 N 
ATOM      8  C18 <0> d          -2.652  -2.767   6.455  0.00  0.00     0.236 C 
ATOM      9  C17 <0> d          -3.144  -3.711   7.554  0.00  0.00     0.042 C 
ATOM     10  C16 <0> d          -4.295  -3.046   8.314  0.00  0.00     0.081 C 
ATOM     11  C15 <0> d          -5.404  -2.681   7.324  0.00  0.00     0.042 C 
ATOM     12  C14 <0> d          -4.829  -1.775   6.233  0.00  0.00     0.236 C 
ATOM     13  H34 <0> d          -4.108  -3.342   5.148  0.00  0.00     0.280 HD
BRANCH  10  14
ATOM     14  C19 <0> d          -4.835  -4.000   9.347  0.00  0.00     0.223 C 
ATOM     15  O2  <0> d          -5.854  -4.620   9.126  0.00  0.00    -0.273 OA
ATOM     16  N3  <0> d          -4.186  -4.166  10.517  0.00  0.00    -0.360 N 
ATOM     17  C20 <0> d          -4.654  -5.167  11.479  0.00  0.00     0.152 C 
ATOM     18  C21 <0> d          -3.013  -3.346  10.826  0.00  0.00     0.152 C 
ENDBRANCH  10  14
ENDBRANCH   5   7
ENDBRANCH   2   5
BRANCH   1  19
ATOM     19  C10 <0> d          -0.333  -2.402   2.186  0.00  0.00     0.041 A 
ATOM     20  C5  <0> d           0.173  -1.807   1.038  0.00  0.00    -0.028 A 
ATOM     21  C6  <0> d           1.078  -2.490   0.249  0.00  0.00     0.010 A 
ATOM     22  C7  <0> d           1.477  -3.767   0.599  0.00  0.00     0.001 A 
ATOM     23  C8  <0> d           0.971  -4.364   1.740  0.00  0.00     0.002 A 
ATOM     24  C9  <0> d           0.066  -3.687   2.532  0.00  0.00     0.030 A 
BRANCH  20  25
ATOM     25  C3  <0> d          -0.261  -0.416   0.656  0.00  0.00     0.016 C 
ATOM     26  C4  <0> d          -0.811  -0.427  -0.772  0.00  0.00     0.015 C 
BRANCH  25  27
ATOM     27  C2  <0> d           0.938   0.532   0.733  0.00  0.00     0.004 C 
ATOM     28  C1  <0> d           0.473   1.965   0.467  0.00  0.00     0.006 C 
ENDBRANCH  25  27
ENDBRANCH  20  25
ENDBRANCH   1  19
TORSDOF 6
