REMARK  2 active torsions:
REMARK  status: ('A' for Active; 'I' for Inactive)
REMARK    1  A    between atoms: C7_7  and  N1_8 
REMARK    2  A    between atoms: C20_26  and  C21_27 
ROOT
ATOM      1  N1  <0> d           0.023  -0.063   2.447  0.00  0.00    -0.251 N 
ATOM      2  C8  <0> d           1.126   0.480   2.975  0.00  0.00     0.238 A 
ATOM      3  O1  <0> d           2.227   0.461   2.469  0.00  0.00    -0.272 OA
ATOM      4  C9  <0> d           0.785   1.121   4.301  0.00  0.00     0.129 A 
ATOM      5  C10 <0> d          -0.736   0.839   4.455  0.00  0.00     0.147 A 
ATOM      6  C11 <0> d          -1.080   0.087   3.189  0.00  0.00     0.239 A 
ATOM      7  O2  <0> d          -2.184  -0.320   2.894  0.00  0.00    -0.272 OA
ATOM      8  C12 <0> d          -1.391   2.225   4.443  0.00  0.00     0.279 A 
ATOM      9  C13 <0> d          -1.956   2.561   3.092  0.00  0.00     0.017 A 
ATOM     10  C14 <0> d          -1.406   2.669   1.834  0.00  0.00     0.012 A 
ATOM     11  C15 <0> d          -2.205   3.005   0.756  0.00  0.00     0.001 A 
ATOM     12  C16 <0> d          -3.556   3.231   0.944  0.00  0.00     0.002 A 
ATOM     13  C17 <0> d          -4.112   3.122   2.202  0.00  0.00     0.030 A 
ATOM     14  C18 <0> d          -3.314   2.785   3.293  0.00  0.00     0.044 A 
ATOM     15  N2  <0> d          -3.638   2.617   4.641  0.00  0.00    -0.324 N 
ATOM     16  C19 <0> d          -2.564   2.286   5.383  0.00  0.00     0.267 A 
ATOM     17  O3  <0> d          -2.545   2.077   6.578  0.00  0.00    -0.270 OA
ATOM     18  N3  <0> d          -0.336   3.176   4.840  0.00  0.00     0.114 N 
ATOM     19  C20 <0> d           0.907   2.654   4.169  0.00  0.00     0.239 C 
ATOM     20  H14 <0> d          -4.532   2.725   5.001  0.00  0.00     0.169 HD
ATOM     21  H15 <0> d          -0.550   4.108   4.520  0.00  0.00     0.318 HD
ENDROOT
BRANCH  19  22
ATOM     22  C21 <0> d           2.156   3.153   4.899  0.00  0.00     0.011 C 
ATOM     23  C22 <0> d           2.257   4.673   4.755  0.00  0.00     0.012 C 
ATOM     24  C23 <0> d           2.062   2.786   6.381  0.00  0.00     0.012 C 
ENDBRANCH  19  22
BRANCH   1  25
ATOM     25  C7  <0> d           0.022  -0.730   1.214  0.00  0.00     0.057 A 
ATOM     26  C2  <0> d          -0.290  -2.082   1.154  0.00  0.00    -0.034 A 
ATOM     27  C1  <0> d          -0.629  -2.834   2.415  0.00  0.00     0.050 C 
ATOM     28  C3  <0> d          -0.296  -2.735  -0.063  0.00  0.00     0.009 A 
ATOM     29  C4  <0> d           0.015  -2.045  -1.220  0.00  0.00     0.001 A 
ATOM     30  C5  <0> d           0.331  -0.700  -1.164  0.00  0.00     0.009 A 
ATOM     31  C6  <0> d           0.338  -0.042   0.051  0.00  0.00    -0.034 A 
ATOM     32  C24 <0> d           0.683   1.424   0.112  0.00  0.00     0.050 C 
ENDBRANCH   1  25
TORSDOF 2
