REMARK  6 active torsions:
REMARK  status: ('A' for Active; 'I' for Inactive)
REMARK    1  A    between atoms: C2_2  and  C3_3 
REMARK    2  A    between atoms: C4_6  and  C5_8 
REMARK    3  A    between atoms: C5_8  and  O2_9 
REMARK    4  A    between atoms: O2_9  and  C6_10 
REMARK    5  A    between atoms: C9_13  and  C12_17 
REMARK    6  A    between atoms: C12_17  and  N3_18 
ROOT
ATOM      1  C6  <0> d           0.572  -3.503  -5.999  0.00  0.00     0.086 A 
ATOM      2  C7  <0> d           0.669  -2.693  -7.120  0.00  0.00     0.039 A 
ATOM      3  C8  <0> d           0.510  -3.237  -8.380  0.00  0.00     0.011 A 
ATOM      4  C9  <0> d           0.254  -4.588  -8.524  0.00  0.00    -0.031 A 
ATOM      5  C10 <0> d           0.157  -5.399  -7.408  0.00  0.00     0.030 A 
ATOM      6  C11 <0> d           0.321  -4.860  -6.145  0.00  0.00     0.044 A 
ATOM      7 Br1  <0> d           0.197  -5.970  -4.619  0.00  0.00    -0.048 Br
ENDROOT
BRANCH   1   8
ATOM      8  O2  <0> d           0.728  -2.970  -4.758  0.00  0.00    -0.342 OA
BRANCH   8   9
ATOM      9  C5  <0> d           0.983  -1.566  -4.683  0.00  0.00     0.264 C 
BRANCH   9  10
ATOM     10  C4  <0> d           1.127  -1.158  -3.240  0.00  0.00     0.193 A 
ATOM     11  N2  <0> d           2.232  -1.134  -2.551  0.00  0.00    -0.124 NA
ATOM     12  N1  <0> d           1.982  -0.735  -1.354  0.00  0.00    -0.127 NA
ATOM     13  C3  <0> d           0.707  -0.490  -1.238  0.00  0.00     0.169 A 
ATOM     14  O1  <0> d           0.137  -0.756  -2.425  0.00  0.00    -0.275 OA
BRANCH  13  15
ATOM     15  C2  <0> d           0.002  -0.004   0.002  0.00  0.00     0.084 C 
ATOM     16  C1  <0> d          -0.019   1.526   0.010  0.00  0.00     0.013 C 
ENDBRANCH  13  15
ENDBRANCH   9  10
ENDBRANCH   8   9
ENDBRANCH   1   8
BRANCH   4  17
ATOM     17  C12 <0> d           0.081  -5.179  -9.899  0.00  0.00     0.270 C 
BRANCH  17  18
ATOM     18  N3  <0> d           1.385  -5.622 -10.410  0.00  0.00    -0.075 N 
ATOM     19  C13 <0> d           1.216  -6.197 -11.751  0.00  0.00     0.267 C 
ATOM     20  H13 <0> d           2.013  -4.832 -10.460  0.00  0.00     0.277 HD
ATOM     21  H17 <0> d           1.770  -6.319  -9.791  0.00  0.00     0.277 HD
ENDBRANCH  17  18
ENDBRANCH   4  17
TORSDOF 6
