REMARK  5 active torsions:
REMARK  status: ('A' for Active; 'I' for Inactive)
REMARK    1  A    between atoms: C2_2  and  C3_3 
REMARK    2  A    between atoms: C8_8  and  N1_9 
REMARK       I    between atoms: N1_9  and  C9_10 
REMARK    3  A    between atoms: C9_10  and  C10_12 
REMARK       I    between atoms: C10_12  and  N2_14 
REMARK    4  A    between atoms: N2_14  and  C11_15 
REMARK    5  A    between atoms: C11_15  and  C12_16 
ROOT
ATOM      1  C10 <0> d          -1.390  -0.137  -4.818  0.00  0.00     0.309 C 
ATOM      2  O2  <0> d          -0.289   0.372  -4.795  0.00  0.00    -0.262 OA
ATOM      3  N2  <0> d          -1.984  -0.406  -5.998  0.00  0.00    -0.350 N 
ATOM      4  H11 <0> d          -2.864  -0.813  -6.016  0.00  0.00     0.163 HD
ENDROOT
BRANCH   1   5
ATOM      5  C9  <0> d          -2.087  -0.466  -3.539  0.00  0.00     0.314 C 
ATOM      6  N1  <0> d          -1.494  -0.196  -2.359  0.00  0.00    -0.318 N 
ATOM      7  H10 <0> d          -0.641   0.266  -2.340  0.00  0.00     0.169 HD
ATOM      8  O1  <0> d          -3.189  -0.975  -3.561  0.00  0.00    -0.262 OA
BRANCH   6   9
ATOM      9  C8  <0> d          -2.106  -0.584  -1.164  0.00  0.00     0.047 A 
ATOM     10  C3  <0> d          -2.719   0.365  -0.357  0.00  0.00    -0.031 A 
ATOM     11  C4  <0> d          -3.328  -0.022   0.821  0.00  0.00     0.009 A 
ATOM     12  C5  <0> d          -3.322  -1.352   1.199  0.00  0.00     0.001 A 
ATOM     13  C6  <0> d          -2.707  -2.299   0.400  0.00  0.00     0.009 A 
ATOM     14  C7  <0> d          -2.096  -1.919  -0.778  0.00  0.00    -0.035 A 
ATOM     15  C20 <0> d          -1.426  -2.951  -1.648  0.00  0.00     0.050 C 
BRANCH  10  16
ATOM     16  C2  <0> d          -2.725   1.815  -0.768  0.00  0.00     0.036 C 
ATOM     17  C1  <0> d          -3.902   2.072  -1.711  0.00  0.00     0.010 C 
ENDBRANCH  10  16
ENDBRANCH   6   9
ENDBRANCH   1   5
BRANCH   3  18
ATOM     18  C11 <0> d          -1.300  -0.084  -7.253  0.00  0.00     0.157 C 
BRANCH  18  19
ATOM     19  C12 <0> d          -2.185  -0.488  -8.434  0.00  0.00     0.171 C 
ATOM     20  O4  <0> d          -2.434  -1.897  -8.390  0.00  0.00    -0.339 OA
ATOM     21  C19 <0> d          -2.949  -2.462  -9.517  0.00  0.00     0.102 A 
ATOM     22  C14 <0> d          -2.885  -1.800 -10.738  0.00  0.00     0.102 A 
ATOM     23  C18 <0> d          -3.538  -3.715  -9.442  0.00  0.00     0.039 A 
ATOM     24  O3  <0> d          -2.315  -0.568 -10.833  0.00  0.00    -0.346 OA
ATOM     25  C15 <0> d          -3.407  -2.399 -11.875  0.00  0.00     0.039 A 
ATOM     26  C13 <0> d          -1.467  -0.166  -9.752  0.00  0.00     0.209 C 
ATOM     27  C16 <0> d          -3.992  -3.648 -11.793  0.00  0.00     0.003 A 
ATOM     28  C17 <0> d          -4.058  -4.305 -10.579  0.00  0.00     0.003 A 
ENDBRANCH  18  19
ENDBRANCH   3  18
TORSDOF 5
