REMARK  5 active torsions:
REMARK  status: ('A' for Active; 'I' for Inactive)
REMARK    1  A    between atoms: C2_2  and  N1_3 
REMARK    2  A    between atoms: N1_3  and  C3_4 
REMARK       I    between atoms: N1_3  and  C9_15 
REMARK    3  A    between atoms: C3_4  and  C4_5 
REMARK       I    between atoms: C4_5  and  N2_7 
REMARK    4  A    between atoms: N2_7  and  C5_8 
REMARK    5  A    between atoms: C9_15  and  C10_17 
ROOT
ATOM      1  C3  <0> d           3.048   5.323  -0.102  0.00  0.00     0.228 C 
ENDROOT
BRANCH   1   2
ATOM      2  N1  <0> d           2.765   3.885  -0.106  0.00  0.00    -0.339 N 
ATOM      3  C9  <0> d           1.544   3.438   0.248  0.00  0.00     0.261 C 
ATOM      4  O4  <0> d           1.324   2.242   0.295  0.00  0.00    -0.267 OA
BRANCH   2   5
ATOM      5  C2  <0> d           3.809   2.934  -0.494  0.00  0.00     0.122 C 
ATOM      6  C1  <0> d           3.666   2.598  -1.980  0.00  0.00     0.026 C 
ENDBRANCH   2   5
BRANCH   3   7
ATOM      7  C10 <0> d           0.481   4.392   0.576  0.00  0.00     0.074 A 
ATOM      8  S2  <0> d           0.576   6.164   0.752  0.00  0.00    -0.077 SA
ATOM      9  C13 <0> d          -1.086   6.477   1.135  0.00  0.00     0.052 A 
ATOM     10  C12 <0> d          -1.648   5.239   1.115  0.00  0.00     0.028 A 
ATOM     11 Br1  <0> d          -1.916   8.138   1.493  0.00  0.00    -0.043 Br
ATOM     12  C11 <0> d          -0.861   4.151   0.830  0.00  0.00     0.026 A 
ENDBRANCH   3   7
ENDBRANCH   1   2
BRANCH   1  13
ATOM     13  C4  <0> d           3.401   5.761   1.296  0.00  0.00     0.235 C 
ATOM     14  O1  <0> d           3.415   4.953   2.200  0.00  0.00    -0.272 OA
ATOM     15  N2  <0> d           3.701   7.052   1.542  0.00  0.00    -0.354 N 
ATOM     16  H9  <0> d           3.690   7.699   0.819  0.00  0.00     0.162 HD
BRANCH  15  17
ATOM     17  C5  <0> d           4.045   7.479   2.900  0.00  0.00     0.099 C 
ATOM     18  C8  <0> d           4.926   8.759   2.842  0.00  0.00     0.165 C 
ATOM     19  S1  <0> d           4.696   9.405   4.552  0.00  0.00     0.146 S 
ATOM     20  C7  <0> d           3.119   8.563   4.986  0.00  0.00     0.142 C 
ATOM     21  O2  <0> d           5.733   8.899   5.381  0.00  0.00    -0.228 OA
ATOM     22  O3  <0> d           4.471  10.807   4.490  0.00  0.00    -0.228 OA
ATOM     23  C6  <0> d           2.762   7.816   3.679  0.00  0.00     0.041 C 
ENDBRANCH  15  17
ENDBRANCH   1  13
TORSDOF 5
