REMARK  6 active torsions:
REMARK  status: ('A' for Active; 'I' for Inactive)
REMARK    1  A    between atoms: C2_2  and  C3_3 
REMARK    2  A    between atoms: C3_3  and  C4_4 
REMARK    3  A    between atoms: C3_3  and  N1_18 
REMARK    4  A    between atoms: C4_4  and  C5_5 
REMARK    5  A    between atoms: C4_4  and  S1_12 
REMARK    6  A    between atoms: S1_12  and  C11_13 
ROOT
ATOM      1  C4  <0> d          -1.543  -2.058  -0.066  0.00  0.00     0.117 C 
ENDROOT
BRANCH   1   2
ATOM      2  C3  <0> d          -1.277  -0.562   0.116  0.00  0.00     0.201 C 
BRANCH   2   3
ATOM      3  C2  <0> d          -1.653   0.182  -1.167  0.00  0.00     0.030 C 
ATOM      4  C1  <0> d          -1.508   1.689  -0.944  0.00  0.00     0.007 C 
ENDBRANCH   2   3
BRANCH   2   5
ATOM      5  N1  <0> d           0.147  -0.349   0.406  0.00  0.00    -0.074 N 
ATOM      6  H15 <0> d           0.702  -0.699  -0.360  0.00  0.00     0.274 HD
ATOM      7  H16 <0> d           0.322   0.637   0.526  0.00  0.00     0.274 HD
ATOM      8  H17 <0> d           0.395  -0.840   1.252  0.00  0.00     0.274 HD
ENDBRANCH   2   5
ENDBRANCH   1   2
BRANCH   1   9
ATOM      9  C5  <0> d          -3.023  -2.290  -0.224  0.00  0.00    -0.025 A 
ATOM     10  C10 <0> d          -3.827  -2.418   0.895  0.00  0.00     0.018 A 
ATOM     11  C9  <0> d          -5.187  -2.626   0.749  0.00  0.00     0.019 A 
ATOM     12 Br1  <0> d          -3.068  -2.302   2.623  0.00  0.00    -0.051 Br
ATOM     13  C8  <0> d          -5.740  -2.716  -0.514  0.00  0.00     0.001 A 
ATOM     14  C7  <0> d          -4.936  -2.593  -1.632  0.00  0.00     0.001 A 
ATOM     15  C6  <0> d          -3.578  -2.380  -1.487  0.00  0.00     0.010 A 
ENDBRANCH   1   9
BRANCH   1  16
ATOM     16  S1  <0> d          -0.676  -2.651  -1.545  0.00  0.00    -0.111 SA
BRANCH  16  17
ATOM     17  C11 <0> d          -0.863  -4.401  -1.476  0.00  0.00     0.041 A 
ATOM     18  S2  <0> d          -1.578  -5.406  -0.185  0.00  0.00    -0.095 SA
ATOM     19  C14 <0> d          -1.349  -7.002  -0.950  0.00  0.00     0.051 A 
ATOM     20  C13 <0> d          -0.746  -6.673  -2.116  0.00  0.00     0.009 A 
ATOM     21  C12 <0> d          -0.494  -5.341  -2.392  0.00  0.00     0.026 A 
ENDBRANCH  16  17
ENDBRANCH   1  16
TORSDOF 6
