REMARK  3 active torsions:
REMARK  status: ('A' for Active; 'I' for Inactive)
REMARK    1  A    between atoms: C4_5  and  C13_19 
REMARK    2  A    between atoms: N1_7  and  C6_8 
REMARK    3  A    between atoms: C6_8  and  C7_9 
ROOT
ATOM      1  C1  <0> d          -0.019   1.526   0.010  0.00  0.00     0.045 C 
ATOM      2  C2  <0> d           0.002  -0.004   0.002  0.00  0.00     0.243 C 
ATOM      3  C3  <0> d           0.720  -0.499  -1.256  0.00  0.00     0.204 C 
ATOM      4  O1  <0> d           2.082  -0.062  -1.225  0.00  0.00    -0.377 OA
ATOM      5  C4  <0> d           2.807  -0.519  -0.080  0.00  0.00     0.182 C 
ATOM      6  C5  <0> d           2.110  -0.025   1.190  0.00  0.00     0.310 C 
ATOM      7  N1  <0> d           0.715  -0.492   1.192  0.00  0.00     0.103 N 
ENDROOT
BRANCH   7   8
ATOM      8  C6  <0> d           0.024  -0.086   2.423  0.00  0.00     0.330 C 
BRANCH   8   9
ATOM      9  C7  <0> d           0.634  -0.801   3.601  0.00  0.00     0.044 A 
ATOM     10  N3  <0> d           0.534  -2.156   3.702  0.00  0.00    -0.343 N 
ATOM     11  C10 <0> d           1.098  -2.814   4.779  0.00  0.00     0.134 A 
ATOM     12  H20 <0> d           0.071  -2.660   3.015  0.00  0.00     0.167 HD
ATOM     13  N2  <0> d           1.747  -2.110   5.751  0.00  0.00    -0.181 N 
ATOM     14  C11 <0> d           1.152  -4.131   5.124  0.00  0.00     0.071 A 
ATOM     15  C9  <0> d           1.845  -0.769   5.661  0.00  0.00     0.271 A 
ATOM     16  N4  <0> d           2.204  -3.026   6.707  0.00  0.00    -0.175 NA
ATOM     17  C8  <0> d           1.276  -0.097   4.561  0.00  0.00     0.103 A 
ATOM     18  O2  <0> d           2.424  -0.140   6.529  0.00  0.00    -0.266 OA
ATOM     19  C12 <0> d           1.848  -4.229   6.330  0.00  0.00     0.143 A 
ENDBRANCH   8   9
ENDBRANCH   7   8
BRANCH   5  20
ATOM     20  C13 <0> d           4.213   0.021  -0.126  0.00  0.00    -0.028 A 
ATOM     21  C18 <0> d           5.274  -0.781   0.249  0.00  0.00     0.010 A 
ATOM     22  C17 <0> d           6.564  -0.287   0.203  0.00  0.00     0.001 A 
ATOM     23  C16 <0> d           6.793   1.012  -0.210  0.00  0.00     0.000 A 
ATOM     24  C15 <0> d           5.731   1.816  -0.581  0.00  0.00     0.001 A 
ATOM     25  C14 <0> d           4.441   1.320  -0.538  0.00  0.00     0.010 A 
ENDBRANCH   5  20
TORSDOF 3
