REMARK  4 active torsions:
REMARK  status: ('A' for Active; 'I' for Inactive)
REMARK    1  A    between atoms: C2_2  and  S1_3 
REMARK    2  A    between atoms: S1_3  and  C3_4 
REMARK    3  A    between atoms: C4_7  and  N3_9 
REMARK    4  A    between atoms: C21_29  and  N5_30 
ROOT
ATOM      1  N3  <0> d           4.120   4.664   0.014  0.00  0.00    -0.277 N 
ATOM      2  C5  <0> d           4.267   3.978   1.192  0.00  0.00     0.032 C 
ATOM      3  C6  <0> d           4.109   2.637   1.231  0.00  0.00     0.039 C 
ATOM      4  C7  <0> d           4.271   1.924   2.432  0.00  0.00     0.159 C 
ATOM      5  O1  <0> d           4.112   0.719   2.435  0.00  0.00    -0.293 OA
ATOM      6  C8  <0> d           4.636   2.624   3.712  0.00  0.00     0.084 C 
ATOM      7  C9  <0> d           5.440   3.885   3.379  0.00  0.00     0.014 C 
ATOM      8  C10 <0> d           4.605   4.757   2.439  0.00  0.00     0.059 C 
ATOM      9  C11 <0> d           3.755   1.866  -0.013  0.00  0.00     0.143 A 
ATOM     10  C12 <0> d           2.324   1.425   0.031  0.00  0.00    -0.003 A 
ATOM     11  C13 <0> d           1.150   2.146   0.074  0.00  0.00     0.018 A 
ATOM     12  C14 <0> d          -0.035   1.419   0.109  0.00  0.00    -0.061 A 
ATOM     13  C15 <0> d          -0.031   0.038   0.100  0.00  0.00     0.009 A 
ATOM     14  C16 <0> d           1.145  -0.693   0.057  0.00  0.00     0.031 A 
ATOM     15  C17 <0> d           2.342   0.026   0.022  0.00  0.00     0.043 A 
ATOM     16  N4  <0> d           3.644  -0.438  -0.024  0.00  0.00    -0.325 N 
ATOM     17  C18 <0> d           4.540   0.570  -0.046  0.00  0.00     0.246 A 
ATOM     18  O2  <0> d           5.748   0.460  -0.085  0.00  0.00    -0.271 OA
ATOM     19  C19 <0> d          -1.351   2.153   0.150  0.00  0.00     0.048 C 
ATOM     20  C20 <0> d           4.032   2.662  -1.253  0.00  0.00     0.094 C 
ATOM     21  C21 <0> d           4.198   4.010  -1.195  0.00  0.00     0.126 C 
ATOM     22  C22 <0> d           4.122   1.994  -2.516  0.00  0.00     0.101 C 
ATOM     23  N6  <0> d           4.194   1.464  -3.518  0.00  0.00    -0.191 NA
ATOM     24  H15 <0> d           3.885  -1.378  -0.038  0.00  0.00     0.169 HD
ENDROOT
BRANCH  21  25
ATOM     25  N5  <0> d           4.445   4.721  -2.345  0.00  0.00    -0.384 N 
ATOM     26  H19 <0> d           4.583   4.254  -3.183  0.00  0.00     0.157 HD
ATOM     27  H20 <0> d           4.480   5.690  -2.317  0.00  0.00     0.157 HD
ENDBRANCH  21  25
BRANCH   1  28
ATOM     28  C4  <0> d           3.888   6.037   0.041  0.00  0.00     0.203 A 
ATOM     29  N2  <0> d           4.742   7.045  -0.041  0.00  0.00    -0.122 NA
ATOM     30  N1  <0> d           4.362   8.247  -0.005  0.00  0.00    -0.133 NA
ATOM     31  C3  <0> d           3.084   8.574   0.130  0.00  0.00     0.160 A 
ATOM     32  S2  <0> d           2.352   6.942   0.204  0.00  0.00    -0.021 SA
BRANCH  31  33
ATOM     33  S1  <0> d           2.324  10.162   0.214  0.00  0.00    -0.101 SA
BRANCH  33  34
ATOM     34  C2  <0> d           3.712  11.321   0.070  0.00  0.00     0.077 C 
ATOM     35  C1  <0> d           3.186  12.756   0.128  0.00  0.00     0.016 C 
ENDBRANCH  33  34
ENDBRANCH  31  33
ENDBRANCH   1  28
TORSDOF 4
