REMARK  5 active torsions:
REMARK  status: ('A' for Active; 'I' for Inactive)
REMARK    1  A    between atoms: C2_2  and  O1_3 
REMARK    2  A    between atoms: O1_3  and  C3_4 
REMARK    3  A    between atoms: C6_7  and  C9_10 
REMARK    4  A    between atoms: C11_12  and  C14_20 
REMARK    5  A    between atoms: C13_16  and  N4_18 
ROOT
ATOM      1  C9  <0> d          -2.001  -6.092  -0.011  0.00  0.00     0.135 C 
ATOM      2  C10 <0> d          -2.312  -6.579   1.409  0.00  0.00     0.063 C 
ATOM      3  C11 <0> d          -2.439  -8.108   1.415  0.00  0.00     0.164 C 
ATOM      4  N1  <0> d          -3.335  -8.512   0.332  0.00  0.00    -0.074 N 
ATOM      5  C12 <0> d          -3.647  -7.732  -0.731  0.00  0.00     0.736 A 
ATOM      6  N2  <0> d          -4.468  -8.398  -1.498  0.00  0.00     0.131 NA
ATOM      7  C13 <0> d          -4.702  -9.605  -0.960  0.00  0.00     0.753 A 
ATOM      8  N3  <0> d          -4.024  -9.713   0.161  0.00  0.00     0.037 NA
ATOM      9  N5  <0> d          -3.126  -6.454  -0.894  0.00  0.00    -0.213 N 
ATOM     10  H16 <0> d          -3.483  -5.834  -1.549  0.00  0.00     0.178 HD
ENDROOT
BRANCH   1  11
ATOM     11  C6  <0> d          -1.823  -4.596  -0.005  0.00  0.00    -0.035 A 
ATOM     12  C5  <0> d          -0.553  -4.051  -0.008  0.00  0.00     0.012 A 
ATOM     13  C4  <0> d          -0.388  -2.679  -0.003  0.00  0.00     0.037 A 
ATOM     14  C3  <0> d          -1.498  -1.848   0.006  0.00  0.00     0.068 A 
ATOM     15  C8  <0> d          -2.772  -2.397   0.016  0.00  0.00     0.037 A 
ATOM     16  C7  <0> d          -2.932  -3.769   0.004  0.00  0.00     0.012 A 
BRANCH  14  17
ATOM     17  O1  <0> d          -1.339  -0.499   0.012  0.00  0.00    -0.352 OA
BRANCH  17  18
ATOM     18  C2  <0> d           0.002  -0.004   0.002  0.00  0.00     0.171 C 
ATOM     19  C1  <0> d          -0.019   1.526   0.010  0.00  0.00     0.034 C 
ENDBRANCH  17  18
ENDBRANCH  14  17
ENDBRANCH   1  11
BRANCH   3  20
ATOM     20  C14 <0> d          -3.003  -8.562   2.736  0.00  0.00    -0.031 A 
ATOM     21  C19 <0> d          -2.275  -9.417   3.542  0.00  0.00     0.028 A 
ATOM     22  C18 <0> d          -2.791  -9.830   4.757  0.00  0.00     0.011 A 
ATOM     23  C17 <0> d          -4.040  -9.395   5.161  0.00  0.00     0.019 A 
ATOM     24 Br1  <0> d          -1.792 -10.993   5.863  0.00  0.00    -0.051 Br
ATOM     25  C16 <0> d          -4.771  -8.544   4.352  0.00  0.00     0.002 A 
ATOM     26  C15 <0> d          -4.252  -8.128   3.140  0.00  0.00     0.009 A 
ENDBRANCH   3  20
BRANCH   7  27
ATOM     27  N4  <0> d          -5.530 -10.588  -1.504  0.00  0.00    -0.229 N 
ATOM     28  H14 <0> d          -5.993 -10.423  -2.340  0.00  0.00     0.174 HD
ATOM     29  H15 <0> d          -5.642 -11.435  -1.046  0.00  0.00     0.174 HD
ENDBRANCH   7  27
TORSDOF 5
