REMARK  2 active torsions:
REMARK  status: ('A' for Active; 'I' for Inactive)
REMARK    1  A    between atoms: C2_2  and  C3_3 
REMARK    2  A    between atoms: C3_3  and  C8_9 
REMARK       I    between atoms: C8_9  and  N2_11 
ROOT
ATOM      1  C3  <0> d          -1.429  -0.539   0.139  0.00  0.00     0.064 C 
ATOM      2  C4  <0> d          -2.205  -0.092  -1.103  0.00  0.00     0.022 C 
ATOM      3  C5  <0> d          -3.633  -0.640  -1.025  0.00  0.00     0.029 C 
ATOM      4  C6  <0> d          -3.583  -2.164  -0.890  0.00  0.00     0.232 C 
ATOM      5  N1  <0> d          -2.851  -2.526   0.330  0.00  0.00    -0.074 N 
ATOM      6  C7  <0> d          -1.460  -2.066   0.232  0.00  0.00     0.251 C 
ATOM      7  H14 <0> d          -3.292  -2.092   1.127  0.00  0.00     0.277 HD
ATOM      8  H27 <0> d          -2.865  -3.528   0.444  0.00  0.00     0.277 HD
ENDROOT
BRANCH   1   9
ATOM      9  C2  <0> d           0.021  -0.063   0.035  0.00  0.00     0.016 C 
ATOM     10  C1  <0> d           0.059   1.466   0.069  0.00  0.00     0.006 C 
ENDBRANCH   1   9
BRANCH   1  11
ATOM     11  C8  <0> d          -2.066   0.052   1.371  0.00  0.00     0.230 C 
ATOM     12  O1  <0> d          -3.117   0.650   1.283  0.00  0.00    -0.272 OA
ATOM     13  N2  <0> d          -1.466  -0.083   2.570  0.00  0.00    -0.347 N 
ATOM     14  C12 <0> d          -2.013   0.573   3.769  0.00  0.00     0.157 C 
ATOM     15  C9  <0> d          -0.242  -0.886   2.719  0.00  0.00     0.157 C 
ATOM     16  C11 <0> d          -2.132  -0.482   4.880  0.00  0.00     0.136 C 
ATOM     17  O2  <0> d          -0.873  -1.143   5.037  0.00  0.00    -0.378 OA
ATOM     18  C13 <0> d          -2.517   0.201   6.194  0.00  0.00     0.041 C 
ATOM     19  C10 <0> d          -0.444  -1.866   3.880  0.00  0.00     0.136 C 
ATOM     20  C14 <0> d           0.875  -2.579   4.183  0.00  0.00     0.041 C 
ENDBRANCH   1  11
TORSDOF 2
