REMARK  0 active torsions:
REMARK  status: ('A' for Active; 'I' for Inactive)
ROOT
ATOM      1  C1  <0> d          -0.017   1.379   0.010  0.00  0.00     0.020 A 
ATOM      2  C2  <0> d           1.179   2.079   0.002  0.00  0.00     0.022 A 
ATOM      3  C3  <0> d           2.365   1.347  -0.014  0.00  0.00     0.077 A 
ATOM      4  C4  <0> d           2.304  -0.060  -0.023  0.00  0.00     0.141 A 
ATOM      5  N1  <0> d           1.138  -0.678  -0.013  0.00  0.00    -0.243 NA
ATOM      6  C5  <0> d           0.002  -0.004   0.002  0.00  0.00     0.119 A 
ATOM      7  N2  <0> d           3.500  -0.759  -0.045  0.00  0.00    -0.336 N 
ATOM      8  C6  <0> d           4.664  -0.140  -0.682  0.00  0.00     0.222 A 
ATOM      9  C7  <0> d           4.601  -0.297  -2.170  0.00  0.00     0.031 A 
ATOM     10  C8  <0> d           3.689   0.160  -3.097  0.00  0.00     0.056 A 
ATOM     11  C9  <0> d           3.925  -0.168  -4.430  0.00  0.00     0.118 A 
ATOM     12  C10 <0> d           5.025  -0.918  -4.801  0.00  0.00     0.063 A 
ATOM     13  C11 <0> d           5.945  -1.381  -3.872  0.00  0.00     0.041 A 
ATOM     14  C12 <0> d           5.719  -1.057  -2.533  0.00  0.00     0.063 A 
ATOM     15  N3  <0> d           6.465  -1.381  -1.412  0.00  0.00    -0.321 N 
ATOM     16  C13 <0> d           5.921  -0.884  -0.282  0.00  0.00     0.276 A 
ATOM     17  O1  <0> d           6.357  -1.010   0.843  0.00  0.00    -0.268 OA
ATOM     18 Br1  <0> d           7.444  -2.406  -4.398  0.00  0.00    -0.049 Br
ATOM     19  F1  <0> d           3.062   0.255  -5.379  0.00  0.00    -0.206 F 
ATOM     20  N4  <0> d           4.780   1.267  -0.309  0.00  0.00    -0.318 N 
ATOM     21  C14 <0> d           3.684   2.001  -0.019  0.00  0.00     0.258 C 
ATOM     22  O2  <0> d           3.785   3.187   0.233  0.00  0.00    -0.267 OA
ATOM     23  H4  <0> d           3.566  -1.641   0.354  0.00  0.00     0.164 HD
ATOM     24  H7  <0> d           7.281  -1.904  -1.437  0.00  0.00     0.169 HD
ATOM     25  H8  <0> d           5.657   1.681  -0.269  0.00  0.00     0.166 HD
ENDROOT
TORSDOF 0
