REMARK  5 active torsions:
REMARK  status: ('A' for Active; 'I' for Inactive)
REMARK    1  A    between atoms: C4_4  and  C7_7 
REMARK    2  A    between atoms: C8_8  and  C20_24 
REMARK    3  A    between atoms: N1_9  and  C10_12 
REMARK    4  A    between atoms: C10_12  and  C11_13 
REMARK    5  A    between atoms: C13_17  and  C14_18 
ROOT
ATOM      1  C7  <0> d           3.348  -0.721   0.007  0.00  0.00     0.294 C 
ATOM      2  C8  <0> d           3.750  -1.235   1.406  0.00  0.00     0.313 C 
ATOM      3  N1  <0> d           4.514  -2.479   1.171  0.00  0.00     0.130 N 
ATOM      4  C9  <0> d           4.580  -2.673  -0.294  0.00  0.00     0.542 C 
ATOM      5  N2  <0> d           3.409  -1.940  -0.844  0.00  0.00     0.123 N 
ATOM      6  H12 <0> d           2.566  -2.487  -0.752  0.00  0.00     0.319 HD
ENDROOT
BRANCH   3   7
ATOM      7  C10 <0> d           3.869  -3.625   1.826  0.00  0.00     0.292 C 
BRANCH   7   8
ATOM      8  C11 <0> d           4.133  -3.567   3.332  0.00  0.00     0.111 A 
ATOM      9  C13 <0> d           3.380  -4.671   4.049  0.00  0.00     0.078 A 
ATOM     10  N4  <0> d           4.297  -5.414   4.612  0.00  0.00    -0.154 NA
ATOM     11  N3  <0> d           5.582  -4.943   4.364  0.00  0.00    -0.166 NA
ATOM     12  C12 <0> d           5.586  -3.877   3.631  0.00  0.00     0.126 A 
BRANCH   9  13
ATOM     13  C14 <0> d           1.922  -4.863   4.098  0.00  0.00    -0.009 A 
ATOM     14  C19 <0> d           1.379  -5.939   4.808  0.00  0.00     0.013 A 
ATOM     15  C18 <0> d           0.011  -6.109   4.855  0.00  0.00     0.001 A 
ATOM     16  C17 <0> d          -0.823  -5.226   4.192  0.00  0.00     0.000 A 
ATOM     17  C16 <0> d          -0.293  -4.162   3.482  0.00  0.00     0.001 A 
ATOM     18  C15 <0> d           1.073  -3.975   3.431  0.00  0.00     0.013 A 
ENDBRANCH   9  13
ENDBRANCH   7   8
ENDBRANCH   3   7
BRANCH   2  19
ATOM     19  C20 <0> d           4.612  -0.217   2.107  0.00  0.00     0.061 A 
ATOM     20  C21 <0> d           4.288   0.458   3.227  0.00  0.00     0.116 A 
ATOM     21  N5  <0> d           5.349   1.273   3.518  0.00  0.00    -0.360 N 
ATOM     22  H4  <0> d           5.416   1.884   4.269  0.00  0.00     0.166 HD
ATOM     23  C22 <0> d           6.284   1.067   2.566  0.00  0.00     0.180 A 
ATOM     24  N6  <0> d           5.839   0.171   1.728  0.00  0.00    -0.353 N 
ATOM     25  H23 <0> d           6.318  -0.160   0.953  0.00  0.00     0.166 HD
ENDBRANCH   2  19
BRANCH   1  26
ATOM     26  C4  <0> d           1.950  -0.158   0.030  0.00  0.00    -0.023 A 
ATOM     27  C3  <0> d           1.756   1.210   0.059  0.00  0.00     0.009 A 
ATOM     28  C2  <0> d           0.474   1.726   0.078  0.00  0.00     0.001 A 
ATOM     29  C1  <0> d          -0.614   0.874   0.069  0.00  0.00     0.000 A 
ATOM     30  C6  <0> d          -0.421  -0.494   0.040  0.00  0.00     0.001 A 
ATOM     31  C5  <0> d           0.862  -1.010   0.022  0.00  0.00     0.009 A 
ENDBRANCH   1  26
TORSDOF 5
