REMARK  2 active torsions:
REMARK  status: ('A' for Active; 'I' for Inactive)
REMARK    1  A    between atoms: C6_6  and  N1_7 
REMARK       I    between atoms: N1_7  and  C7_8 
REMARK    2  A    between atoms: C7_8  and  C8_10 
ROOT
ATOM      1  N1  <0> d          -1.203  -0.717   0.010  0.00  0.00    -0.323 N 
ATOM      2  C7  <0> d          -2.374  -0.060   0.127  0.00  0.00     0.259 C 
ATOM      3  O1  <0> d          -2.391   1.155   0.134  0.00  0.00    -0.267 OA
ATOM      4  H5  <0> d          -1.195  -1.684  -0.072  0.00  0.00     0.169 HD
ENDROOT
BRANCH   1   5
ATOM      5  C6  <0> d           0.002  -0.005   0.008  0.00  0.00     0.035 A 
ATOM      6  C1  <0> d           0.123   1.157   0.771  0.00  0.00     0.032 A 
ATOM      7  C2  <0> d           1.290   1.866   0.784  0.00  0.00     0.034 A 
ATOM      8  C3  <0> d           2.377   1.434   0.029  0.00  0.00     0.062 A 
ATOM      9  N3  <0> d           3.648   1.914  -0.164  0.00  0.00    -0.278 N 
ATOM     10  C4  <0> d           2.266   0.263  -0.746  0.00  0.00     0.013 A 
ATOM     11  N2  <0> d           4.330   1.065  -1.042  0.00  0.00    -0.186 NA
ATOM     12  H1  <0> d           4.015   2.714   0.244  0.00  0.00     0.189 HD
ATOM     13  C14 <0> d           3.555   0.084  -1.407  0.00  0.00     0.152 A 
ATOM     14  C5  <0> d           1.065  -0.455  -0.750  0.00  0.00     0.044 A 
ENDBRANCH   1   5
BRANCH   2  15
ATOM     15  C8  <0> d          -3.637  -0.817   0.247  0.00  0.00     0.072 A 
ATOM     16  C13 <0> d          -4.853  -0.139   0.368  0.00  0.00     0.132 A 
ATOM     17  C12 <0> d          -6.032  -0.855   0.474  0.00  0.00     0.044 A 
ATOM     18  F1  <0> d          -4.878   1.212   0.377  0.00  0.00    -0.205 F 
ATOM     19  C11 <0> d          -6.006  -2.237   0.472  0.00  0.00     0.022 A 
ATOM     20  C10 <0> d          -4.803  -2.914   0.358  0.00  0.00     0.012 A 
ATOM     21  C9  <0> d          -3.620  -2.214   0.245  0.00  0.00     0.039 A 
ATOM     22 Br1  <0> d          -4.782  -4.805   0.356  0.00  0.00    -0.051 Br
ENDBRANCH   2  15
TORSDOF 2
