REMARK  3 active torsions:
REMARK  status: ('A' for Active; 'I' for Inactive)
REMARK    1  A    between atoms: C7_7  and  N1_12 
REMARK    2  A    between atoms: N1_12  and  C9_13 
REMARK    3  A    between atoms: C9_13  and  C10_14 
ROOT
ATOM      1  C1  <0> d           4.045  -1.980  -2.828  0.00  0.00     0.001 A 
ATOM      2  C2  <0> d           5.180  -2.032  -2.040  0.00  0.00     0.002 A 
ATOM      3  C3  <0> d           5.040  -2.095  -0.665  0.00  0.00     0.024 A 
ATOM      4  C4  <0> d           3.786  -2.102  -0.100  0.00  0.00     0.067 A 
ATOM      5  C5  <0> d           2.634  -2.035  -0.866  0.00  0.00    -0.005 A 
ATOM      6  C6  <0> d           2.794  -1.982  -2.255  0.00  0.00     0.011 A 
ATOM      7  C7  <0> d           1.326  -2.006  -0.113  0.00  0.00     0.234 C 
ATOM      8  C8  <0> d           1.480  -2.562   1.321  0.00  0.00     0.183 C 
ATOM      9  S1  <0> d           3.262  -2.195   1.598  0.00  0.00     0.178 S 
ATOM     10  O1  <0> d           3.934  -3.318   2.151  0.00  0.00    -0.223 OA
ATOM     11  O2  <0> d           3.437  -0.889   2.131  0.00  0.00    -0.223 OA
ENDROOT
BRANCH   7  12
ATOM     12  N1  <0> d           0.339  -2.819  -0.837  0.00  0.00    -0.064 N 
ATOM     13  H9  <0> d           0.275  -2.499  -1.791  0.00  0.00     0.278 HD
ATOM     14  H18 <0> d           0.626  -3.786  -0.825  0.00  0.00     0.278 HD
BRANCH  12  15
ATOM     15  C9  <0> d          -0.972  -2.689  -0.187  0.00  0.00     0.264 C 
BRANCH  15  16
ATOM     16  C10 <0> d          -2.026  -3.430  -1.013  0.00  0.00     0.147 C 
ATOM     17  O3  <0> d          -1.766  -4.838  -0.982  0.00  0.00    -0.384 OA
ATOM     18  C13 <0> d          -2.869  -5.525  -0.365  0.00  0.00     0.168 C 
ATOM     19  C12 <0> d          -4.090  -4.593  -0.566  0.00  0.00     0.029 C 
ATOM     20  C11 <0> d          -3.426  -3.198  -0.405  0.00  0.00     0.036 C 
ENDBRANCH  15  16
ENDBRANCH  12  15
ENDBRANCH   7  12
TORSDOF 3
