REMARK  9 active torsions:
REMARK  status: ('A' for Active; 'I' for Inactive)
REMARK    1  A    between atoms: C2_2  and  C4_4 
REMARK    2  A    between atoms: C4_4  and  C5_5 
REMARK    3  A    between atoms: C5_5  and  C6_6 
REMARK    4  A    between atoms: C5_5  and  N1_8 
REMARK    5  A    between atoms: C6_6  and  O1_7 
REMARK       I    between atoms: N1_8  and  C7_9 
REMARK    6  A    between atoms: C7_9  and  C8_11 
REMARK    7  A    between atoms: C8_11  and  C9_12 
REMARK    8  A    between atoms: C11_15  and  N3_17 
REMARK    9  A    between atoms: N3_17  and  S2_18 
ROOT
ATOM      1  N1  <0> d          -2.173   1.101  -1.559  0.00  0.00    -0.354 N 
ATOM      2  C7  <0> d          -2.240   1.624  -2.799  0.00  0.00     0.223 C 
ATOM      3  O2  <0> d          -2.199   0.895  -3.768  0.00  0.00    -0.273 OA
ATOM      4  H14 <0> d          -2.206   1.684  -0.784  0.00  0.00     0.162 HD
ENDROOT
BRANCH   2   5
ATOM      5  C8  <0> d          -2.367   3.114  -2.983  0.00  0.00     0.162 C 
BRANCH   5   6
ATOM      6  C9  <0> d          -2.422   3.436  -4.454  0.00  0.00     0.052 A 
ATOM      7  N2  <0> d          -1.478   3.031  -5.285  0.00  0.00    -0.226 NA
ATOM      8  C11 <0> d          -1.536   3.313  -6.569  0.00  0.00     0.204 A 
ATOM      9  S1  <0> d          -2.958   4.204  -6.701  0.00  0.00    -0.059 SA
ATOM     10  C10 <0> d          -3.438   4.159  -4.982  0.00  0.00     0.081 A 
BRANCH   8  11
ATOM     11  N3  <0> d          -0.642   2.964  -7.569  0.00  0.00    -0.137 NA
BRANCH  11  12
ATOM     12  S2  <0> d          -0.919   3.441  -9.131  0.00  0.00     0.249 S 
ATOM     13  O3  <0> d          -2.121   2.781  -9.503  0.00  0.00    -0.204 OA
ATOM     14  O4  <0> d          -0.854   4.860  -9.094  0.00  0.00    -0.204 OA
ATOM     15  C12 <0> d           0.478   2.775 -10.076  0.00  0.00     0.188 C 
ENDBRANCH  11  12
ENDBRANCH   8  11
ENDBRANCH   5   6
ENDBRANCH   2   5
BRANCH   1  16
ATOM     16  C5  <0> d          -2.050  -0.348  -1.381  0.00  0.00     0.108 C 
BRANCH  16  17
ATOM     17  C4  <0> d          -1.388  -0.642  -0.033  0.00  0.00     0.031 C 
BRANCH  17  18
ATOM     18  C2  <0> d           0.041  -0.095  -0.037  0.00  0.00    -0.021 C 
ATOM     19  C1  <0> d           0.656  -0.265   1.354  0.00  0.00     0.009 C 
ATOM     20  C3  <0> d           0.878  -0.862  -1.062  0.00  0.00     0.009 C 
ENDBRANCH  17  18
ENDBRANCH  16  17
BRANCH  16  21
ATOM     21  C6  <0> d          -3.441  -0.986  -1.415  0.00  0.00     0.189 C 
BRANCH  21  22
ATOM     22  O1  <0> d          -4.202  -0.530  -0.295  0.00  0.00    -0.399 OA
ATOM     23  H13 <0> d          -5.096  -0.895  -0.253  0.00  0.00     0.209 HD
ENDBRANCH  21  22
ENDBRANCH  16  21
ENDBRANCH   1  16
TORSDOF 9
