REMARK  9 active torsions:
REMARK  status: ('A' for Active; 'I' for Inactive)
REMARK    1  A    between atoms: C2_2  and  N1_3 
REMARK    2  A    between atoms: N1_3  and  C3_4 
REMARK    3  A    between atoms: N1_3  and  S1_6 
REMARK    4  A    between atoms: S1_6  and  N2_9 
REMARK    5  A    between atoms: N2_9  and  C6_11 
REMARK    6  A    between atoms: C6_11  and  C7_12 
REMARK    7  A    between atoms: C12_17  and  C13_18 
REMARK    8  A    between atoms: C14_19  and  C15_20 
REMARK    9  A    between atoms: C15_20  and  N3_21 
ROOT
ATOM      1  C7  <0> d          -1.350   2.405   2.155  0.00  0.00    -0.021 A 
ATOM      2  C8  <0> d          -0.133   2.237   1.525  0.00  0.00     0.010 A 
ATOM      3  C9  <0> d           0.449   3.291   0.845  0.00  0.00     0.001 A 
ATOM      4  C10 <0> d          -0.183   4.521   0.790  0.00  0.00     0.002 A 
ATOM      5  C11 <0> d          -1.400   4.702   1.416  0.00  0.00     0.021 A 
ATOM      6  C12 <0> d          -1.995   3.641   2.099  0.00  0.00     0.025 A 
ENDROOT
BRANCH   1   7
ATOM      7  C6  <0> d          -1.982   1.255   2.895  0.00  0.00     0.176 C 
BRANCH   7   8
ATOM      8  N2  <0> d          -2.908   0.551   2.005  0.00  0.00    -0.294 N 
ATOM      9  C5  <0> d          -4.258   1.078   1.787  0.00  0.00     0.164 C 
BRANCH   8  10
ATOM     10  S1  <0> d          -2.429  -0.840   1.244  0.00  0.00     0.319 S 
ATOM     11  O1  <0> d          -1.023  -0.742   1.067  0.00  0.00    -0.182 OA
ATOM     12  O2  <0> d          -3.323  -1.036   0.157  0.00  0.00    -0.182 OA
BRANCH  10  13
ATOM     13  N1  <0> d          -2.688  -2.089   2.300  0.00  0.00    -0.295 N 
BRANCH  13  14
ATOM     14  C2  <0> d          -3.928  -2.865   2.228  0.00  0.00     0.132 C 
ATOM     15  C1  <0> d          -4.943  -2.298   3.223  0.00  0.00     0.027 C 
ENDBRANCH  13  14
BRANCH  13  16
ATOM     16  C3  <0> d          -1.675  -2.418   3.307  0.00  0.00     0.132 C 
ATOM     17  C4  <0> d          -0.773  -3.534   2.778  0.00  0.00     0.027 C 
ENDBRANCH  13  16
ENDBRANCH  10  13
ENDBRANCH   8  10
ENDBRANCH   7   8
ENDBRANCH   1   7
BRANCH   6  18
ATOM     18  C13 <0> d          -3.260   3.821   2.745  0.00  0.00    -0.065 C 
ATOM     19  C14 <0> d          -4.297   3.969   3.275  0.00  0.00    -0.074 C 
BRANCH  19  20
ATOM     20  C15 <0> d          -5.598   4.154   3.940  0.00  0.00     0.323 C 
BRANCH  20  21
ATOM     21  N3  <0> d          -6.061   5.533   3.734  0.00  0.00    -0.069 N 
ATOM     22  H22 <0> d          -6.952   5.660   4.189  0.00  0.00     0.275 HD
ATOM     23  H23 <0> d          -5.388   6.175   4.126  0.00  0.00     0.275 HD
ATOM     24  H24 <0> d          -6.159   5.711   2.746  0.00  0.00     0.275 HD
ENDBRANCH  20  21
ENDBRANCH  19  20
ENDBRANCH   6  18
TORSDOF 9
