REMARK  3 active torsions:
REMARK  status: ('A' for Active; 'I' for Inactive)
REMARK    1  A    between atoms: C6_8  and  N3_13 
REMARK    2  A    between atoms: C7_9  and  C8_10 
REMARK       I    between atoms: C8_10  and  N2_12 
REMARK       I    between atoms: N3_13  and  C9_14 
REMARK    3  A    between atoms: C9_14  and  C10_16 
ROOT
ATOM      1  N3  <0> d           0.848  -5.858   2.215  0.00  0.00    -0.320 N 
ATOM      2  C9  <0> d           1.839  -6.107   3.094  0.00  0.00     0.235 C 
ATOM      3  O2  <0> d           2.519  -5.196   3.515  0.00  0.00    -0.272 OA
ATOM      4  H10 <0> d           0.305  -6.588   1.878  0.00  0.00     0.169 HD
ENDROOT
BRANCH   1   5
ATOM      5  C6  <0> d           0.605  -4.560   1.793  0.00  0.00     0.093 A 
ATOM      6  S1  <0> d           1.416  -3.159   2.244  0.00  0.00    -0.074 SA
ATOM      7  C5  <0> d           0.522  -1.973   1.288  0.00  0.00     0.018 A 
ATOM      8  C4  <0> d          -0.409  -2.698   0.626  0.00  0.00    -0.023 A 
ATOM      9  C23 <0> d           0.715  -0.492   1.197  0.00  0.00     0.281 C 
ATOM     10  C3  <0> d          -1.389  -2.010  -0.313  0.00  0.00     0.068 C 
ATOM     11  C7  <0> d          -0.363  -4.120   0.903  0.00  0.00     0.073 A 
ATOM     12  C2  <0> d          -1.376  -0.512   0.008  0.00  0.00     0.239 C 
ATOM     13  N1  <0> d           0.002  -0.004   0.002  0.00  0.00    -0.070 N 
ATOM     14  C1  <0> d          -0.018   1.465   0.010  0.00  0.00     0.270 C 
ATOM     15  H22 <0> d           0.475  -0.329  -0.828  0.00  0.00     0.279 HD
BRANCH  11  16
ATOM     16  C8  <0> d          -1.299  -5.053   0.268  0.00  0.00     0.252 C 
ATOM     17  O1  <0> d          -1.013  -5.574  -0.794  0.00  0.00    -0.268 OA
ATOM     18  N2  <0> d          -2.476  -5.334   0.861  0.00  0.00    -0.366 N 
ATOM     19  H8  <0> d          -2.704  -4.919   1.707  0.00  0.00     0.159 HD
ATOM     20  H9  <0> d          -3.096  -5.952   0.441  0.00  0.00     0.159 HD
ENDBRANCH  11  16
ENDBRANCH   1   5
BRANCH   2  21
ATOM     21  C10 <0> d           2.103  -7.518   3.552  0.00  0.00     0.149 C 
ATOM     22  C18 <0> d           3.253  -7.519   4.523  0.00  0.00    -0.007 A 
ATOM     23  C17 <0> d           3.028  -7.620   5.887  0.00  0.00     0.083 A 
ATOM     24  C19 <0> d           4.546  -7.417   4.043  0.00  0.00     0.011 A 
ATOM     25  O3  <0> d           1.771  -7.721   6.381  0.00  0.00    -0.310 OA
ATOM     26  C22 <0> d           4.106  -7.619   6.766  0.00  0.00     0.038 A 
ATOM     27  C16 <0> d           0.761  -8.143   5.583  0.00  0.00     0.083 A 
ATOM     28  C11 <0> d           0.864  -8.070   4.203  0.00  0.00    -0.007 A 
ATOM     29  C15 <0> d          -0.394  -8.656   6.162  0.00  0.00     0.038 A 
ATOM     30  C12 <0> d          -0.182  -8.508   3.410  0.00  0.00     0.011 A 
ATOM     31  C13 <0> d          -1.328  -9.018   3.989  0.00  0.00     0.001 A 
ATOM     32  C14 <0> d          -1.434  -9.092   5.366  0.00  0.00     0.003 A 
ATOM     33  C21 <0> d           5.394  -7.518   6.280  0.00  0.00     0.003 A 
ATOM     34  C20 <0> d           5.615  -7.416   4.919  0.00  0.00     0.001 A 
ENDBRANCH   2  21
TORSDOF 3
