REMARK  3 active torsions:
REMARK  status: ('A' for Active; 'I' for Inactive)
REMARK    1  A    between atoms: C2_2  and  N1_9 
REMARK    2  A    between atoms: N1_9  and  C6_10 
REMARK    3  A    between atoms: C11_15  and  N2_16 
ROOT
ATOM      1  C6  <0> d           1.968  -0.176  -1.495  0.00  0.00     0.055 A 
ATOM      2  C7  <0> d           2.743   0.435  -0.518  0.00  0.00     0.033 A 
ATOM      3  C8  <0> d           4.070   0.715  -0.761  0.00  0.00     0.025 A 
ATOM      4  C9  <0> d           4.641   0.383  -1.993  0.00  0.00     0.046 A 
ATOM      5  C10 <0> d           3.862  -0.233  -2.978  0.00  0.00     0.054 A 
ATOM      6  C11 <0> d           2.533  -0.516  -2.727  0.00  0.00     0.053 A 
ATOM      7  C12 <0> d           6.020   0.674  -2.246  0.00  0.00     0.099 C 
ATOM      8  N3  <0> d           7.114   0.905  -2.447  0.00  0.00    -0.191 NA
ENDROOT
BRANCH   6   9
ATOM      9  N2  <0> d           1.752  -1.138  -3.709  0.00  0.00    -0.397 N 
ATOM     10  H14 <0> d           0.818  -1.333  -3.534  0.00  0.00     0.156 HD
ATOM     11  H15 <0> d           2.145  -1.373  -4.564  0.00  0.00     0.156 HD
ENDBRANCH   6   9
BRANCH   1  12
ATOM     12  N1  <0> d           0.625  -0.457  -1.244  0.00  0.00    -0.378 N 
ATOM     13  H10 <0> d           0.106  -0.964  -1.889  0.00  0.00     0.160 HD
BRANCH  12  14
ATOM     14  C2  <0> d          -0.004   0.014  -0.008  0.00  0.00     0.040 C 
ATOM     15  C1  <0> d           0.082   1.542   0.033  0.00  0.00     0.039 C 
ATOM     16  C5  <0> d           0.778  -0.556   1.192  0.00  0.00     0.170 C 
ATOM     17  S1  <0> d          -0.457  -1.640   2.023  0.00  0.00     0.146 S 
ATOM     18  C4  <0> d          -1.655  -1.794   0.626  0.00  0.00     0.143 C 
ATOM     19  O1  <0> d           0.130  -2.908   2.276  0.00  0.00    -0.228 OA
ATOM     20  O2  <0> d          -1.069  -0.923   3.086  0.00  0.00    -0.228 OA
ATOM     21  C3  <0> d          -1.476  -0.393  -0.025  0.00  0.00     0.046 C 
ENDBRANCH  12  14
ENDBRANCH   1  12
TORSDOF 3
