REMARK  5 active torsions:
REMARK  status: ('A' for Active; 'I' for Inactive)
REMARK    1  A    between atoms: N1_5  and  C7_8 
REMARK    2  A    between atoms: C7_8  and  C8_9 
REMARK    3  A    between atoms: C10_12  and  N3_14 
REMARK       I    between atoms: N3_14  and  C11_15 
REMARK    4  A    between atoms: C11_15  and  C12_17 
REMARK    5  A    between atoms: N4_21  and  C16_23 
ROOT
ATOM      1  N3  <0> d          -0.011   0.966   0.007  0.00  0.00    -0.305 N 
ATOM      2  C11 <0> d          -1.187   1.624   0.017  0.00  0.00     0.229 C 
ATOM      3  O1  <0> d          -1.204   2.837   0.023  0.00  0.00    -0.273 OA
ATOM      4  H17 <0> d           0.004  -0.134   0.006  0.00  0.00     0.171 HD
ENDROOT
BRANCH   1   5
ATOM      5  C10 <0> d           1.183   1.677  -0.000  0.00  0.00     0.173 A 
ATOM      6  S1  <0> d           1.429   3.396  -0.001  0.00  0.00    -0.062 SA
ATOM      7  C9  <0> d           3.216   3.375  -0.011  0.00  0.00     0.082 A 
ATOM      8  C8  <0> d           3.452   2.041  -0.020  0.00  0.00     0.069 A 
ATOM      9  N2  <0> d           2.420   1.220  -0.015  0.00  0.00    -0.227 NA
BRANCH   8  10
ATOM     10  C7  <0> d           4.861   1.507  -0.037  0.00  0.00     0.294 C 
BRANCH  10  11
ATOM     11  N1  <0> d           5.290   1.213   1.337  0.00  0.00    -0.066 N 
ATOM     12  C4  <0> d           6.559   0.475   1.346  0.00  0.00     0.235 C 
ATOM     13  C3  <0> d           6.900   0.061   2.779  0.00  0.00     0.032 C 
ATOM     14  C2  <0> d           7.011   1.312   3.654  0.00  0.00    -0.015 C 
ATOM     15  C1  <0> d           7.291   0.902   5.101  0.00  0.00     0.010 C 
ATOM     16  C6  <0> d           5.692   2.089   3.590  0.00  0.00     0.032 C 
ATOM     17  C5  <0> d           5.386   2.444   2.133  0.00  0.00     0.235 C 
ATOM     18  H31 <0> d           4.526   0.573   1.802  0.00  0.00     0.280 HD
ENDBRANCH  10  11
ENDBRANCH   8  10
ENDBRANCH   1   5
BRANCH   2  19
ATOM     19  C12 <0> d          -2.482   0.853   0.018  0.00  0.00     0.105 C 
ATOM     20  C15 <0> d          -3.690   1.801   0.184  0.00  0.00     0.141 C 
ATOM     21  N4  <0> d          -4.652   1.068   1.016  0.00  0.00    -0.347 N 
ATOM     22  C14 <0> d          -4.065   0.038   1.649  0.00  0.00     0.221 C 
ATOM     23  C13 <0> d          -2.598  -0.030   1.283  0.00  0.00     0.118 C 
ATOM     24  O2  <0> d          -4.628  -0.726   2.403  0.00  0.00    -0.273 OA
BRANCH  21  25
ATOM     25  C16 <0> d          -6.070   1.415   1.141  0.00  0.00     0.087 C 
ATOM     26  C20 <0> d          -6.943   0.238   0.671  0.00  0.00     0.025 C 
ATOM     27  C19 <0> d          -7.799  -0.187   1.882  0.00  0.00     0.002 C 
ATOM     28  C18 <0> d          -7.851   1.079   2.773  0.00  0.00     0.002 C 
ATOM     29  C17 <0> d          -6.425   1.664   2.621  0.00  0.00     0.025 C 
ENDBRANCH  21  25
ENDBRANCH   2  19
TORSDOF 5
