REMARK  2 active torsions:
REMARK  status: ('A' for Active; 'I' for Inactive)
REMARK    1  A    between atoms: C2_2  and  N1_9 
REMARK       I    between atoms: N1_9  and  C6_10 
REMARK    2  A    between atoms: C6_10  and  C7_12 
ROOT
ATOM      1  N1  <0> d          -1.385  -0.471   0.071  0.00  0.00    -0.347 N 
ATOM      2  C6  <0> d          -2.254  -0.148  -0.907  0.00  0.00     0.254 C 
ATOM      3  O3  <0> d          -1.892   0.547  -1.837  0.00  0.00    -0.268 OA
ATOM      4  H10 <0> d          -1.674  -1.026   0.813  0.00  0.00     0.163 HD
ENDROOT
BRANCH   2   5
ATOM      5  C7  <0> d          -3.643  -0.638  -0.850  0.00  0.00     0.058 A 
ATOM      6  C12 <0> d          -4.587  -0.195  -1.791  0.00  0.00     0.050 A 
ATOM      7  C11 <0> d          -5.890  -0.668  -1.738  0.00  0.00    -0.031 A 
ATOM      8  N2  <0> d          -4.195   0.714  -2.768  0.00  0.00    -0.389 N 
ATOM      9  C10 <0> d          -6.254  -1.561  -0.746  0.00  0.00     0.009 A 
ATOM     10  C15 <0> d          -6.927  -0.228  -2.738  0.00  0.00     0.042 C 
ATOM     11  C9  <0> d          -5.329  -1.994   0.189  0.00  0.00     0.002 A 
ATOM     12  C8  <0> d          -4.029  -1.541   0.144  0.00  0.00     0.019 A 
ATOM     13  C14 <0> d          -6.510   1.097  -3.389  0.00  0.00     0.024 C 
ATOM     14  C13 <0> d          -5.077   0.948  -3.918  0.00  0.00     0.120 C 
ATOM     15  H14 <0> d          -3.351   1.186  -2.690  0.00  0.00     0.159 HD
ENDBRANCH   2   5
BRANCH   1  16
ATOM     16  C2  <0> d          -0.005   0.016   0.015  0.00  0.00     0.043 C 
ATOM     17  C1  <0> d          -0.026   1.546  -0.008  0.00  0.00     0.039 C 
ATOM     18  C5  <0> d           0.736  -0.448   1.284  0.00  0.00     0.170 C 
ATOM     19  S1  <0> d           2.210  -1.324   0.616  0.00  0.00     0.146 S 
ATOM     20  C4  <0> d           2.171  -0.637  -1.098  0.00  0.00     0.143 C 
ATOM     21  O1  <0> d           1.943  -2.719   0.566  0.00  0.00    -0.228 OA
ATOM     22  O2  <0> d           3.375  -0.855   1.280  0.00  0.00    -0.228 OA
ATOM     23  C3  <0> d           0.635  -0.483  -1.280  0.00  0.00     0.046 C 
ENDBRANCH   1  16
TORSDOF 2
