REMARK  5 active torsions:
REMARK  status: ('A' for Active; 'I' for Inactive)
REMARK    1  A    between atoms: N1_5  and  C5_7 
REMARK    2  A    between atoms: C11_17  and  C12_18 
REMARK    3  A    between atoms: C15_21  and  O3_26 
REMARK    4  A    between atoms: C16_22  and  O2_24 
REMARK    5  A    between atoms: O3_26  and  C19_27 
ROOT
ATOM      1  C1  <0> d           0.226   0.833  -0.510  0.00  0.00     0.073 C 
ATOM      2  C2  <0> d           0.333  -0.647  -0.773  0.00  0.00     0.062 A 
ATOM      3  C3  <0> d           0.362  -1.251  -2.022  0.00  0.00     0.024 A 
ATOM      4  C4  <0> d           0.470  -2.603  -1.836  0.00  0.00     0.159 A 
ATOM      5  N1  <0> d           0.498  -2.831  -0.505  0.00  0.00    -0.042 N 
ATOM      6  N2  <0> d           0.421  -1.586   0.141  0.00  0.00    -0.155 NA
ATOM      7  N5  <0> d           0.544  -3.491  -2.908  0.00  0.00    -0.310 N 
ATOM      8  C9  <0> d           0.711  -2.980  -4.146  0.00  0.00     0.224 C 
ATOM      9  O1  <0> d           0.589  -3.713  -5.105  0.00  0.00    -0.273 OA
ATOM     10  C10 <0> d           1.042  -1.532  -4.374  0.00  0.00     0.117 C 
ATOM     11  C11 <0> d           0.289  -0.628  -3.393  0.00  0.00     0.066 C 
ATOM     12  H8  <0> d           0.478  -4.448  -2.768  0.00  0.00     0.170 HD
ENDROOT
BRANCH  11  13
ATOM     13  C12 <0> d           0.928   0.736  -3.367  0.00  0.00    -0.046 A 
ATOM     14  C17 <0> d           0.183   1.853  -3.696  0.00  0.00     0.047 A 
ATOM     15  C16 <0> d           0.768   3.109  -3.667  0.00  0.00     0.102 A 
ATOM     16  C15 <0> d           2.108   3.241  -3.317  0.00  0.00     0.102 A 
ATOM     17  C14 <0> d           2.850   2.117  -2.993  0.00  0.00     0.040 A 
ATOM     18  C13 <0> d           2.260   0.867  -3.019  0.00  0.00     0.011 A 
BRANCH  15  19
ATOM     19  O2  <0> d           0.035   4.210  -3.985  0.00  0.00    -0.353 OA
ATOM     20  C18 <0> d          -1.335   3.998  -4.335  0.00  0.00     0.210 C 
ENDBRANCH  15  19
BRANCH  16  21
ATOM     21  O3  <0> d           2.688   4.471  -3.291  0.00  0.00    -0.344 OA
BRANCH  21  22
ATOM     22  C19 <0> d           4.030   4.545  -2.808  0.00  0.00     0.121 C 
ATOM     23  C20 <0> d           5.001   4.241  -3.951  0.00  0.00     0.040 C 
ATOM     24  C21 <0> d           4.302   5.952  -2.270  0.00  0.00     0.040 C 
ENDBRANCH  21  22
ENDBRANCH  16  21
ENDBRANCH  11  13
BRANCH   5  25
ATOM     25  C5  <0> d           0.592  -4.075   0.115  0.00  0.00     0.750 A 
ATOM     26  N4  <0> d           0.608  -4.138   1.437  0.00  0.00    -0.073 NA
ATOM     27  C8  <0> d           0.691  -5.303   2.058  0.00  0.00     0.138 A 
ATOM     28  C7  <0> d           0.773  -6.465   1.306  0.00  0.00     0.040 A 
ATOM     29  C6  <0> d           0.759  -6.362  -0.076  0.00  0.00     0.138 A 
ATOM     30  N3  <0> d           0.669  -5.165  -0.632  0.00  0.00    -0.073 NA
ENDBRANCH   5  25
TORSDOF 5
