REMARK  6 active torsions:
REMARK  status: ('A' for Active; 'I' for Inactive)
REMARK    1  A    between atoms: C5_5  and  N1_9 
REMARK    2  A    between atoms: C11_13  and  C12_14 
REMARK    3  A    between atoms: C13_15  and  C20_24 
REMARK    4  A    between atoms: C20_24  and  C21_25 
REMARK    5  A    between atoms: C21_25  and  N3_26 
REMARK       I    between atoms: N3_26  and  C22_27 
REMARK    6  A    between atoms: C25_33  and  S1_34 
ROOT
ATOM      1  N1  <0> d          -1.727   2.820   5.400  0.00  0.00    -0.256 N 
ATOM      2  C9  <0> d          -2.497   1.949   6.086  0.00  0.00     0.270 A 
ATOM      3  O1  <0> d          -2.337   0.747   5.977  0.00  0.00    -0.266 OA
ATOM      4  C10 <0> d          -3.537   2.500   6.972  0.00  0.00     0.104 A 
ATOM      5  C11 <0> d          -4.371   1.674   7.712  0.00  0.00     0.053 C 
ATOM      6  C24 <0> d          -3.653   3.972   7.038  0.00  0.00     0.285 A 
ATOM      7  O3  <0> d          -4.491   4.501   7.749  0.00  0.00    -0.265 OA
ATOM      8  N4  <0> d          -2.816   4.712   6.296  0.00  0.00    -0.184 NA
ATOM      9  C25 <0> d          -1.902   4.167   5.526  0.00  0.00     0.177 A 
ENDROOT
BRANCH   5  10
ATOM     10  C12 <0> d          -4.356   0.281   7.495  0.00  0.00     0.041 A 
ATOM     11  N2  <0> d          -4.317  -0.342   6.260  0.00  0.00    -0.355 N 
ATOM     12  C19 <0> d          -4.311  -1.704   6.449  0.00  0.00     0.043 A 
ATOM     13  H1  <0> d          -4.295   0.109   5.401  0.00  0.00     0.166 HD
ATOM     14  C14 <0> d          -4.357  -1.944   7.838  0.00  0.00    -0.001 A 
ATOM     15  C18 <0> d          -4.277  -2.783   5.571  0.00  0.00     0.030 A 
ATOM     16  C13 <0> d          -4.385  -0.685   8.478  0.00  0.00    -0.017 A 
ATOM     17  C15 <0> d          -4.367  -3.264   8.314  0.00  0.00     0.014 A 
ATOM     18  C16 <0> d          -4.332  -4.304   7.432  0.00  0.00     0.001 A 
ATOM     19  C17 <0> d          -4.287  -4.069   6.063  0.00  0.00     0.002 A 
BRANCH  16  20
ATOM     20  C20 <0> d          -4.436  -0.443   9.964  0.00  0.00     0.061 C 
BRANCH  20  21
ATOM     21  C21 <0> d          -5.895  -0.368  10.419  0.00  0.00     0.127 C 
BRANCH  21  22
ATOM     22  N3  <0> d          -5.944  -0.132  11.864  0.00  0.00    -0.361 N 
ATOM     23  C22 <0> d          -7.134  -0.029  12.490  0.00  0.00     0.213 C 
ATOM     24  O2  <0> d          -8.163  -0.132  11.857  0.00  0.00    -0.274 OA
ATOM     25  C23 <0> d          -7.185   0.214  13.976  0.00  0.00     0.117 C 
ATOM     26  H20 <0> d          -5.121  -0.049  12.371  0.00  0.00     0.162 HD
ENDBRANCH  21  22
ENDBRANCH  20  21
ENDBRANCH  16  20
ENDBRANCH   5  10
BRANCH   1  27
ATOM     27  C5  <0> d          -0.728   2.332   4.547  0.00  0.00     0.051 A 
ATOM     28  C4  <0> d          -1.018   2.069   3.215  0.00  0.00     0.031 A 
ATOM     29  C3  <0> d          -0.029   1.593   2.376  0.00  0.00     0.009 A 
ATOM     30  C2  <0> d           1.245   1.369   2.864  0.00  0.00    -0.061 A 
ATOM     31  C1  <0> d           2.320   0.844   1.947  0.00  0.00     0.048 C 
ATOM     32  C7  <0> d           1.537   1.631   4.190  0.00  0.00     0.015 A 
ATOM     33  C6  <0> d           0.554   2.111   5.033  0.00  0.00    -0.034 A 
ATOM     34  C8  <0> d           0.872   2.396   6.478  0.00  0.00     0.050 C 
ENDBRANCH   1  27
BRANCH   9  35
ATOM     35  S1  <0> d          -0.848   5.234   4.600  0.00  0.00    -0.104 SA
ATOM     36  H24 <0> d          -1.349   6.487   5.009  0.00  0.00     0.110 HD
ENDBRANCH   9  35
TORSDOF 6
