REMARK  6 active torsions:
REMARK  status: ('A' for Active; 'I' for Inactive)
REMARK    1  A    between atoms: C3_3  and  C10_11 
REMARK    2  A    between atoms: C12_14  and  N3_16 
REMARK       I    between atoms: N3_16  and  C13_17 
REMARK    3  A    between atoms: C13_17  and  C14_19 
REMARK    4  A    between atoms: C14_19  and  S2_20 
REMARK    5  A    between atoms: S2_20  and  C15_21 
REMARK    6  A    between atoms: C16_24  and  N6_26 
ROOT
ATOM      1  C10 <0> d          -2.428  -0.332  -0.918  0.00  0.00     0.075 A 
ATOM      2  C11 <0> d          -3.655  -0.973  -0.806  0.00  0.00     0.085 A 
ATOM      3  S1  <0> d          -4.489  -0.400  -2.151  0.00  0.00    -0.061 SA
ATOM      4  C12 <0> d          -3.216   0.656  -2.818  0.00  0.00     0.173 A 
ATOM      5  N2  <0> d          -2.238   0.496  -1.953  0.00  0.00    -0.223 NA
ENDROOT
BRANCH   4   6
ATOM      6  N3  <0> d          -3.251   1.448  -3.956  0.00  0.00    -0.305 N 
ATOM      7  C13 <0> d          -4.361   1.483  -4.720  0.00  0.00     0.233 C 
ATOM      8  O1  <0> d          -5.330   0.822  -4.412  0.00  0.00    -0.272 OA
ATOM      9  H10 <0> d          -2.476   1.978  -4.202  0.00  0.00     0.171 HD
BRANCH   7  10
ATOM     10  C14 <0> d          -4.398   2.344  -5.956  0.00  0.00     0.184 C 
BRANCH  10  11
ATOM     11  S2  <0> d          -6.015   2.176  -6.761  0.00  0.00    -0.092 SA
BRANCH  11  12
ATOM     12  C15 <0> d          -5.901   3.228  -8.170  0.00  0.00     0.160 A 
ATOM     13  S3  <0> d          -7.120   3.567  -9.431  0.00  0.00    -0.022 SA
ATOM     14  C16 <0> d          -6.144   4.705 -10.403  0.00  0.00     0.188 A 
ATOM     15  N5  <0> d          -5.016   4.728  -9.721  0.00  0.00    -0.123 NA
ATOM     16  N4  <0> d          -4.891   3.972  -8.578  0.00  0.00    -0.133 NA
BRANCH  14  17
ATOM     17  N6  <0> d          -6.482   5.381 -11.569  0.00  0.00    -0.377 N 
ATOM     18  H13 <0> d          -5.838   5.970 -11.992  0.00  0.00     0.158 HD
ATOM     19  H14 <0> d          -7.362   5.263 -11.960  0.00  0.00     0.158 HD
ENDBRANCH  14  17
ENDBRANCH  11  12
ENDBRANCH  10  11
ENDBRANCH   7  10
ENDBRANCH   4   6
BRANCH   1  20
ATOM     20  C3  <0> d          -1.411  -0.544   0.036  0.00  0.00     0.006 A 
ATOM     21  C2  <0> d          -1.424  -1.530   1.184  0.00  0.00     0.114 A 
ATOM     22  C1  <0> d          -1.552  -2.958   0.649  0.00  0.00     0.037 C 
ATOM     23  N1  <0> d          -0.144  -1.364   1.878  0.00  0.00    -0.381 N 
ATOM     24  C9  <0> d           0.561  -0.429   1.268  0.00  0.00     0.039 A 
ATOM     25  H15 <0> d           0.140  -1.862   2.660  0.00  0.00     0.160 HD
ATOM     26  C4  <0> d          -0.185   0.110   0.119  0.00  0.00     0.001 A 
ATOM     27  C8  <0> d           1.849   0.102   1.538  0.00  0.00     0.030 A 
ATOM     28  C5  <0> d           0.408   1.127  -0.663  0.00  0.00     0.014 A 
ATOM     29  C6  <0> d           1.645   1.586  -0.344  0.00  0.00     0.001 A 
ATOM     30  C7  <0> d           2.356   1.077   0.745  0.00  0.00     0.002 A 
ENDBRANCH   1  20
TORSDOF 6
