REMARK  4 active torsions:
REMARK  status: ('A' for Active; 'I' for Inactive)
REMARK    1  A    between atoms: C3_4  and  S1_8 
REMARK    2  A    between atoms: C4_5  and  N3_7 
REMARK    3  A    between atoms: S1_8  and  N4_11 
REMARK    4  A    between atoms: C8_15  and  N5_17 
ROOT
ATOM      1  N4  <0> d           1.489  -4.271  -1.476  0.00  0.00    -0.305 N 
ATOM      2  C5  <0> d           2.664  -3.932  -2.289  0.00  0.00     0.135 C 
ATOM      3  C6  <0> d           3.827  -3.584  -1.354  0.00  0.00     0.023 C 
ATOM      4  C7  <0> d           4.052  -4.739  -0.375  0.00  0.00     0.036 C 
ATOM      5  C8  <0> d           2.794  -4.944   0.473  0.00  0.00     0.206 C 
ATOM      6  C9  <0> d           1.621  -5.302  -0.437  0.00  0.00     0.168 C 
ENDROOT
BRANCH   1   7
ATOM      7  S1  <0> d           0.043  -3.501  -1.720  0.00  0.00     0.266 S 
ATOM      8  O1  <0> d          -0.968  -4.372  -1.232  0.00  0.00    -0.200 OA
ATOM      9  O2  <0> d           0.058  -3.026  -3.059  0.00  0.00    -0.200 OA
BRANCH   7  10
ATOM     10  C3  <0> d           0.028  -2.078  -0.681  0.00  0.00     0.143 A 
ATOM     11  C2  <0> d           0.008  -0.791  -1.095  0.00  0.00     0.141 A 
ATOM     12  N1  <0> d           0.002  -0.004   0.002  0.00  0.00    -0.282 N 
ATOM     13  C1  <0> d          -0.018   1.461   0.010  0.00  0.00     0.179 C 
ATOM     14  N2  <0> d           0.025  -0.833   1.131  0.00  0.00    -0.154 NA
ATOM     15  C4  <0> d           0.035  -2.080   0.723  0.00  0.00     0.166 A 
BRANCH  15  16
ATOM     16  N3  <0> d           0.055  -3.214   1.544  0.00  0.00    -0.381 N 
ATOM     17  H6  <0> d           0.065  -4.099   1.148  0.00  0.00     0.157 HD
ATOM     18  H7  <0> d           0.058  -3.114   2.509  0.00  0.00     0.157 HD
ENDBRANCH  15  16
ENDBRANCH   7  10
ENDBRANCH   1   7
BRANCH   5  19
ATOM     19  N5  <0> d           3.022  -6.031   1.434  0.00  0.00    -0.065 N 
ATOM     20  C13 <0> d           1.815  -6.241   2.262  0.00  0.00     0.235 C 
ATOM     21  C12 <0> d           2.296  -6.620   3.675  0.00  0.00     0.029 C 
ATOM     22  C11 <0> d           3.840  -6.580   3.600  0.00  0.00     0.029 C 
ATOM     23  C10 <0> d           4.104  -5.659   2.382  0.00  0.00     0.235 C 
ATOM     24  H24 <0> d           3.263  -6.881   0.947  0.00  0.00     0.280 HD
ENDBRANCH   5  19
TORSDOF 4
