REMARK  1 active torsions:
REMARK  status: ('A' for Active; 'I' for Inactive)
REMARK    1  A    between atoms: N1_5  and  C5_7 
ROOT
ATOM      1  C5  <0> d           3.763   3.029  -0.019  0.00  0.00     0.731 A 
ATOM      2  N3  <0> d           4.378   1.816  -0.032  0.00  0.00    -0.021 NA
ATOM      3  C6  <0> d           3.700   0.645  -0.030  0.00  0.00     0.297 A 
ATOM      4  O1  <0> d           4.269  -0.433  -0.042  0.00  0.00    -0.265 OA
ATOM      5  C7  <0> d           2.269   0.751  -0.015  0.00  0.00     0.076 A 
ATOM      6  C8  <0> d           1.315  -0.341  -0.012  0.00  0.00    -0.021 A 
ATOM      7  C9  <0> d           0.002  -0.004   0.002  0.00  0.00     0.016 A 
ATOM      8  S1  <0> d          -0.022   1.768   0.012  0.00  0.00    -0.073 SA
ATOM      9  C10 <0> d           1.720   2.054  -0.003  0.00  0.00     0.107 A 
ATOM     10  N4  <0> d           2.448   3.164  -0.005  0.00  0.00    -0.180 N 
ATOM     11  C11 <0> d          -1.155  -0.953   0.006  0.00  0.00     0.215 C 
ATOM     12  O2  <0> d          -0.659  -2.259  -0.325  0.00  0.00    -0.376 OA
ATOM     13  C12 <0> d           0.497  -2.637   0.427  0.00  0.00     0.058 C 
ATOM     14  C13 <0> d           1.709  -1.816  -0.022  0.00  0.00     0.078 C 
ATOM     15  C14 <0> d           0.238  -2.386   1.914  0.00  0.00     0.046 C 
ATOM     16  C15 <0> d           0.783  -4.123   0.206  0.00  0.00     0.046 C 
ATOM     17  H18 <0> d           1.999   4.168   0.004  0.00  0.00     0.185 HD
ENDROOT
BRANCH   1  18
ATOM     18  N1  <0> d           4.548   4.171  -0.021  0.00  0.00    -0.066 N 
ATOM     19  C4  <0> d           4.097   5.455  -0.015  0.00  0.00     0.052 A 
ATOM     20  C3  <0> d           5.177   6.268  -0.016  0.00  0.00     0.056 A 
ATOM     21  C16 <0> d           2.654   5.891  -0.006  0.00  0.00     0.071 C 
ATOM     22  C2  <0> d           6.324   5.464  -0.033  0.00  0.00     0.054 A 
ATOM     23  C1  <0> d           7.747   5.958  -0.045  0.00  0.00     0.072 C 
ATOM     24  N2  <0> d           5.949   4.211  -0.035  0.00  0.00    -0.158 NA
ENDBRANCH   1  18
TORSDOF 1
