REMARK  7 active torsions:
REMARK  status: ('A' for Active; 'I' for Inactive)
REMARK    1  A    between atoms: C2_2  and  C3_3 
REMARK    2  A    between atoms: C3_3  and  N1_4 
REMARK    3  A    between atoms: N3_13  and  C17_26 
REMARK    4  A    between atoms: C8_14  and  C9_16 
REMARK    5  A    between atoms: C12_19  and  N5_22 
REMARK       I    between atoms: N5_22  and  C15_23 
REMARK    6  A    between atoms: C17_26  and  C18_27 
REMARK    7  A    between atoms: C18_27  and  N6_34 
ROOT
ATOM      1  N1  <0> d          -0.054  -7.020   3.356  0.00  0.00    -0.282 N 
ATOM      2  C4  <0> d           0.788  -5.997   2.947  0.00  0.00     0.169 A 
ATOM      3  C5  <0> d           0.474  -4.689   3.302  0.00  0.00     0.151 A 
ATOM      4  C6  <0> d          -0.693  -4.442   4.055  0.00  0.00     0.280 A 
ATOM      5  O1  <0> d          -0.991  -3.305   4.374  0.00  0.00    -0.265 OA
ATOM      6  N2  <0> d          -1.472  -5.480   4.423  0.00  0.00    -0.273 N 
ATOM      7  H1  <0> d          -2.298  -5.310   4.960  0.00  0.00     0.173 HD
ATOM      8  C7  <0> d          -1.155  -6.740   4.078  0.00  0.00     0.331 A 
ATOM      9  O2  <0> d          -1.882  -7.651   4.428  0.00  0.00    -0.246 OA
ATOM     10  N3  <0> d           1.466  -3.889   2.766  0.00  0.00    -0.322 N 
ATOM     11  C8  <0> d           2.336  -4.718   2.125  0.00  0.00     0.143 A 
ATOM     12  N4  <0> d           1.918  -5.963   2.243  0.00  0.00    -0.210 NA
ENDROOT
BRANCH  11  13
ATOM     13  C9  <0> d           3.555  -4.290   1.411  0.00  0.00     0.010 A 
ATOM     14  C14 <0> d           4.566  -5.214   1.134  0.00  0.00     0.017 A 
ATOM     15  C13 <0> d           5.702  -4.811   0.468  0.00  0.00     0.030 A 
ATOM     16  C12 <0> d           5.844  -3.486   0.070  0.00  0.00     0.034 A 
ATOM     17  C11 <0> d           4.840  -2.563   0.345  0.00  0.00     0.030 A 
ATOM     18  C10 <0> d           3.699  -2.960   1.006  0.00  0.00     0.017 A 
BRANCH  16  19
ATOM     19  N5  <0> d           6.997  -3.081  -0.605  0.00  0.00    -0.328 N 
ATOM     20  C15 <0> d           7.595  -3.916  -1.478  0.00  0.00     0.218 C 
ATOM     21  O3  <0> d           7.183  -5.049  -1.613  0.00  0.00    -0.274 OA
ATOM     22  C16 <0> d           8.776  -3.443  -2.285  0.00  0.00     0.117 C 
ATOM     23  H13 <0> d           7.367  -2.199  -0.447  0.00  0.00     0.169 HD
ENDBRANCH  16  19
ENDBRANCH  11  13
BRANCH  10  24
ATOM     24  C17 <0> d           1.565  -2.431   2.873  0.00  0.00     0.159 C 
BRANCH  24  25
ATOM     25  C18 <0> d           0.729  -1.781   1.769  0.00  0.00     0.255 C 
BRANCH  25  26
ATOM     26  N6  <0> d           0.823  -0.311   1.901  0.00  0.00    -0.066 N 
ATOM     27  C19 <0> d          -0.141   0.341   0.990  0.00  0.00     0.261 C 
ATOM     28  C20 <0> d          -0.044   1.857   1.176  0.00  0.00     0.195 C 
ATOM     29  O4  <0> d           1.298   2.280   0.920  0.00  0.00    -0.388 OA
ATOM     30  C21 <0> d           2.269   1.657   1.766  0.00  0.00     0.195 C 
ATOM     31  C22 <0> d           2.195   0.138   1.585  0.00  0.00     0.261 C 
ATOM     32  H29 <0> d           0.600  -0.048   2.868  0.00  0.00     0.280 HD
ENDBRANCH  25  26
ENDBRANCH  24  25
ENDBRANCH  10  24
BRANCH   1  33
ATOM     33  C3  <0> d           0.255  -8.408   3.002  0.00  0.00     0.135 C 
BRANCH  33  34
ATOM     34  C2  <0> d           1.125  -9.031   4.095  0.00  0.00     0.016 C 
ATOM     35  C1  <0> d           1.448 -10.480   3.724  0.00  0.00     0.006 C 
ENDBRANCH  33  34
ENDBRANCH   1  33
TORSDOF 7
