REMARK  4 active torsions:
REMARK  status: ('A' for Active; 'I' for Inactive)
REMARK    1  A    between atoms: C4_4  and  O1_10 
REMARK    2  A    between atoms: C5_5  and  C7_7 
REMARK    3  A    between atoms: C7_7  and  N1_8 
REMARK    4  A    between atoms: O1_10  and  C8_11 
ROOT
ATOM      1  C1  <0> d           0.038   1.337  -0.489  0.00  0.00     0.001 A 
ATOM      2  C2  <0> d           1.220   2.054  -0.394  0.00  0.00     0.003 A 
ATOM      3  C3  <0> d           2.414   1.403  -0.158  0.00  0.00     0.038 A 
ATOM      4  C4  <0> d           2.437   0.023  -0.013  0.00  0.00     0.090 A 
ATOM      5  C5  <0> d           1.244  -0.705  -0.108  0.00  0.00     0.041 A 
ATOM      6  C6  <0> d           0.043  -0.034  -0.348  0.00  0.00     0.018 A 
ENDROOT
BRANCH   4   7
ATOM      7  O1  <0> d           3.610  -0.618   0.218  0.00  0.00    -0.307 OA
BRANCH   7   8
ATOM      8  C8  <0> d           4.751   0.121   0.229  0.00  0.00     0.114 A 
ATOM      9  C13 <0> d           5.155   0.760   1.394  0.00  0.00     0.151 A 
ATOM     10  C12 <0> d           6.319   1.507   1.402  0.00  0.00     0.064 A 
ATOM     11  F1  <0> d           4.416   0.647   2.519  0.00  0.00    -0.203 F 
ATOM     12  C11 <0> d           7.073   1.627   0.248  0.00  0.00     0.014 A 
ATOM     13  C10 <0> d           6.668   0.996  -0.914  0.00  0.00     0.022 A 
ATOM     14 Br1  <0> d           8.661   2.655   0.261  0.00  0.00    -0.051 Br
ATOM     15  C9  <0> d           5.509   0.244  -0.926  0.00  0.00     0.042 A 
ENDBRANCH   7   8
ENDBRANCH   4   7
BRANCH   5  16
ATOM     16  C7  <0> d           1.256  -2.174   0.043  0.00  0.00     0.105 C 
ATOM     17  N2  <0> d           2.034  -2.918  -0.742  0.00  0.00    -0.385 N 
ATOM     18  H6  <0> d           2.593  -2.495  -1.413  0.00  0.00     0.157 HD
ATOM     19  H7  <0> d           2.042  -3.883  -0.642  0.00  0.00     0.157 HD
BRANCH  16  20
ATOM     20  N1  <0> d           0.489  -2.755   0.965  0.00  0.00    -0.385 N 
ATOM     21  H5  <0> d          -0.131  -2.221   1.487  0.00  0.00     0.157 HD
ATOM     22  H11 <0> d           0.550  -3.712   1.114  0.00  0.00     0.157 HD
ENDBRANCH  16  20
ENDBRANCH   5  16
TORSDOF 4
