REMARK  3 active torsions:
REMARK  status: ('A' for Active; 'I' for Inactive)
REMARK    1  A    between atoms: N1_2  and  C2_3 
REMARK    2  A    between atoms: C2_3  and  C3_4 
REMARK    3  A    between atoms: C2_3  and  C7_9 
ROOT
ATOM      1  C7  <0> d          -0.059  -0.109   2.429  0.00  0.00    -0.002 A 
ATOM      2  C8  <0> d          -1.422   0.102   2.351  0.00  0.00     0.043 A 
ATOM      3  C9  <0> d          -2.132   0.453   3.489  0.00  0.00     0.064 A 
ATOM      4  C10 <0> d          -1.467   0.592   4.709  0.00  0.00     0.064 A 
ATOM      5  C11 <0> d          -0.099   0.378   4.778  0.00  0.00     0.051 A 
ATOM      6  C12 <0> d           0.600   0.022   3.640  0.00  0.00     0.022 A 
ATOM      7 Br1  <0> d           2.464  -0.278   3.735  0.00  0.00    -0.050 Br
ATOM      8  N2  <0> d          -2.428   0.945   5.654  0.00  0.00    -0.306 N 
ATOM      9  H2  <0> d          -2.264   1.110   6.595  0.00  0.00     0.170 HD
ATOM     10  C13 <0> d          -3.623   1.018   5.037  0.00  0.00     0.325 A 
ATOM     11  O2  <0> d          -4.674   1.304   5.578  0.00  0.00    -0.247 OA
ATOM     12  N3  <0> d          -3.477   0.726   3.730  0.00  0.00    -0.306 N 
ATOM     13  H3  <0> d          -4.187   0.710   3.070  0.00  0.00     0.170 HD
ENDROOT
BRANCH   1  14
ATOM     14  C2  <0> d           0.713  -0.491   1.192  0.00  0.00     0.276 C 
BRANCH  14  15
ATOM     15  N1  <0> d           0.002  -0.004   0.002  0.00  0.00    -0.065 N 
ATOM     16  C1  <0> d          -0.018   1.465   0.010  0.00  0.00     0.268 C 
ATOM     17  H7  <0> d          -0.945  -0.353   0.009  0.00  0.00     0.277 HD
ATOM     18  H13 <0> d           0.474  -0.330  -0.828  0.00  0.00     0.277 HD
ENDBRANCH  14  15
BRANCH  14  19
ATOM     19  C3  <0> d           0.841  -1.991   1.123  0.00  0.00     0.087 A 
ATOM     20  O1  <0> d          -0.106  -2.841   0.693  0.00  0.00    -0.325 OA
ATOM     21  C6  <0> d           0.355  -4.100   0.766  0.00  0.00     0.142 A 
ATOM     22  C5  <0> d           1.608  -4.065   1.256  0.00  0.00     0.027 A 
ATOM     23  C4  <0> d           1.920  -2.706   1.486  0.00  0.00     0.037 A 
ENDBRANCH  14  19
ENDBRANCH   1  14
TORSDOF 3
