REMARK  3 active torsions:
REMARK  status: ('A' for Active; 'I' for Inactive)
REMARK    1  A    between atoms: C5_5  and  N1_7 
REMARK    2  A    between atoms: C9_11  and  C10_12 
REMARK    3  A    between atoms: C13_15  and  O2_19 
ROOT
ATOM      1  N1  <0> d          -0.139  -2.292   0.192  0.00  0.00    -0.226 N 
ATOM      2  C7  <0> d           0.279  -2.918   1.311  0.00  0.00     0.272 A 
ATOM      3  O1  <0> d           0.179  -2.385   2.400  0.00  0.00    -0.266 OA
ATOM      4  C8  <0> d           0.861  -4.268   1.178  0.00  0.00     0.101 A 
ATOM      5  C9  <0> d           1.310  -4.972   2.279  0.00  0.00     0.034 C 
ATOM      6  C16 <0> d           0.941  -4.833  -0.183  0.00  0.00     0.265 A 
ATOM      7  O3  <0> d           1.408  -5.940  -0.374  0.00  0.00    -0.267 OA
ATOM      8  N2  <0> d           0.481  -4.089  -1.210  0.00  0.00    -0.274 N 
ATOM      9  C17 <0> d          -0.040  -2.870  -1.014  0.00  0.00     0.337 A 
ATOM     10  O4  <0> d          -0.441  -2.253  -1.981  0.00  0.00    -0.246 OA
ATOM     11  H10 <0> d           0.526  -4.445  -2.111  0.00  0.00     0.173 HD
ENDROOT
BRANCH   5  12
ATOM     12  C10 <0> d           1.422  -4.306   3.577  0.00  0.00    -0.034 A 
ATOM     13  C15 <0> d           0.937  -4.934   4.735  0.00  0.00     0.033 A 
ATOM     14  C14 <0> d           1.046  -4.300   5.951  0.00  0.00     0.044 A 
ATOM     15  C13 <0> d           1.635  -3.041   6.030  0.00  0.00     0.083 A 
ATOM     16 Br1  <0> d           0.395  -5.139   7.516  0.00  0.00    -0.048 Br
ATOM     17  C12 <0> d           2.116  -2.418   4.882  0.00  0.00     0.039 A 
ATOM     18  C11 <0> d           2.019  -3.039   3.670  0.00  0.00     0.014 A 
BRANCH  15  19
ATOM     19  O2  <0> d           1.741  -2.418   7.230  0.00  0.00    -0.359 OA
ATOM     20  H9  <0> d           2.561  -2.615   7.704  0.00  0.00     0.217 HD
ENDBRANCH  15  19
ENDBRANCH   5  12
BRANCH   1  21
ATOM     21  C5  <0> d          -0.696  -1.009   0.292  0.00  0.00     0.086 A 
ATOM     22  C4  <0> d          -2.065  -0.856   0.479  0.00  0.00     0.143 A 
ATOM     23  C3  <0> d          -2.610   0.412   0.578  0.00  0.00     0.044 A 
ATOM     24  F1  <0> d          -2.862  -1.943   0.564  0.00  0.00    -0.204 F 
ATOM     25  C2  <0> d          -1.794   1.525   0.491  0.00  0.00     0.003 A 
ATOM     26  C1  <0> d          -0.432   1.375   0.305  0.00  0.00     0.002 A 
ATOM     27  C6  <0> d           0.119   0.112   0.206  0.00  0.00     0.033 A 
ENDBRANCH   1  21
TORSDOF 3
