REMARK  8 active torsions:
REMARK  status: ('A' for Active; 'I' for Inactive)
REMARK    1  A    between atoms: C2_2  and  C4_4 
REMARK    2  A    between atoms: C5_6  and  C7_9 
REMARK    3  A    between atoms: C7_9  and  C8_10 
REMARK    4  A    between atoms: C8_10  and  N2_11 
REMARK       I    between atoms: N2_11  and  C9_12 
REMARK       I    between atoms: C9_12  and  N4_14 
REMARK    5  A    between atoms: N4_14  and  C10_15 
REMARK    6  A    between atoms: C10_15  and  C11_16 
REMARK    7  A    between atoms: C11_16  and  C12_17 
REMARK    8  A    between atoms: C15_20  and  O1_23 
ROOT
ATOM      1  N2  <0> d          -5.385  -2.521  -3.715  0.00  0.00    -0.226 N 
ATOM      2  C9  <0> d          -6.144  -1.954  -4.710  0.00  0.00     0.667 C 
ATOM      3  N3  <0> d          -6.271  -0.659  -4.776  0.00  0.00    -0.235 N 
ATOM      4  N4  <0> d          -6.770  -2.754  -5.637  0.00  0.00    -0.227 N 
ATOM      5  H13 <0> d          -5.290  -3.485  -3.666  0.00  0.00     0.177 HD
ATOM      6  H14 <0> d          -6.808  -0.259  -5.479  0.00  0.00     0.174 HD
ATOM      7  H15 <0> d          -6.675  -3.719  -5.588  0.00  0.00     0.177 HD
ATOM      8  H27 <0> d          -5.830  -0.094  -4.122  0.00  0.00     0.174 HD
ENDROOT
BRANCH   1   9
ATOM      9  C8  <0> d          -4.718  -1.668  -2.727  0.00  0.00     0.144 C 
BRANCH   9  10
ATOM     10  C7  <0> d          -3.944  -2.542  -1.738  0.00  0.00     0.080 C 
BRANCH  10  11
ATOM     11  C5  <0> d          -3.259  -1.665  -0.722  0.00  0.00     0.043 A 
ATOM     12  N1  <0> d          -2.004  -1.288  -0.872  0.00  0.00    -0.250 NA
ATOM     13  C4  <0> d          -1.412  -0.526   0.013  0.00  0.00     0.078 A 
ATOM     14  S1  <0> d          -2.610  -0.276   1.168  0.00  0.00    -0.084 SA
ATOM     15  C6  <0> d          -3.904  -1.227   0.389  0.00  0.00     0.078 A 
BRANCH  13  16
ATOM     16  C2  <0> d           0.002  -0.004   0.002  0.00  0.00     0.037 C 
ATOM     17  C1  <0> d          -0.019   1.526   0.010  0.00  0.00     0.016 C 
ATOM     18  C3  <0> d           0.742  -0.511   1.242  0.00  0.00     0.016 C 
ENDBRANCH  13  16
ENDBRANCH  10  11
ENDBRANCH   9  10
ENDBRANCH   1   9
BRANCH   4  19
ATOM     19  C10 <0> d          -7.580  -2.151  -6.699  0.00  0.00     0.142 C 
BRANCH  19  20
ATOM     20  C11 <0> d          -8.159  -3.253  -7.587  0.00  0.00     0.058 C 
BRANCH  20  21
ATOM     21  C12 <0> d          -8.992  -2.632  -8.679  0.00  0.00    -0.057 A 
ATOM     22  C17 <0> d          -8.406  -2.289  -9.883  0.00  0.00     0.010 A 
ATOM     23  C16 <0> d          -9.168  -1.725 -10.888  0.00  0.00     0.037 A 
ATOM     24  C15 <0> d         -10.521  -1.493 -10.683  0.00  0.00     0.068 A 
ATOM     25  C14 <0> d         -11.105  -1.833  -9.472  0.00  0.00     0.037 A 
ATOM     26  C13 <0> d         -10.339  -2.402  -8.473  0.00  0.00     0.010 A 
BRANCH  24  27
ATOM     27  O1  <0> d         -11.272  -0.934 -11.668  0.00  0.00    -0.356 OA
ATOM     28  C18 <0> d         -10.604  -0.609 -12.889  0.00  0.00     0.210 C 
ENDBRANCH  24  27
ENDBRANCH  20  21
ENDBRANCH  19  20
ENDBRANCH   4  19
TORSDOF 8
