REMARK  4 active torsions:
REMARK  status: ('A' for Active; 'I' for Inactive)
REMARK    1  A    between atoms: C2_2  and  C3_3 
REMARK    2  A    between atoms: C3_3  and  N1_4 
REMARK    3  A    between atoms: C6_7  and  N2_10 
REMARK    4  A    between atoms: N2_10  and  C9_11 
ROOT
ATOM      1  N2  <0> d           1.958  -6.002  -1.396  0.00  0.00     0.097 N 
ATOM      2  H18 <0> d           2.068  -6.423  -0.486  0.00  0.00     0.317 HD
ENDROOT
BRANCH   1   3
ATOM      3  C6  <0> d           2.137  -4.546  -1.328  0.00  0.00     0.224 C 
ATOM      4  C5  <0> d           1.705  -4.041   0.052  0.00  0.00     0.063 C 
ATOM      5  C4  <0> d           1.819  -2.516   0.090  0.00  0.00     0.237 C 
ATOM      6  N1  <0> d           0.951  -1.931  -0.940  0.00  0.00    -0.071 N 
ATOM      7  C8  <0> d           1.403  -2.354  -2.271  0.00  0.00     0.237 C 
ATOM      8  H29 <0> d           0.002  -2.243  -0.793  0.00  0.00     0.279 HD
ATOM      9  C7  <0> d           1.274  -3.873  -2.399  0.00  0.00     0.063 C 
BRANCH   6  10
ATOM     10  C3  <0> d           1.003  -0.466  -0.848  0.00  0.00     0.234 C 
BRANCH  10  11
ATOM     11  C2  <0> d           0.416  -0.018   0.491  0.00  0.00     0.023 C 
ATOM     12  C1  <0> d           0.470   1.508   0.587  0.00  0.00     0.007 C 
ENDBRANCH  10  11
ENDBRANCH   6  10
ENDBRANCH   1   3
BRANCH   1  13
ATOM     13  C9  <0> d           2.884  -6.601  -2.368  0.00  0.00     0.257 C 
ATOM     14  C14 <0> d           2.307  -7.894  -2.888  0.00  0.00     0.018 A 
ATOM     15  C13 <0> d           3.023  -9.037  -3.046  0.00  0.00     0.040 A 
ATOM     16  C15 <0> d           0.996  -8.148  -3.285  0.00  0.00     0.150 A 
ATOM     17  C12 <0> d           4.492  -9.167  -2.727  0.00  0.00     0.059 C 
ATOM     18  N4  <0> d           2.193  -9.979  -3.523  0.00  0.00    -0.278 N 
ATOM     19  C11 <0> d           5.089  -7.759  -2.616  0.00  0.00     0.008 C 
ATOM     20  C10 <0> d           4.222  -6.908  -1.684  0.00  0.00     0.041 C 
ATOM     21  N3  <0> d           0.922  -9.399  -3.668  0.00  0.00    -0.184 NA
ATOM     22  C16 <0> d           2.550 -11.365  -3.837  0.00  0.00     0.179 C 
ENDBRANCH   1  13
TORSDOF 4
