REMARK  6 active torsions:
REMARK  status: ('A' for Active; 'I' for Inactive)
REMARK    1  A    between atoms: C2_2  and  C3_3 
REMARK       I    between atoms: C3_3  and  N1_5 
REMARK    2  A    between atoms: N1_5  and  C4_6 
REMARK    3  A    between atoms: C4_6  and  C5_7 
REMARK    4  A    between atoms: C5_7  and  C6_8 
REMARK    5  A    between atoms: C13_17  and  C14_18 
REMARK    6  A    between atoms: N4_25  and  C19_28 
ROOT
ATOM      1  C6  <0> d          -3.135  -0.058   1.444  0.00  0.00    -0.017 A 
ATOM      2  C7  <0> d          -3.882   1.098   1.761  0.00  0.00    -0.001 A 
ATOM      3  C8  <0> d          -5.179   1.297   2.257  0.00  0.00     0.014 A 
ATOM      4  C9  <0> d          -5.637   2.564   2.469  0.00  0.00     0.001 A 
ATOM      5  C10 <0> d          -4.831   3.663   2.197  0.00  0.00     0.002 A 
ATOM      6  C11 <0> d          -3.554   3.495   1.709  0.00  0.00     0.030 A 
ATOM      7  C12 <0> d          -3.062   2.212   1.484  0.00  0.00     0.043 A 
ATOM      8  N2  <0> d          -1.856   1.740   1.020  0.00  0.00    -0.355 N 
ATOM      9  H1  <0> d          -1.100   2.286   0.756  0.00  0.00     0.166 HD
ATOM     10  C13 <0> d          -1.900   0.357   0.990  0.00  0.00     0.041 A 
ENDROOT
BRANCH  10  11
ATOM     11  C14 <0> d          -0.854  -0.489   0.570  0.00  0.00     0.053 C 
ATOM     12  C15 <0> d          -0.106  -0.162  -0.551  0.00  0.00     0.103 A 
ATOM     13  C18 <0> d          -0.478   0.968  -1.422  0.00  0.00     0.270 A 
ATOM     14  C16 <0> d           1.098  -0.929  -0.925  0.00  0.00     0.263 A 
ATOM     15  N4  <0> d           0.297   1.228  -2.495  0.00  0.00    -0.254 N 
ATOM     16  O3  <0> d          -1.460   1.645  -1.182  0.00  0.00    -0.266 OA
ATOM     17  C17 <0> d           1.379   0.488  -2.775  0.00  0.00     0.188 A 
ATOM     18  N3  <0> d           1.776  -0.553  -2.029  0.00  0.00    -0.299 N 
ATOM     19  S1  <0> d           2.303   0.892  -4.158  0.00  0.00    -0.040 SA
ATOM     20  H17 <0> d           2.570  -1.046  -2.288  0.00  0.00     0.171 HD
ATOM     21  O2  <0> d           1.468  -1.875  -0.256  0.00  0.00    -0.267 OA
BRANCH  15  22
ATOM     22  C19 <0> d          -0.037   2.296  -3.338  0.00  0.00     0.045 A 
ATOM     23  C24 <0> d          -1.147   2.208  -4.167  0.00  0.00     0.030 A 
ATOM     24  C23 <0> d          -1.474   3.263  -4.996  0.00  0.00     0.002 A 
ATOM     25  C22 <0> d          -0.696   4.406  -5.002  0.00  0.00     0.000 A 
ATOM     26  C21 <0> d           0.411   4.497  -4.178  0.00  0.00     0.002 A 
ATOM     27  C20 <0> d           0.739   3.448  -3.342  0.00  0.00     0.030 A 
ENDBRANCH  15  22
ENDBRANCH  10  11
BRANCH   1  28
ATOM     28  C5  <0> d          -3.602  -1.484   1.577  0.00  0.00     0.061 C 
BRANCH  28  29
ATOM     29  C4  <0> d          -3.250  -2.008   2.971  0.00  0.00     0.127 C 
BRANCH  29  30
ATOM     30  N1  <0> d          -3.704  -3.395   3.101  0.00  0.00    -0.361 N 
ATOM     31  C3  <0> d          -3.501  -4.066   4.252  0.00  0.00     0.217 C 
ATOM     32  O1  <0> d          -2.942  -3.521   5.181  0.00  0.00    -0.274 OA
ATOM     33  H7  <0> d          -4.151  -3.830   2.358  0.00  0.00     0.162 HD
BRANCH  31  34
ATOM     34  C2  <0> d          -3.968  -5.492   4.385  0.00  0.00     0.098 C 
ATOM     35  C1  <0> d          -3.616  -6.016   5.779  0.00  0.00     0.014 C 
ENDBRANCH  31  34
ENDBRANCH  29  30
ENDBRANCH  28  29
ENDBRANCH   1  28
TORSDOF 6
