REMARK  2 active torsions:
REMARK  status: ('A' for Active; 'I' for Inactive)
REMARK    1  A    between atoms: C2_2  and  C3_3 
REMARK    2  A    between atoms: C8_8  and  C15_23 
ROOT
ATOM      1  C3  <0> d           8.196  -1.751   1.303  0.00  0.00    -0.010 C 
ATOM      2  C4  <0> d           8.147  -3.054   0.496  0.00  0.00     0.011 C 
ATOM      3  C5  <0> d           6.739  -3.635   0.605  0.00  0.00     0.060 C 
ATOM      4  C6  <0> d           5.707  -2.592   0.259  0.00  0.00     0.043 A 
ATOM      5  C7  <0> d           5.990  -1.240   0.256  0.00  0.00    -0.017 A 
ATOM      6  C8  <0> d           4.999  -0.326  -0.051  0.00  0.00     0.071 A 
ATOM      7  C9  <0> d           3.700  -0.787  -0.367  0.00  0.00     0.044 A 
ATOM      8  C10 <0> d           2.520   0.010  -0.718  0.00  0.00     0.073 A 
ATOM      9  C11 <0> d           1.361  -0.694  -0.988  0.00  0.00     0.102 A 
ATOM     10  C12 <0> d           0.168  -0.037  -1.336  0.00  0.00     0.268 A 
ATOM     11  O1  <0> d          -0.843  -0.675  -1.571  0.00  0.00    -0.267 OA
ATOM     12  N1  <0> d           0.158   1.312  -1.407  0.00  0.00    -0.274 N 
ATOM     13  H2  <0> d          -0.683   1.795  -1.653  0.00  0.00     0.173 HD
ATOM     14  C13 <0> d           1.280   2.005  -1.146  0.00  0.00     0.327 A 
ATOM     15  O2  <0> d           1.249   3.218  -1.215  0.00  0.00    -0.247 OA
ATOM     16  N2  <0> d           2.432   1.407  -0.812  0.00  0.00    -0.306 N 
ATOM     17  H3  <0> d           3.241   1.964  -0.627  0.00  0.00     0.171 HD
ATOM     18  S1  <0> d           1.808  -2.398  -0.783  0.00  0.00    -0.062 SA
ATOM     19  C14 <0> d           3.516  -2.185  -0.343  0.00  0.00     0.112 A 
ATOM     20  N3  <0> d           4.487  -3.016  -0.043  0.00  0.00    -0.245 NA
ATOM     21  C16 <0> d           7.362  -0.700   0.573  0.00  0.00     0.046 C 
ENDROOT
BRANCH   6  22
ATOM     22  C15 <0> d           5.301   1.150  -0.051  0.00  0.00     0.419 C 
ATOM     23  F1  <0> d           4.666   1.756   1.038  0.00  0.00    -0.166 F 
ATOM     24  F2  <0> d           6.683   1.343   0.049  0.00  0.00    -0.166 F 
ATOM     25  F3  <0> d           4.835   1.722  -1.240  0.00  0.00    -0.166 F 
ENDBRANCH   6  22
BRANCH   1  26
ATOM     26  C2  <0> d           9.644  -1.270   1.417  0.00  0.00     0.000 C 
ATOM     27  C1  <0> d          10.454  -2.279   2.233  0.00  0.00     0.005 C 
ENDBRANCH   1  26
TORSDOF 2
