REMARK  4 active torsions:
REMARK  status: ('A' for Active; 'I' for Inactive)
REMARK    1  A    between atoms: C3_4  and  C5_7 
REMARK    2  A    between atoms: C5_7  and  N2_8 
REMARK       I    between atoms: N2_8  and  C6_9 
REMARK       I    between atoms: C6_9  and  N3_11 
REMARK    3  A    between atoms: N3_11  and  C7_12 
REMARK    4  A    between atoms: C7_12  and  C9_14 
ROOT
ATOM      1  N2  <0> d          -2.447  -3.317   1.371  0.00  0.00    -0.337 N 
ATOM      2  C6  <0> d          -3.484  -4.141   1.617  0.00  0.00     0.316 C 
ATOM      3  O1  <0> d          -4.048  -4.700   0.696  0.00  0.00    -0.247 OA
ATOM      4  N3  <0> d          -3.896  -4.347   2.884  0.00  0.00    -0.339 N 
ATOM      5  H8  <0> d          -1.997  -2.871   2.106  0.00  0.00     0.164 HD
ATOM      6  H9  <0> d          -3.446  -3.901   3.619  0.00  0.00     0.164 HD
ENDROOT
BRANCH   1   7
ATOM      7  C5  <0> d          -1.999  -3.093  -0.006  0.00  0.00     0.184 C 
BRANCH   7   8
ATOM      8  C3  <0> d          -0.834  -2.137  -0.006  0.00  0.00     0.059 A 
ATOM      9  N1  <0> d          -1.013  -0.832   0.002  0.00  0.00    -0.249 NA
ATOM     10  C2  <0> d           0.002  -0.004   0.002  0.00  0.00     0.071 A 
ATOM     11  C1  <0> d          -0.018   1.503   0.010  0.00  0.00     0.078 C 
ATOM     12  S1  <0> d           1.335  -1.032  -0.017  0.00  0.00    -0.085 SA
ATOM     13  C4  <0> d           0.449  -2.582  -0.014  0.00  0.00     0.080 A 
ENDBRANCH   7   8
ENDBRANCH   1   7
BRANCH   4  14
ATOM     14  C7  <0> d          -5.023  -5.244   3.151  0.00  0.00     0.085 C 
ATOM     15  C8  <0> d          -4.519  -6.686   3.236  0.00  0.00     0.032 C 
BRANCH  14  16
ATOM     16  C9  <0> d          -5.681  -4.854   4.476  0.00  0.00    -0.000 C 
ATOM     17  C10 <0> d          -6.859  -5.791   4.755  0.00  0.00     0.011 C 
ATOM     18  C11 <0> d          -4.658  -4.970   5.607  0.00  0.00     0.011 C 
ENDBRANCH  14  16
ENDBRANCH   4  14
TORSDOF 4
