REMARK  4 active torsions:
REMARK  status: ('A' for Active; 'I' for Inactive)
REMARK    1  A    between atoms: C2_2  and  C4_4 
REMARK    2  A    between atoms: C4_4  and  S1_5 
REMARK    3  A    between atoms: S1_5  and  C5_8 
REMARK    4  A    between atoms: C9_16  and  C10_17 
ROOT
ATOM      1  C5  <0> d          -4.662  -1.933  -0.092  0.00  0.00     0.242 A 
ATOM      2  N1  <0> d          -5.522  -2.312  -0.987  0.00  0.00    -0.178 NA
ATOM      3  S2  <0> d          -6.290  -3.628  -0.288  0.00  0.00     0.053 SA
ATOM      4  C6  <0> d          -5.517  -3.639   1.190  0.00  0.00     0.203 A 
ATOM      5  N2  <0> d          -5.703  -4.410   2.238  0.00  0.00    -0.182 NA
ATOM      6  C7  <0> d          -4.995  -4.187   3.359  0.00  0.00     0.283 C 
ATOM      7  O3  <0> d          -5.050  -4.964   4.298  0.00  0.00    -0.265 OA
ATOM      8  C8  <0> d          -4.143  -2.972   3.425  0.00  0.00     0.080 C 
ATOM      9  C9  <0> d          -3.803  -2.382   4.632  0.00  0.00     0.030 C 
ATOM     10  C18 <0> d          -3.674  -2.424   2.120  0.00  0.00     0.146 C 
ATOM     11  N4  <0> d          -2.527  -1.821   1.965  0.00  0.00    -0.282 NA
ATOM     12  N5  <0> d          -4.591  -2.625   1.068  0.00  0.00    -0.246 N 
ATOM     13  H17 <0> d          -1.930  -1.712   2.722  0.00  0.00     0.188 HD
ENDROOT
BRANCH   9  14
ATOM     14  C10 <0> d          -4.728  -2.353   5.681  0.00  0.00    -0.027 A 
ATOM     15  C17 <0> d          -6.085  -3.021   5.724  0.00  0.00     0.159 A 
ATOM     16  N3  <0> d          -6.657  -2.694   7.034  0.00  0.00    -0.385 N 
ATOM     17  C16 <0> d          -5.817  -1.944   7.699  0.00  0.00     0.039 A 
ATOM     18  H18 <0> d          -7.524  -2.985   7.356  0.00  0.00     0.160 HD
ATOM     19  C11 <0> d          -4.595  -1.699   6.902  0.00  0.00    -0.002 A 
ATOM     20  C15 <0> d          -5.890  -1.341   9.037  0.00  0.00     0.030 A 
ATOM     21  C12 <0> d          -3.569  -0.906   7.459  0.00  0.00     0.014 A 
ATOM     22  C13 <0> d          -3.708  -0.382   8.700  0.00  0.00     0.001 A 
ATOM     23  C14 <0> d          -4.851  -0.595   9.480  0.00  0.00     0.002 A 
ENDBRANCH   9  14
BRANCH   1  24
ATOM     24  S1  <0> d          -3.607  -0.552  -0.384  0.00  0.00     0.210 S 
ATOM     25  O1  <0> d          -3.419   0.038   0.895  0.00  0.00    -0.220 OA
ATOM     26  O2  <0> d          -4.240   0.173  -1.430  0.00  0.00    -0.220 OA
BRANCH  24  27
ATOM     27  C4  <0> d          -2.051  -1.271  -0.976  0.00  0.00     0.153 C 
BRANCH  27  28
ATOM     28  C2  <0> d          -1.049  -0.152  -1.264  0.00  0.00    -0.008 C 
ATOM     29  C1  <0> d           0.302  -0.762  -1.643  0.00  0.00     0.010 C 
ATOM     30  C3  <0> d          -1.563   0.707  -2.421  0.00  0.00     0.010 C 
ENDBRANCH  27  28
ENDBRANCH  24  27
ENDBRANCH   1  24
TORSDOF 4
