REMARK  4 active torsions:
REMARK  status: ('A' for Active; 'I' for Inactive)
REMARK    1  A    between atoms: C5_6  and  C6_8 
REMARK    2  A    between atoms: C6_8  and  C7_9 
REMARK    3  A    between atoms: C7_9  and  N3_10 
REMARK       I    between atoms: N3_10  and  C8_11 
REMARK    4  A    between atoms: C8_11  and  C9_13 
ROOT
ATOM      1  C6  <0> d           4.886  -2.378  -2.847  0.00  0.00     0.100 C 
ENDROOT
BRANCH   1   2
ATOM      2  C5  <0> d           5.409  -2.686  -4.226  0.00  0.00     0.128 A 
ATOM      3  N1  <0> d           4.699  -3.455  -5.025  0.00  0.00    -0.237 NA
ATOM      4  C4  <0> d           5.123  -3.748  -6.250  0.00  0.00     0.045 A 
ATOM      5  C3  <0> d           6.330  -3.238  -6.676  0.00  0.00    -0.009 A 
ATOM      6  C14 <0> d           4.267  -4.633  -7.114  0.00  0.00     0.060 C 
ATOM      7  C2  <0> d           7.055  -2.434  -5.804  0.00  0.00     0.041 A 
ATOM      8  C17 <0> d           6.891  -3.510  -8.044  0.00  0.00     0.043 C 
ATOM      9  C1  <0> d           8.380  -1.854  -6.226  0.00  0.00     0.071 C 
ATOM     10  N2  <0> d           6.569  -2.184  -4.601  0.00  0.00    -0.238 NA
ATOM     11  C16 <0> d           6.197  -4.716  -8.676  0.00  0.00     0.005 C 
ATOM     12  C15 <0> d           4.681  -4.510  -8.579  0.00  0.00     0.006 C 
ENDBRANCH   1   2
BRANCH   1  13
ATOM     13  C7  <0> d           4.037  -1.106  -2.896  0.00  0.00     0.130 C 
BRANCH  13  14
ATOM     14  N3  <0> d           3.528  -0.806  -1.556  0.00  0.00    -0.360 N 
ATOM     15  C8  <0> d           2.750   0.276  -1.356  0.00  0.00     0.224 C 
ATOM     16  O1  <0> d           2.471   1.002  -2.287  0.00  0.00    -0.273 OA
ATOM     17  H10 <0> d           3.781  -1.465  -0.711  0.00  0.00     0.162 HD
BRANCH  15  18
ATOM     18  C9  <0> d           2.227   0.584   0.023  0.00  0.00     0.115 C 
ATOM     19  C12 <0> d           3.082   1.672   0.711  0.00  0.00     0.096 C 
ATOM     20  C11 <0> d           2.260   2.938   0.601  0.00  0.00     0.263 C 
ATOM     21  C13 <0> d           4.417   1.839  -0.018  0.00  0.00     0.021 C 
ATOM     22  O2  <0> d           1.133   2.689  -0.081  0.00  0.00    -0.320 OA
ATOM     23  O3  <0> d           2.575   4.012   1.055  0.00  0.00    -0.265 OA
ATOM     24  C10 <0> d           0.840   1.261  -0.053  0.00  0.00     0.193 C 
ENDBRANCH  15  18
ENDBRANCH  13  14
ENDBRANCH   1  13
TORSDOF 4
