REMARK  2 active torsions:
REMARK  status: ('A' for Active; 'I' for Inactive)
REMARK    1  A    between atoms: C6_6  and  N1_8 
REMARK    2  A    between atoms: C9_11  and  C12_18 
ROOT
ATOM      1  N1  <0> d          -1.128  -3.595   4.282  0.00  0.00    -0.229 N 
ATOM      2  C8  <0> d           0.028  -3.929   4.890  0.00  0.00     0.269 A 
ATOM      3  O1  <0> d           0.024  -4.315   6.046  0.00  0.00    -0.267 OA
ATOM      4  C9  <0> d           1.238  -3.828   4.181  0.00  0.00     0.100 A 
ATOM      5  C10 <0> d           1.215  -3.394   2.889  0.00  0.00     0.197 A 
ATOM      6  N2  <0> d           0.016  -3.064   2.308  0.00  0.00    -0.285 N 
ATOM      7  H1  <0> d          -0.005  -2.755   1.389  0.00  0.00     0.172 HD
ATOM      8  C11 <0> d          -1.131  -3.173   3.004  0.00  0.00     0.336 A 
ATOM      9  O2  <0> d          -2.184  -2.882   2.471  0.00  0.00    -0.246 OA
ATOM     10  O3  <0> d           2.363  -3.288   2.186  0.00  0.00    -0.171 OA
ENDROOT
BRANCH   4  11
ATOM     11  C12 <0> d           2.542  -4.196   4.840  0.00  0.00     0.291 C 
ATOM     12  N4  <0> d           3.408  -3.009   4.921  0.00  0.00     0.096 N 
ATOM     13  C22 <0> d           3.593  -2.339   3.630  0.00  0.00     0.277 C 
ATOM     14  C23 <0> d           2.920  -2.069   5.939  0.00  0.00     0.310 C 
ATOM     15  C21 <0> d           4.352  -3.260   2.658  0.00  0.00     0.067 C 
ATOM     16  C14 <0> d           3.637  -4.589   2.692  0.00  0.00    -0.041 A 
ATOM     17  C13 <0> d           3.259  -5.261   4.007  0.00  0.00     0.150 A 
ATOM     18  C15 <0> d           3.140  -5.350   1.726  0.00  0.00    -0.005 A 
ATOM     19  N3  <0> d           2.390  -6.384   3.661  0.00  0.00    -0.378 N 
ATOM     20  C20 <0> d           2.344  -6.454   2.344  0.00  0.00     0.039 A 
ATOM     21  H24 <0> d           1.932  -6.962   4.290  0.00  0.00     0.160 HD
ATOM     22  C19 <0> d           1.690  -7.398   1.500  0.00  0.00     0.030 A 
ATOM     23  C18 <0> d           1.838  -7.245   0.160  0.00  0.00     0.002 A 
ATOM     24  C17 <0> d           2.586  -6.228  -0.442  0.00  0.00     0.001 A 
ATOM     25  C16 <0> d           3.247  -5.271   0.261  0.00  0.00     0.014 A 
ENDBRANCH   4  11
BRANCH   1  26
ATOM     26  C6  <0> d          -2.337  -3.693   4.984  0.00  0.00     0.053 A 
ATOM     27  C5  <0> d          -2.811  -2.607   5.707  0.00  0.00    -0.035 A 
ATOM     28  C4  <0> d          -4.003  -2.706   6.398  0.00  0.00     0.009 A 
ATOM     29  C24 <0> d          -2.027  -1.320   5.737  0.00  0.00     0.050 C 
ATOM     30  C3  <0> d          -4.723  -3.886   6.370  0.00  0.00     0.007 A 
ATOM     31  C2  <0> d          -4.253  -4.970   5.650  0.00  0.00    -0.060 A 
ATOM     32  C1  <0> d          -5.042  -6.254   5.622  0.00  0.00     0.048 C 
ATOM     33  C7  <0> d          -3.060  -4.878   4.962  0.00  0.00     0.037 A 
ENDBRANCH   1  26
TORSDOF 2
