REMARK  4 active torsions:
REMARK  status: ('A' for Active; 'I' for Inactive)
REMARK    1  A    between atoms: C7_9  and  C8_10 
REMARK    2  A    between atoms: C11_13  and  O2_16 
REMARK    3  A    between atoms: O2_16  and  C14_17 
REMARK    4  A    between atoms: C14_17  and  C15_19 
ROOT
ATOM      1  C8  <0> d          -2.177  -0.028  -1.084  0.00  0.00    -0.035 A 
ATOM      2  C9  <0> d          -2.175   1.374  -1.112  0.00  0.00     0.014 A 
ATOM      3  C10 <0> d          -3.226   2.047  -1.679  0.00  0.00     0.038 A 
ATOM      4  C11 <0> d          -4.298   1.342  -2.216  0.00  0.00     0.079 A 
ATOM      5  C12 <0> d          -4.308  -0.049  -2.187  0.00  0.00     0.038 A 
ATOM      6  C13 <0> d          -3.260  -0.733  -1.627  0.00  0.00     0.014 A 
ENDROOT
BRANCH   1   7
ATOM      7  C7  <0> d          -1.054  -0.753  -0.484  0.00  0.00     0.032 C 
ATOM      8  C6  <0> d          -0.560  -1.883  -1.095  0.00  0.00     0.082 C 
ATOM      9  C5  <0> d          -0.998  -2.302  -2.450  0.00  0.00     0.283 C 
ATOM     10  C19 <0> d           0.450  -2.764  -0.435  0.00  0.00     0.166 C 
ATOM     11  N1  <0> d          -0.901  -3.597  -2.788  0.00  0.00    -0.189 NA
ATOM     12  O1  <0> d          -1.442  -1.485  -3.240  0.00  0.00    -0.265 OA
ATOM     13  C4  <0> d          -0.297  -4.451  -1.967  0.00  0.00     0.163 A 
ATOM     14  C3  <0> d          -0.175  -5.849  -2.063  0.00  0.00     0.087 A 
ATOM     15  N3  <0> d           0.322  -4.107  -0.792  0.00  0.00    -0.179 N 
ATOM     16  C2  <0> d           0.463  -6.205  -0.917  0.00  0.00     0.077 A 
ATOM     17  C1  <0> d           0.840  -7.606  -0.510  0.00  0.00     0.079 C 
ATOM     18  O5  <0> d           0.695  -5.089  -0.214  0.00  0.00    -0.232 OA
ATOM     19  N2  <0> d           1.360  -2.322   0.393  0.00  0.00    -0.281 NA
ATOM     20  H13 <0> d           1.403  -1.377   0.606  0.00  0.00     0.188 HD
ENDBRANCH   1   7
BRANCH   4  21
ATOM     21  O2  <0> d          -5.339   2.014  -2.771  0.00  0.00    -0.273 OA
BRANCH  21  22
ATOM     22  C14 <0> d          -6.476   2.125  -2.053  0.00  0.00     0.322 C 
ATOM     23  O3  <0> d          -6.577   1.556  -0.983  0.00  0.00    -0.257 OA
BRANCH  22  24
ATOM     24  C15 <0> d          -7.588   2.931  -2.563  0.00  0.00     0.150 A 
ATOM     25  O4  <0> d          -7.606   3.610  -3.729  0.00  0.00    -0.317 OA
ATOM     26  C18 <0> d          -8.785   4.230  -3.863  0.00  0.00     0.143 A 
ATOM     27  C17 <0> d          -9.546   3.958  -2.779  0.00  0.00     0.027 A 
ATOM     28  C16 <0> d          -8.791   3.123  -1.943  0.00  0.00     0.045 A 
ENDBRANCH  22  24
ENDBRANCH  21  22
ENDBRANCH   4  21
TORSDOF 4
