REMARK  6 active torsions:
REMARK  status: ('A' for Active; 'I' for Inactive)
REMARK    1  A    between atoms: O1_2  and  C2_3 
REMARK    2  A    between atoms: C7_9  and  C10_12 
REMARK    3  A    between atoms: C10_12  and  C11_13 
REMARK    4  A    between atoms: C11_13  and  N2_14 
REMARK       I    between atoms: N2_14  and  C12_15 
REMARK    5  A    between atoms: C12_15  and  C13_17 
REMARK    6  A    between atoms: C14_19  and  C15_22 
ROOT
ATOM      1  N2  <0> d          -0.759  -6.798   1.434  0.00  0.00    -0.354 N 
ATOM      2  C12 <0> d          -0.408  -7.389   2.593  0.00  0.00     0.296 C 
ATOM      3  O2  <0> d          -0.852  -6.974   3.646  0.00  0.00    -0.264 OA
ATOM      4  H14 <0> d          -0.405  -7.128   0.594  0.00  0.00     0.162 HD
ENDROOT
BRANCH   1   5
ATOM      5  C11 <0> d          -1.676  -5.655   1.443  0.00  0.00     0.127 C 
BRANCH   5   6
ATOM      6  C10 <0> d          -1.908  -5.176   0.009  0.00  0.00     0.056 C 
BRANCH   6   7
ATOM      7  C7  <0> d          -2.851  -4.000   0.018  0.00  0.00    -0.048 A 
ATOM      8  C6  <0> d          -4.362  -4.047   0.029  0.00  0.00     0.155 A 
ATOM      9  N1  <0> d          -4.809  -2.650   0.034  0.00  0.00    -0.385 N 
ATOM     10  C5  <0> d          -3.753  -1.875   0.027  0.00  0.00     0.039 A 
ATOM     11  H20 <0> d          -5.731  -2.350   0.042  0.00  0.00     0.160 HD
ATOM     12  C4  <0> d          -3.607  -0.415   0.028  0.00  0.00     0.033 A 
ATOM     13  C8  <0> d          -2.516  -2.690   0.016  0.00  0.00    -0.003 A 
ATOM     14  C3  <0> d          -2.375   0.135   0.020  0.00  0.00     0.039 A 
ATOM     15  C2  <0> d          -1.200  -0.637   0.010  0.00  0.00     0.069 A 
ATOM     16  C9  <0> d          -1.226  -1.992   0.003  0.00  0.00     0.050 A 
BRANCH  15  17
ATOM     17  O1  <0> d           0.002  -0.004   0.002  0.00  0.00    -0.356 OA
ATOM     18  C1  <0> d          -0.017   1.425   0.010  0.00  0.00     0.210 C 
ENDBRANCH  15  17
ENDBRANCH   6   7
ENDBRANCH   5   6
ENDBRANCH   1   5
BRANCH   2  19
ATOM     19  C13 <0> d           0.520  -8.546   2.584  0.00  0.00     0.264 A 
ATOM     20  O3  <0> d           1.077  -9.098   1.493  0.00  0.00    -0.185 OA
ATOM     21  N4  <0> d           1.889 -10.168   1.954  0.00  0.00    -0.105 NA
ATOM     22  C14 <0> d           1.763 -10.193   3.265  0.00  0.00     0.188 A 
ATOM     23  N3  <0> d           0.930  -9.205   3.637  0.00  0.00    -0.195 NA
BRANCH  22  24
ATOM     24  C15 <0> d           2.424 -11.145   4.171  0.00  0.00     0.023 C 
ATOM     25  C18 <0> d           3.362 -12.265   3.804  0.00  0.00     0.099 C 
ATOM     26  C17 <0> d           3.892 -12.701   5.173  0.00  0.00     0.046 C 
ATOM     27  C19 <0> d           4.558 -11.815   3.013  0.00  0.00    -0.011 C 
ATOM     28  N5  <0> d           3.104 -12.163   6.043  0.00  0.00    -0.264 NA
ATOM     29  C22 <0> d           5.022 -13.534   5.257  0.00  0.00     0.028 C 
ATOM     30  C16 <0> d           2.319 -11.211   5.523  0.00  0.00     0.129 C 
ATOM     31  C21 <0> d           5.944 -13.363   4.260  0.00  0.00     0.002 C 
ATOM     32  C20 <0> d           5.745 -12.382   3.259  0.00  0.00    -0.003 C 
ENDBRANCH  22  24
ENDBRANCH   2  19
TORSDOF 6
