REMARK  4 active torsions:
REMARK  status: ('A' for Active; 'I' for Inactive)
REMARK    1  A    between atoms: C2_2  and  C15_21 
REMARK    2  A    between atoms: N1_5  and  C5_9 
REMARK    3  A    between atoms: C5_9  and  C6_10 
REMARK    4  A    between atoms: C6_10  and  C7_12 
ROOT
ATOM      1  C1  <0> d          -0.019   1.526   0.010  0.00  0.00     0.054 C 
ATOM      2  C2  <0> d           0.002  -0.004   0.002  0.00  0.00     0.140 A 
ATOM      3  C3  <0> d           0.815  -0.520  -1.169  0.00  0.00     0.261 A 
ATOM      4  O1  <0> d           0.595  -0.342  -2.348  0.00  0.00    -0.270 OA
ATOM      5  N1  <0> d           1.833  -1.217  -0.627  0.00  0.00    -0.260 N 
ATOM      6  C4  <0> d           1.777  -1.214   0.710  0.00  0.00     0.326 A 
ATOM      7  O2  <0> d           2.586  -1.776   1.421  0.00  0.00    -0.247 OA
ATOM      8  N2  <0> d           0.724  -0.519   1.178  0.00  0.00    -0.321 N 
ATOM      9  H4  <0> d           0.487  -0.383   2.109  0.00  0.00     0.165 HD
ENDROOT
BRANCH   5  10
ATOM     10  C5  <0> d           2.871  -1.896  -1.406  0.00  0.00     0.220 C 
BRANCH  10  11
ATOM     11  C6  <0> d           4.020  -0.950  -1.644  0.00  0.00     0.176 C 
ATOM     12  O3  <0> d           3.975   0.181  -1.205  0.00  0.00    -0.291 OA
BRANCH  11  13
ATOM     13  C7  <0> d           5.147  -1.379  -2.376  0.00  0.00     0.019 A 
ATOM     14  C14 <0> d           5.374  -2.742  -2.991  0.00  0.00     0.163 A 
ATOM     15  N3  <0> d           6.687  -2.681  -3.641  0.00  0.00    -0.385 N 
ATOM     16  C13 <0> d           7.202  -1.498  -3.462  0.00  0.00     0.039 A 
ATOM     17  H20 <0> d           7.108  -3.409  -4.125  0.00  0.00     0.160 HD
ATOM     18  C8  <0> d           6.279  -0.643  -2.676  0.00  0.00     0.002 A 
ATOM     19  C12 <0> d           8.481  -0.907  -3.891  0.00  0.00     0.030 A 
ATOM     20  C9  <0> d           6.671   0.684  -2.380  0.00  0.00     0.014 A 
ATOM     21  C10 <0> d           7.863   1.155  -2.810  0.00  0.00     0.001 A 
ATOM     22  C11 <0> d           8.758   0.371  -3.556  0.00  0.00     0.002 A 
ENDBRANCH  11  13
ENDBRANCH  10  11
ENDBRANCH   5  10
BRANCH   2  23
ATOM     23  C15 <0> d          -1.401  -0.551  -0.040  0.00  0.00    -0.018 A 
ATOM     24  C20 <0> d          -2.082  -0.795   1.138  0.00  0.00     0.049 A 
ATOM     25  C19 <0> d          -3.376  -1.294   1.102  0.00  0.00     0.102 A 
ATOM     26  C18 <0> d          -3.982  -1.556  -0.121  0.00  0.00     0.102 A 
ATOM     27  O4  <0> d          -4.033  -1.531   2.270  0.00  0.00    -0.346 OA
ATOM     28  C17 <0> d          -3.291  -1.315  -1.299  0.00  0.00     0.040 A 
ATOM     29  O5  <0> d          -5.251  -2.045  -0.179  0.00  0.00    -0.346 OA
ATOM     30  C16 <0> d          -2.003  -0.814  -1.256  0.00  0.00     0.013 A 
ATOM     31  C22 <0> d          -5.771  -2.627   1.021  0.00  0.00     0.202 C 
ATOM     32  C21 <0> d          -5.455  -1.683   2.189  0.00  0.00     0.202 C 
ENDBRANCH   2  23
TORSDOF 4
