REMARK  7 active torsions:
REMARK  status: ('A' for Active; 'I' for Inactive)
REMARK    1  A    between atoms: N1_2  and  C2_3 
REMARK    2  A    between atoms: N1_2  and  S2_9 
REMARK    3  A    between atoms: C2_3  and  C3_4 
REMARK    4  A    between atoms: S2_9  and  C6_12 
REMARK    5  A    between atoms: C9_15  and  C12_18 
REMARK    6  A    between atoms: C12_18  and  C13_19 
REMARK    7  A    between atoms: C13_19  and  N3_20 
ROOT
ATOM      1  C6  <0> d           1.682  -1.059  -1.905  0.00  0.00     0.079 A 
ATOM      2  C7  <0> d           2.324  -0.109  -2.677  0.00  0.00     0.026 A 
ATOM      3  C8  <0> d           3.643  -0.293  -3.045  0.00  0.00     0.009 A 
ATOM      4  C9  <0> d           4.322  -1.428  -2.640  0.00  0.00    -0.057 A 
ATOM      5  C10 <0> d           3.680  -2.378  -1.867  0.00  0.00     0.009 A 
ATOM      6  C11 <0> d           2.361  -2.192  -1.496  0.00  0.00     0.026 A 
ENDROOT
BRANCH   1   7
ATOM      7  S2  <0> d          -0.000  -0.824  -1.437  0.00  0.00     0.260 S 
ATOM      8  O1  <0> d          -0.531  -2.115  -1.167  0.00  0.00    -0.200 OA
ATOM      9  O2  <0> d          -0.572   0.049  -2.401  0.00  0.00    -0.200 OA
BRANCH   7  10
ATOM     10  N1  <0> d           0.002  -0.004   0.002  0.00  0.00    -0.305 N 
ATOM     11  C1  <0> d          -0.018   1.461   0.010  0.00  0.00     0.163 C 
BRANCH  10  12
ATOM     12  C2  <0> d           0.024  -0.743   1.267  0.00  0.00     0.194 C 
BRANCH  12  13
ATOM     13  C3  <0> d          -1.384  -0.909   1.776  0.00  0.00     0.059 A 
ATOM     14  N2  <0> d          -1.972   0.027   2.494  0.00  0.00    -0.256 NA
ATOM     15  C5  <0> d          -3.199  -0.118   2.931  0.00  0.00     0.166 A 
ATOM     16  S1  <0> d          -3.632  -1.641   2.359  0.00  0.00    -0.092 SA
ATOM     17  C4  <0> d          -2.103  -2.032   1.522  0.00  0.00     0.080 A 
ENDBRANCH  12  13
ENDBRANCH  10  12
ENDBRANCH   7  10
ENDBRANCH   1   7
BRANCH   4  18
ATOM     18  C12 <0> d           5.760  -1.630  -3.041  0.00  0.00     0.065 C 
BRANCH  18  19
ATOM     19  C13 <0> d           6.676  -1.015  -1.982  0.00  0.00     0.234 C 
BRANCH  19  20
ATOM     20  N3  <0> d           8.078  -1.211  -2.373  0.00  0.00    -0.079 N 
ATOM     21  H16 <0> d           8.271  -2.199  -2.452  0.00  0.00     0.274 HD
ATOM     22  H17 <0> d           8.245  -0.764  -3.262  0.00  0.00     0.274 HD
ATOM     23  H18 <0> d           8.683  -0.806  -1.674  0.00  0.00     0.274 HD
ENDBRANCH  19  20
ENDBRANCH  18  19
ENDBRANCH   4  18
TORSDOF 7
