REMARK  8 active torsions:
REMARK  status: ('A' for Active; 'I' for Inactive)
REMARK    1  A    between atoms: C2_2  and  C3_3 
REMARK    2  A    between atoms: C3_3  and  N1_4 
REMARK    3  A    between atoms: C5_10  and  S1_11 
REMARK    4  A    between atoms: S1_11  and  C6_12 
REMARK    5  A    between atoms: C6_12  and  C7_13 
REMARK    6  A    between atoms: C6_12  and  C11_19 
REMARK    7  A    between atoms: C11_19  and  C12_20 
REMARK    8  A    between atoms: C11_19  and  N4_22 
ROOT
ATOM      1  C6  <0> d          -1.354  -3.842   3.881  0.00  0.00     0.125 C 
ENDROOT
BRANCH   1   2
ATOM      2  S1  <0> d          -1.472  -2.212   3.093  0.00  0.00    -0.078 SA
BRANCH   2   3
ATOM      3  C5  <0> d          -3.186  -1.816   3.186  0.00  0.00     0.192 A 
ATOM      4  N1  <0> d          -3.756  -0.622   2.807  0.00  0.00    -0.276 N 
ATOM      5  C4  <0> d          -5.085  -0.700   3.021  0.00  0.00     0.344 A 
ATOM      6  O1  <0> d          -5.903   0.174   2.793  0.00  0.00    -0.245 OA
ATOM      7  N2  <0> d          -5.345  -1.921   3.531  0.00  0.00    -0.226 N 
ATOM      8  H1  <0> d          -6.216  -2.264   3.785  0.00  0.00     0.194 HD
ATOM      9  N3  <0> d          -4.124  -2.603   3.628  0.00  0.00    -0.145 NA
BRANCH   4  10
ATOM     10  C3  <0> d          -3.042   0.534   2.260  0.00  0.00     0.135 C 
BRANCH  10  11
ATOM     11  C2  <0> d          -2.984   0.422   0.735  0.00  0.00     0.016 C 
ATOM     12  C1  <0> d          -2.238   1.629   0.163  0.00  0.00     0.006 C 
ENDBRANCH  10  11
ENDBRANCH   4  10
ENDBRANCH   2   3
ENDBRANCH   1   2
BRANCH   1  13
ATOM     13  C7  <0> d          -1.686  -3.717   5.345  0.00  0.00    -0.000 A 
ATOM     14  S2  <0> d          -0.877  -2.742   6.603  0.00  0.00    -0.104 SA
ATOM     15  C10 <0> d          -1.915  -3.197   7.982  0.00  0.00     0.069 A 
ATOM     16  C9  <0> d          -2.791  -4.055   7.403  0.00  0.00     0.018 A 
ATOM     17  C8  <0> d          -2.673  -4.322   6.051  0.00  0.00     0.035 A 
ATOM     18 Br1  <0> d          -4.152  -4.874   8.428  0.00  0.00    -0.051 Br
ENDBRANCH   1  13
BRANCH   1  19
ATOM     19  C11 <0> d           0.069  -4.382   3.724  0.00  0.00     0.202 C 
BRANCH  19  20
ATOM     20  C12 <0> d           0.374  -4.593   2.240  0.00  0.00     0.030 C 
ATOM     21  C13 <0> d           1.742  -5.262   2.091  0.00  0.00     0.007 C 
ENDBRANCH  19  20
BRANCH  19  22
ATOM     22  N4  <0> d           1.023  -3.419   4.289  0.00  0.00    -0.074 N 
ATOM     23  H18 <0> d           0.942  -2.540   3.801  0.00  0.00     0.274 HD
ATOM     24  H19 <0> d           0.822  -3.280   5.268  0.00  0.00     0.274 HD
ATOM     25  H20 <0> d           1.961  -3.776   4.186  0.00  0.00     0.274 HD
ENDBRANCH  19  22
ENDBRANCH   1  19
TORSDOF 8
