REMARK  7 active torsions:
REMARK  status: ('A' for Active; 'I' for Inactive)
REMARK    1  A    between atoms: C2_2  and  C3_3 
REMARK    2  A    between atoms: C3_3  and  C4_4 
REMARK    3  A    between atoms: C4_4  and  N1_5 
REMARK    4  A    between atoms: C11_12  and  O5_31 
REMARK    5  A    between atoms: C12_13  and  C14_16 
REMARK       I    between atoms: C14_16  and  N2_18 
REMARK    6  A    between atoms: N2_18  and  C15_19 
REMARK    7  A    between atoms: C16_20  and  O4_30 
ROOT
ATOM      1  C14 <0> d           0.521  -4.001   5.663  0.00  0.00     0.234 C 
ATOM      2  O2  <0> d           0.729  -5.162   5.946  0.00  0.00    -0.273 OA
ATOM      3  N2  <0> d          -0.581  -3.381   6.128  0.00  0.00    -0.341 N 
ATOM      4  H17 <0> d          -0.748  -2.452   5.902  0.00  0.00     0.163 HD
ENDROOT
BRANCH   1   5
ATOM      5  C12 <0> d           1.496  -3.252   4.791  0.00  0.00     0.203 C 
ATOM      6  C11 <0> d           2.648  -4.179   4.404  0.00  0.00     0.175 C 
ATOM      7  C10 <0> d           3.470  -3.535   3.318  0.00  0.00    -0.001 A 
ATOM      8  C5  <0> d           2.853  -2.733   2.367  0.00  0.00     0.046 A 
ATOM      9  C9  <0> d           4.835  -3.739   3.267  0.00  0.00     0.012 A 
ATOM     10  N1  <0> d           1.471  -2.526   2.420  0.00  0.00    -0.317 N 
ATOM     11  C6  <0> d           3.611  -2.139   1.367  0.00  0.00     0.030 A 
ATOM     12  C13 <0> d           0.789  -2.764   3.555  0.00  0.00     0.240 C 
ATOM     13  O1  <0> d          -0.411  -2.589   3.581  0.00  0.00    -0.272 OA
ATOM     14  C7  <0> d           4.975  -2.347   1.321  0.00  0.00     0.002 A 
ATOM     15  C8  <0> d           5.587  -3.146   2.270  0.00  0.00     0.001 A 
BRANCH   6  16
ATOM     16  O5  <0> d           2.121  -5.420   3.929  0.00  0.00    -0.389 OA
ATOM     17  H23 <0> d           2.797  -6.059   3.665  0.00  0.00     0.210 HD
ENDBRANCH   6  16
BRANCH  10  18
ATOM     18  C4  <0> d           0.763  -2.041   1.233  0.00  0.00     0.132 C 
BRANCH  18  19
ATOM     19  C3  <0> d           0.742  -0.511   1.242  0.00  0.00     0.020 C 
BRANCH  19  20
ATOM     20  C2  <0> d           0.002  -0.004   0.002  0.00  0.00    -0.003 C 
ATOM     21  C1  <0> d          -0.019   1.526   0.010  0.00  0.00     0.005 C 
ENDBRANCH  19  20
ENDBRANCH  18  19
ENDBRANCH  10  18
ENDBRANCH   1   5
BRANCH   3  22
ATOM     22  C15 <0> d          -1.528  -4.109   6.976  0.00  0.00     0.234 A 
ATOM     23  C23 <0> d          -0.983  -4.109   8.386  0.00  0.00     0.251 A 
ATOM     24  N3  <0> d          -1.696  -3.601   9.370  0.00  0.00    -0.324 N 
ATOM     25  O3  <0> d           0.116  -4.580   8.614  0.00  0.00    -0.270 OA
ATOM     26  C22 <0> d          -2.912  -3.064   9.201  0.00  0.00     0.047 A 
ATOM     27  H24 <0> d          -1.321  -3.615  10.264  0.00  0.00     0.169 HD
ATOM     28  C17 <0> d          -3.557  -3.000   7.887  0.00  0.00     0.022 A 
ATOM     29  C21 <0> d          -3.605  -2.543  10.307  0.00  0.00     0.030 A 
ATOM     30  C16 <0> d          -2.903  -3.506   6.762  0.00  0.00     0.087 A 
ATOM     31  C18 <0> d          -4.838  -2.423   7.777  0.00  0.00     0.016 A 
ATOM     32  C19 <0> d          -5.454  -1.937   8.890  0.00  0.00     0.001 A 
ATOM     33  C20 <0> d          -4.842  -1.997  10.138  0.00  0.00     0.002 A 
BRANCH  30  34
ATOM     34  O4  <0> d          -3.465  -3.462   5.549  0.00  0.00    -0.361 OA
ATOM     35  H22 <0> d          -4.343  -3.055   5.537  0.00  0.00     0.217 HD
ENDBRANCH  30  34
ENDBRANCH   3  22
TORSDOF 7
