REMARK  4 active torsions:
REMARK  status: ('A' for Active; 'I' for Inactive)
REMARK    1  A    between atoms: C2_2  and  C4_4 
REMARK    2  A    between atoms: C2_2  and  O3_18 
REMARK    3  A    between atoms: C4_4  and  N1_5 
REMARK    4  A    between atoms: C13_14  and  C14_15 
ROOT
ATOM      1  N1  <0> d          -1.122  -0.685   0.776  0.00  0.00    -0.050 N 
ATOM      2  C5  <0> d          -0.487  -0.341   2.058  0.00  0.00     0.241 C 
ATOM      3  C6  <0> d           0.707  -1.271   2.276  0.00  0.00     0.067 C 
ATOM      4  C7  <0> d           0.279  -2.704   2.087  0.00  0.00    -0.048 A 
ATOM      5  C8  <0> d           1.100  -3.712   2.567  0.00  0.00     0.008 A 
ATOM      6  C9  <0> d           0.742  -5.036   2.410  0.00  0.00     0.001 A 
ATOM      7  C10 <0> d          -0.441  -5.358   1.769  0.00  0.00     0.001 A 
ATOM      8  C11 <0> d          -1.259  -4.354   1.292  0.00  0.00     0.010 A 
ATOM      9  C12 <0> d          -0.902  -3.023   1.451  0.00  0.00    -0.011 A 
ATOM     10  C13 <0> d          -1.829  -1.961   0.922  0.00  0.00     0.321 C 
ATOM     11  H19 <0> d          -0.416  -0.770   0.060  0.00  0.00     0.281 HD
ENDROOT
BRANCH   1  12
ATOM     12  C4  <0> d          -2.077   0.366   0.403  0.00  0.00     0.273 C 
BRANCH  12  13
ATOM     13  C2  <0> d          -2.187   0.438  -1.121  0.00  0.00     0.074 C 
ATOM     14  C1  <0> d          -2.679   1.827  -1.532  0.00  0.00     0.047 C 
ATOM     15  C3  <0> d          -0.813   0.179  -1.744  0.00  0.00     0.047 C 
BRANCH  13  16
ATOM     16  O3  <0> d          -3.111  -0.550  -1.579  0.00  0.00    -0.389 OA
ATOM     17  H18 <0> d          -4.005  -0.448  -1.224  0.00  0.00     0.210 HD
ENDBRANCH  13  16
ENDBRANCH  12  13
ENDBRANCH   1  12
BRANCH  10  18
ATOM     18  C14 <0> d          -2.361  -2.390  -0.421  0.00  0.00     0.209 C 
ATOM     19  O1  <0> d          -1.633  -2.374  -1.399  0.00  0.00    -0.646 OA
ATOM     20  O2  <0> d          -3.520  -2.753  -0.530  0.00  0.00    -0.646 OA
ENDBRANCH  10  18
TORSDOF 4
