REMARK  6 active torsions:
REMARK  status: ('A' for Active; 'I' for Inactive)
REMARK    1  A    between atoms: S1_2  and  C2_5 
REMARK    2  A    between atoms: C2_5  and  C3_6 
REMARK    3  A    between atoms: C3_6  and  C4_7 
REMARK    4  A    between atoms: C4_7  and  N1_8 
REMARK    5  A    between atoms: N1_8  and  C5_9 
REMARK    6  A    between atoms: C8_13  and  C10_15 
ROOT
ATOM      1  C5  <0> d           2.464  -4.211  -4.279  0.00  0.00     0.031 A 
ATOM      2  C6  <0> d           3.014  -3.381  -5.256  0.00  0.00     0.046 A 
ATOM      3  C7  <0> d           3.638  -3.947  -6.351  0.00  0.00     0.090 A 
ATOM      4  N2  <0> d           3.720  -5.254  -6.484  0.00  0.00    -0.363 N 
ATOM      5  C8  <0> d           3.211  -6.084  -5.580  0.00  0.00     0.072 A 
ATOM      6  C9  <0> d           2.573  -5.591  -4.446  0.00  0.00     0.061 A 
ATOM      7  H16 <0> d           4.164  -5.622  -7.264  0.00  0.00     0.165 HD
ENDROOT
BRANCH   1   8
ATOM      8  N1  <0> d           1.828  -3.675  -3.163  0.00  0.00    -0.390 N 
ATOM      9  H10 <0> d           1.454  -4.264  -2.489  0.00  0.00     0.159 HD
BRANCH   8  10
ATOM     10  C4  <0> d           1.724  -2.223  -3.006  0.00  0.00     0.120 C 
BRANCH  10  11
ATOM     11  C3  <0> d           0.986  -1.902  -1.705  0.00  0.00     0.034 C 
BRANCH  11  12
ATOM     12  C2  <0> d           0.877  -0.385  -1.541  0.00  0.00     0.141 C 
BRANCH  12  13
ATOM     13  S1  <0> d           0.002  -0.004   0.002  0.00  0.00     0.140 S 
ATOM     14  C1  <0> d          -0.022   1.810   0.012  0.00  0.00     0.161 C 
ATOM     15  O1  <0> d           0.798  -0.449   1.092  0.00  0.00    -0.228 OA
ATOM     16  O2  <0> d          -1.335  -0.471  -0.113  0.00  0.00    -0.228 OA
ENDBRANCH  12  13
ENDBRANCH  11  12
ENDBRANCH  10  11
ENDBRANCH   8  10
ENDBRANCH   1   8
BRANCH   5  17
ATOM     17  C10 <0> d           3.329  -7.545  -5.777  0.00  0.00     0.121 C 
ATOM     18  S2  <0> d           3.546  -8.576  -4.428  0.00  0.00    -0.059 SA
ATOM     19  N3  <0> d           3.265  -8.064  -7.019  0.00  0.00    -0.388 N 
ATOM     20  H14 <0> d           3.142  -7.480  -7.784  0.00  0.00     0.157 HD
ATOM     21  H15 <0> d           3.343  -9.023  -7.149  0.00  0.00     0.157 HD
ENDBRANCH   5  17
TORSDOF 6
