REMARK  6 active torsions:
REMARK  status: ('A' for Active; 'I' for Inactive)
REMARK    1  A    between atoms: C2_2  and  C3_3 
REMARK    2  A    between atoms: C4_6  and  N3_8 
REMARK       I    between atoms: N3_8  and  C5_9 
REMARK    3  A    between atoms: C5_9  and  C6_11 
REMARK    4  A    between atoms: C6_11  and  S2_12 
REMARK    5  A    between atoms: S2_12  and  C7_13 
REMARK    6  A    between atoms: C11_18  and  O2_22 
ROOT
ATOM      1  C7  <0> d           5.195  -3.425  -8.579  0.00  0.00     0.247 A 
ATOM      2  N4  <0> d           4.697  -2.378  -9.479  0.00  0.00    -0.359 N 
ATOM      3  C8  <0> d           3.700  -2.880 -10.150  0.00  0.00     0.057 A 
ATOM      4  C9  <0> d           2.818  -2.315 -11.182  0.00  0.00     0.034 A 
ATOM      5  C10 <0> d           1.844  -3.074 -11.719  0.00  0.00     0.039 A 
ATOM      6  C11 <0> d           1.630  -4.455 -11.307  0.00  0.00     0.070 A 
ATOM      7  C12 <0> d           2.401  -5.047 -10.362  0.00  0.00     0.068 A 
ATOM      8  C13 <0> d           3.482  -4.290  -9.729  0.00  0.00     0.059 A 
ATOM      9  N5  <0> d           4.357  -4.607  -8.811  0.00  0.00    -0.358 N 
ATOM     10  H16 <0> d           5.046  -1.477  -9.560  0.00  0.00     0.162 HD
ATOM     11  H17 <0> d           4.438  -5.465  -8.366  0.00  0.00     0.162 HD
ENDROOT
BRANCH   1  12
ATOM     12  S2  <0> d           5.044  -2.884  -6.854  0.00  0.00    -0.114 SA
BRANCH  12  13
ATOM     13  C6  <0> d           3.275  -2.533  -6.657  0.00  0.00     0.180 C 
BRANCH  13  14
ATOM     14  C5  <0> d           3.009  -2.068  -5.248  0.00  0.00     0.233 C 
ATOM     15  N3  <0> d           1.756  -1.748  -4.870  0.00  0.00    -0.304 N 
ATOM     16  H7  <0> d           1.025  -1.817  -5.504  0.00  0.00     0.171 HD
ATOM     17  O1  <0> d           3.923  -1.982  -4.455  0.00  0.00    -0.272 OA
BRANCH  15  18
ATOM     18  C4  <0> d           1.510  -1.319  -3.570  0.00  0.00     0.196 A 
ATOM     19  N2  <0> d           2.358  -1.161  -2.572  0.00  0.00    -0.123 NA
ATOM     20  N1  <0> d           1.983  -0.759  -1.434  0.00  0.00    -0.145 NA
ATOM     21  C3  <0> d           0.707  -0.490  -1.238  0.00  0.00     0.100 A 
ATOM     22  S1  <0> d           0.050  -0.872  -2.855  0.00  0.00    -0.033 SA
BRANCH  21  23
ATOM     23  C2  <0> d           0.002  -0.004   0.002  0.00  0.00     0.064 C 
ATOM     24  C1  <0> d          -0.019   1.526   0.010  0.00  0.00     0.012 C 
ENDBRANCH  21  23
ENDBRANCH  15  18
ENDBRANCH  13  14
ENDBRANCH  12  13
ENDBRANCH   1  12
BRANCH   6  25
ATOM     25  O2  <0> d           0.631  -5.168 -11.885  0.00  0.00    -0.356 OA
ATOM     26  C14 <0> d          -0.153  -4.500 -12.875  0.00  0.00     0.210 C 
ENDBRANCH   6  25
TORSDOF 6
