REMARK  6 active torsions:
REMARK  status: ('A' for Active; 'I' for Inactive)
REMARK    1  A    between atoms: O1_2  and  C2_3 
REMARK    2  A    between atoms: C5_6  and  C8_10 
REMARK    3  A    between atoms: C6_7  and  O2_9 
REMARK    4  A    between atoms: C15_19  and  C17_21 
REMARK    5  A    between atoms: C20_24  and  O4_28 
REMARK    6  A    between atoms: C21_25  and  O3_27 
ROOT
ATOM      1  C8  <0> d           1.524   0.036   6.107  0.00  0.00     0.049 C 
ATOM      2  N1  <0> d           0.982   0.527   7.113  0.00  0.00    -0.251 NA
ATOM      3  C9  <0> d           1.088   0.668   8.434  0.00  0.00     0.073 A 
ATOM      4  C10 <0> d           0.126   1.523   9.019  0.00  0.00     0.033 A 
ATOM      5  C11 <0> d           0.120   1.786  10.364  0.00  0.00     0.002 A 
ATOM      6  C12 <0> d           1.074   1.205  11.184  0.00  0.00     0.002 A 
ATOM      7  C13 <0> d           2.011   0.359  10.640  0.00  0.00     0.021 A 
ATOM      8  C14 <0> d           2.030   0.067   9.271  0.00  0.00     0.030 A 
ATOM      9  S1  <0> d           3.245  -1.067   8.725  0.00  0.00    -0.118 SA
ATOM     10  C15 <0> d           3.727  -0.605   7.066  0.00  0.00     0.091 C 
ATOM     11  C16 <0> d           2.674  -0.903   6.033  0.00  0.00     0.080 C 
ENDROOT
BRANCH   1  12
ATOM     12  C5  <0> d           0.945   0.433   4.817  0.00  0.00     0.022 A 
ATOM     13  C4  <0> d           1.402  -0.152   3.631  0.00  0.00     0.019 A 
ATOM     14  C3  <0> d           0.852   0.218   2.425  0.00  0.00     0.038 A 
ATOM     15  C2  <0> d          -0.150   1.183   2.379  0.00  0.00     0.070 A 
ATOM     16  C7  <0> d          -0.611   1.770   3.548  0.00  0.00     0.074 A 
ATOM     17  C6  <0> d          -0.071   1.402   4.768  0.00  0.00     0.080 A 
BRANCH  15  18
ATOM     18  O1  <0> d          -0.682   1.546   1.184  0.00  0.00    -0.356 OA
ATOM     19  C1  <0> d          -0.163   0.902   0.019  0.00  0.00     0.210 C 
ENDBRANCH  15  18
BRANCH  17  20
ATOM     20  O2  <0> d          -0.521   1.976   5.912  0.00  0.00    -0.360 OA
ATOM     21  H8  <0> d          -1.261   1.507   6.322  0.00  0.00     0.217 HD
ENDBRANCH  17  20
ENDBRANCH   1  12
BRANCH  10  22
ATOM     22  C17 <0> d           4.984  -1.353   6.704  0.00  0.00    -0.041 A 
ATOM     23  C22 <0> d           6.132  -0.655   6.377  0.00  0.00     0.047 A 
ATOM     24  C21 <0> d           7.290  -1.342   6.048  0.00  0.00     0.099 A 
ATOM     25  C20 <0> d           7.292  -2.733   6.038  0.00  0.00     0.101 A 
ATOM     26  C19 <0> d           6.136  -3.426   6.361  0.00  0.00     0.040 A 
ATOM     27  C18 <0> d           4.986  -2.736   6.693  0.00  0.00     0.011 A 
BRANCH  24  28
ATOM     28  O3  <0> d           8.422  -0.657   5.732  0.00  0.00    -0.358 OA
ATOM     29  H18 <0> d           8.507  -0.453   4.790  0.00  0.00     0.217 HD
ENDBRANCH  24  28
BRANCH  25  30
ATOM     30  O4  <0> d           8.424  -3.411   5.711  0.00  0.00    -0.353 OA
ATOM     31  C23 <0> d           8.352  -4.838   5.721  0.00  0.00     0.210 C 
ENDBRANCH  25  30
ENDBRANCH  10  22
TORSDOF 6
