REMARK  3 active torsions:
REMARK  status: ('A' for Active; 'I' for Inactive)
REMARK       I    between atoms: C2_2  and  N1_4 
REMARK       I    between atoms: N2_7  and  C7_10 
REMARK    1  A    between atoms: C7_10  and  C8_12 
REMARK    2  A    between atoms: C8_12  and  C9_13 
REMARK    3  A    between atoms: C9_13  and  C10_14 
ROOT
ATOM      1  C10 <0> d          -0.276   2.198  -5.342  0.00  0.00     0.108 A 
ATOM      2  N3  <0> d           0.776   1.672  -4.663  0.00  0.00    -0.311 N 
ATOM      3  H1  <0> d           1.595   1.465  -5.141  0.00  0.00     0.170 HD
ATOM      4  C11 <0> d           0.706   1.432  -3.339  0.00  0.00     0.260 A 
ATOM      5  O3  <0> d           1.658   0.960  -2.743  0.00  0.00    -0.267 OA
ATOM      6  C12 <0> d          -0.509   1.742  -2.646  0.00  0.00     0.075 A 
ATOM      7  C13 <0> d          -0.808   1.564  -1.217  0.00  0.00    -0.026 A 
ATOM      8  C14 <0> d          -2.032   1.934  -0.803  0.00  0.00    -0.008 A 
ATOM      9  S1  <0> d          -2.851   2.531  -2.264  0.00  0.00    -0.073 SA
ATOM     10  C15 <0> d          -1.538   2.280  -3.429  0.00  0.00     0.116 A 
ATOM     11  N4  <0> d          -1.395   2.490  -4.735  0.00  0.00    -0.227 NA
ATOM     12  C16 <0> d          -2.224   1.711   0.673  0.00  0.00     0.047 C 
ATOM     13  C17 <0> d          -0.790   1.546   1.230  0.00  0.00     0.010 C 
ATOM     14  C18 <0> d          -0.032   1.031  -0.009  0.00  0.00     0.041 C 
ENDROOT
BRANCH   1  15
ATOM     15  C9  <0> d          -0.150   2.448  -6.822  0.00  0.00     0.088 C 
BRANCH  15  16
ATOM     16  C8  <0> d          -1.458   3.038  -7.353  0.00  0.00     0.110 C 
BRANCH  16  17
ATOM     17  C7  <0> d          -1.332   3.288  -8.834  0.00  0.00     0.220 C 
ATOM     18  N2  <0> d          -2.368   3.809  -9.520  0.00  0.00    -0.349 N 
ATOM     19  C4  <0> d          -2.260   4.059 -10.964  0.00  0.00     0.145 C 
ATOM     20  C5  <0> d          -3.630   4.132  -8.838  0.00  0.00     0.145 C 
ATOM     21  C3  <0> d          -2.594   5.531 -11.234  0.00  0.00     0.145 C 
ATOM     22  N1  <0> d          -3.853   5.859 -10.551  0.00  0.00    -0.349 N 
ATOM     23  C2  <0> d          -4.890   6.380 -11.237  0.00  0.00     0.215 C 
ATOM     24  C6  <0> d          -3.962   5.610  -9.107  0.00  0.00     0.145 C 
ATOM     25  C1  <0> d          -6.212   6.604 -10.550  0.00  0.00     0.117 C 
ATOM     26  O1  <0> d          -4.759   6.668 -12.408  0.00  0.00    -0.274 OA
ATOM     27  O2  <0> d          -0.297   3.021  -9.408  0.00  0.00    -0.273 OA
ENDBRANCH  16  17
ENDBRANCH  15  16
ENDBRANCH   1  15
TORSDOF 3
