REMARK  2 active torsions:
REMARK  status: ('A' for Active; 'I' for Inactive)
REMARK    1  A    between atoms: N1_8  and  N2_9 
REMARK    2  A    between atoms: C8_10  and  C9_11 
ROOT
ATOM      1  C1  <0> d          -0.013   1.076   0.008  0.00  0.00     0.001 A 
ATOM      2  C2  <0> d           1.178   1.784   0.000  0.00  0.00     0.002 A 
ATOM      3  C3  <0> d           1.176   3.164   0.008  0.00  0.00     0.030 A 
ATOM      4  C4  <0> d          -0.027   3.861   0.023  0.00  0.00     0.048 A 
ATOM      5  C5  <0> d          -1.230   3.141   0.031  0.00  0.00     0.027 A 
ATOM      6  C6  <0> d          -1.218   1.749   0.017  0.00  0.00     0.016 A 
ATOM      7  C7  <0> d          -2.317   4.143   0.046  0.00  0.00     0.159 A 
ATOM      8  N1  <0> d          -3.616   3.918   0.058  0.00  0.00    -0.144 NA
ATOM      9  C15 <0> d          -1.631   5.451   0.047  0.00  0.00     0.277 A 
ATOM     10  O1  <0> d          -2.169   6.542   0.059  0.00  0.00    -0.266 OA
ATOM     11  N3  <0> d          -0.306   5.223   0.033  0.00  0.00    -0.321 N 
ATOM     12  H10 <0> d           0.369   5.919   0.030  0.00  0.00     0.169 HD
ENDROOT
BRANCH   8  13
ATOM     13  N2  <0> d          -4.442   4.909   0.072  0.00  0.00    -0.161 NA
ATOM     14  C8  <0> d          -5.739   4.684   0.084  0.00  0.00     0.152 C 
BRANCH  14  15
ATOM     15  C9  <0> d          -6.677   5.810   0.099  0.00  0.00    -0.017 A 
ATOM     16  C14 <0> d          -8.059   5.574   0.112  0.00  0.00     0.016 A 
ATOM     17  C13 <0> d          -8.935   6.637   0.126  0.00  0.00     0.043 A 
ATOM     18  C12 <0> d          -8.452   7.938   0.129  0.00  0.00     0.116 A 
ATOM     19  C11 <0> d          -7.085   8.179   0.116  0.00  0.00     0.043 A 
ATOM     20  F1  <0> d          -9.317   8.976   0.143  0.00  0.00    -0.206 F 
ATOM     21  C10 <0> d          -6.197   7.127   0.107  0.00  0.00     0.016 A 
ENDBRANCH  14  15
ENDBRANCH   8  13
TORSDOF 2
