REMARK  7 active torsions:
REMARK  status: ('A' for Active; 'I' for Inactive)
REMARK    1  A    between atoms: C5_5  and  S1_8 
REMARK    2  A    between atoms: S1_8  and  C8_9 
REMARK    3  A    between atoms: C8_9  and  C9_10 
REMARK    4  A    between atoms: C9_10  and  O2_12 
REMARK    5  A    between atoms: O2_12  and  N1_13 
REMARK    6  A    between atoms: C10_14  and  C11_15 
REMARK    7  A    between atoms: C10_14  and  N3_21 
ROOT
ATOM      1  O2  <0> d           0.110  -7.045   3.087  0.00  0.00    -0.172 OA
ENDROOT
BRANCH   1   2
ATOM      2  C9  <0> d           0.097  -6.482   1.870  0.00  0.00     0.293 C 
ATOM      3  O1  <0> d           0.101  -7.180   0.879  0.00  0.00    -0.262 OA
BRANCH   2   4
ATOM      4  C8  <0> d           0.077  -4.981   1.735  0.00  0.00     0.192 C 
BRANCH   4   5
ATOM      5  S1  <0> d           0.062  -4.533  -0.023  0.00  0.00    -0.120 SA
BRANCH   5   6
ATOM      6  C5  <0> d           0.039  -2.771  -0.013  0.00  0.00     0.001 A 
ATOM      7  C4  <0> d           0.024  -2.068  -1.212  0.00  0.00     0.019 A 
ATOM      8  C3  <0> d           0.006  -0.687  -1.200  0.00  0.00     0.008 A 
ATOM      9  C2  <0> d           0.002  -0.004   0.002  0.00  0.00    -0.062 A 
ATOM     10  C1  <0> d          -0.018   1.503   0.010  0.00  0.00     0.048 C 
ATOM     11  C7  <0> d           0.023  -0.700   1.197  0.00  0.00     0.008 A 
ATOM     12  C6  <0> d           0.036  -2.081   1.193  0.00  0.00     0.019 A 
ENDBRANCH   5   6
ENDBRANCH   4   5
ENDBRANCH   2   4
ENDBRANCH   1   2
BRANCH   1  13
ATOM     13  N1  <0> d           0.128  -8.461   3.067  0.00  0.00    -0.106 NA
ATOM     14  C10 <0> d           0.143  -9.128   4.183  0.00  0.00     0.159 C 
BRANCH  14  15
ATOM     15  C11 <0> d           0.162 -10.609   4.162  0.00  0.00     0.014 A 
ATOM     16  C15 <0> d           0.177 -11.345   5.351  0.00  0.00     0.032 A 
ATOM     17  C14 <0> d           0.189 -12.724   5.284  0.00  0.00     0.088 A 
ATOM     18  N2  <0> d           0.197 -13.346   4.121  0.00  0.00    -0.375 N 
ATOM     19  C13 <0> d           0.188 -12.690   2.977  0.00  0.00     0.088 A 
ATOM     20  H16 <0> d           0.209 -14.316   4.107  0.00  0.00     0.164 HD
ATOM     21  C12 <0> d           0.171 -11.310   2.951  0.00  0.00     0.032 A 
ENDBRANCH  14  15
BRANCH  14  22
ATOM     22  N3  <0> d           0.140  -8.454   5.391  0.00  0.00    -0.382 N 
ATOM     23  H14 <0> d           0.128  -7.484   5.405  0.00  0.00     0.157 HD
ATOM     24  H15 <0> d           0.151  -8.951   6.224  0.00  0.00     0.157 HD
ENDBRANCH  14  22
ENDBRANCH   1  13
TORSDOF 7
