REMARK  5 active torsions:
REMARK  status: ('A' for Active; 'I' for Inactive)
REMARK    1  A    between atoms: C2_2  and  N1_3 
REMARK    2  A    between atoms: C6_7  and  C11_16 
REMARK       I    between atoms: C11_16  and  N3_18 
REMARK    3  A    between atoms: N3_18  and  C12_19 
REMARK    4  A    between atoms: C14_22  and  C15_24 
REMARK    5  A    between atoms: C15_24  and  C16_25 
ROOT
ATOM      1  C11 <0> d          -4.971   4.164   0.074  0.00  0.00     0.257 C 
ATOM      2  O3  <0> d          -5.007   5.379   0.082  0.00  0.00    -0.267 OA
ATOM      3  N3  <0> d          -6.118   3.456   0.082  0.00  0.00    -0.301 N 
ATOM      4  H10 <0> d          -6.086   2.357   0.075  0.00  0.00     0.171 HD
ENDROOT
BRANCH   1   5
ATOM      5  C6  <0> d          -3.672   3.463   0.057  0.00  0.00     0.034 A 
ATOM      6  C5  <0> d          -3.630   2.065   0.049  0.00  0.00     0.019 A 
ATOM      7  C4  <0> d          -2.421   1.411   0.034  0.00  0.00     0.033 A 
ATOM      8  C3  <0> d          -1.231   2.137   0.019  0.00  0.00     0.064 A 
ATOM      9  N1  <0> d          -0.018   1.461   0.010  0.00  0.00    -0.308 N 
ATOM     10  C8  <0> d          -1.265   3.534   0.034  0.00  0.00     0.063 A 
ATOM     11  C10 <0> d           1.142   2.149   0.003  0.00  0.00     0.316 A 
ATOM     12  C9  <0> d           1.107   3.640   0.011  0.00  0.00     0.314 A 
ATOM     13  O2  <0> d           2.204   1.560  -0.010  0.00  0.00    -0.262 OA
ATOM     14  N2  <0> d          -0.084   4.272   0.026  0.00  0.00    -0.317 N 
ATOM     15  O1  <0> d           2.141   4.278   0.004  0.00  0.00    -0.262 OA
ATOM     16  H1  <0> d          -0.122   5.372   0.032  0.00  0.00     0.169 HD
ATOM     17  C7  <0> d          -2.485   4.195   0.049  0.00  0.00     0.049 A 
BRANCH   9  18
ATOM     18  C2  <0> d           0.002  -0.004   0.002  0.00  0.00     0.128 C 
ATOM     19  C1  <0> d           0.023  -0.522   1.442  0.00  0.00     0.027 C 
ENDBRANCH   9  18
ENDBRANCH   1   5
BRANCH   3  20
ATOM     20  C12 <0> d          -7.341   4.115   0.098  0.00  0.00     0.173 A 
ATOM     21  S1  <0> d          -8.942   3.443   0.110  0.00  0.00    -0.055 SA
ATOM     22  C14 <0> d          -9.842   4.987   0.129  0.00  0.00     0.008 A 
ATOM     23  C13 <0> d          -8.818   5.875   0.124  0.00  0.00     0.134 A 
ATOM     24  N4  <0> d          -7.583   5.411   0.114  0.00  0.00    -0.235 NA
BRANCH  22  25
ATOM     25  C15 <0> d         -11.328   5.234   0.146  0.00  0.00     0.086 C 
BRANCH  25  26
ATOM     26  C16 <0> d         -11.838   5.326  -1.269  0.00  0.00    -0.053 A 
ATOM     27  C21 <0> d         -12.268   4.187  -1.923  0.00  0.00     0.009 A 
ATOM     28  C20 <0> d         -12.737   4.270  -3.221  0.00  0.00     0.019 A 
ATOM     29  C19 <0> d         -12.775   5.494  -3.865  0.00  0.00     0.011 A 
ATOM     30  C18 <0> d         -12.345   6.634  -3.209  0.00  0.00     0.019 A 
ATOM     31 Br1  <0> d         -13.415   5.609  -5.640  0.00  0.00    -0.051 Br
ATOM     32  C17 <0> d         -11.882   6.550  -1.910  0.00  0.00     0.009 A 
ENDBRANCH  25  26
ENDBRANCH  22  25
ENDBRANCH   3  20
TORSDOF 5
