REMARK  3 active torsions:
REMARK  status: ('A' for Active; 'I' for Inactive)
REMARK    1  A    between atoms: O1_2  and  C2_3 
REMARK    2  A    between atoms: C7_8  and  N1_9 
REMARK    3  A    between atoms: C9_12  and  C12_19 
ROOT
ATOM      1  N1  <0> d           1.687  -3.801  -1.247  0.00  0.00    -0.227 N 
ATOM      2  C8  <0> d           2.292  -4.188  -0.107  0.00  0.00     0.269 A 
ATOM      3  O2  <0> d           3.357  -4.780  -0.148  0.00  0.00    -0.267 OA
ATOM      4  C9  <0> d           1.688  -3.903   1.130  0.00  0.00     0.100 A 
ATOM      5  C10 <0> d           0.497  -3.239   1.148  0.00  0.00     0.197 A 
ATOM      6  N2  <0> d          -0.084  -2.863  -0.036  0.00  0.00    -0.285 N 
ATOM      7  H1  <0> d          -0.931  -2.390  -0.028  0.00  0.00     0.172 HD
ATOM      8  C11 <0> d           0.515  -3.142  -1.208  0.00  0.00     0.336 A 
ATOM      9  O3  <0> d          -0.013  -2.796  -2.248  0.00  0.00    -0.246 OA
ATOM     10  O4  <0> d          -0.104  -2.953   2.322  0.00  0.00    -0.171 OA
ENDROOT
BRANCH   4  11
ATOM     11  C12 <0> d           2.346  -4.327   2.418  0.00  0.00     0.289 C 
ATOM     12  N4  <0> d           2.693  -3.137   3.212  0.00  0.00     0.095 N 
ATOM     13  C22 <0> d           1.559  -2.232   3.423  0.00  0.00     0.275 C 
ATOM     14  H19 <0> d           3.115  -3.399   4.090  0.00  0.00     0.316 HD
ATOM     15  C21 <0> d           0.482  -2.923   4.280  0.00  0.00     0.067 C 
ATOM     16  C14 <0> d           0.231  -4.266   3.640  0.00  0.00    -0.041 A 
ATOM     17  C13 <0> d           1.377  -5.185   3.234  0.00  0.00     0.150 A 
ATOM     18  C15 <0> d          -0.885  -4.857   3.235  0.00  0.00    -0.005 A 
ATOM     19  N3  <0> d           0.781  -6.264   2.447  0.00  0.00    -0.378 N 
ATOM     20  C20 <0> d          -0.527  -6.091   2.472  0.00  0.00     0.039 A 
ATOM     21  H20 <0> d           1.266  -6.968   1.991  0.00  0.00     0.160 HD
ATOM     22  C19 <0> d          -1.566  -6.891   1.915  0.00  0.00     0.030 A 
ATOM     23  C18 <0> d          -2.845  -6.487   2.121  0.00  0.00     0.002 A 
ATOM     24  C17 <0> d          -3.206  -5.344   2.841  0.00  0.00     0.001 A 
ATOM     25  C16 <0> d          -2.302  -4.503   3.412  0.00  0.00     0.014 A 
ENDBRANCH   4  11
BRANCH   1  26
ATOM     26  C7  <0> d           2.287  -4.083  -2.484  0.00  0.00     0.080 A 
ATOM     27  C2  <0> d           1.993  -5.272  -3.147  0.00  0.00     0.095 A 
ATOM     28  C3  <0> d           2.584  -5.543  -4.371  0.00  0.00     0.039 A 
ATOM     29  C4  <0> d           3.466  -4.637  -4.928  0.00  0.00     0.003 A 
ATOM     30  C5  <0> d           3.763  -3.459  -4.268  0.00  0.00     0.002 A 
ATOM     31  C6  <0> d           3.178  -3.181  -3.046  0.00  0.00     0.033 A 
BRANCH  27  32
ATOM     32  O1  <0> d           1.125  -6.163  -2.598  0.00  0.00    -0.354 OA
ATOM     33  C1  <0> d           0.872  -7.361  -3.334  0.00  0.00     0.210 C 
ENDBRANCH  27  32
ENDBRANCH   1  26
TORSDOF 3
