REMARK  5 active torsions:
REMARK  status: ('A' for Active; 'I' for Inactive)
REMARK    1  A    between atoms: N1_2  and  C2_3 
REMARK    2  A    between atoms: N1_2  and  C7_10 
REMARK    3  A    between atoms: C2_3  and  C3_4 
REMARK    4  A    between atoms: C10_13  and  C13_17 
REMARK    5  A    between atoms: C13_17  and  N2_18 
ROOT
ATOM      1  C7  <0> d          -0.011  -0.681  -1.213  0.00  0.00     0.031 A 
ATOM      2  C8  <0> d           0.139  -2.066  -1.219  0.00  0.00     0.030 A 
ATOM      3  C9  <0> d           0.141  -2.755  -2.410  0.00  0.00     0.019 A 
ATOM      4  C10 <0> d          -0.008  -2.064  -3.616  0.00  0.00     0.029 A 
ATOM      5  C11 <0> d          -0.159  -0.674  -3.607  0.00  0.00     0.050 A 
ATOM      6  C12 <0> d          -0.166   0.009  -2.410  0.00  0.00     0.054 A 
ATOM      7 Cl1  <0> d          -0.344   0.190  -5.102  0.00  0.00    -0.083 Cl
ENDROOT
BRANCH   1   8
ATOM      8  N1  <0> d          -0.013   0.011  -0.007  0.00  0.00    -0.380 N 
ATOM      9  C1  <0> d          -0.177   1.467   0.002  0.00  0.00     0.150 C 
BRANCH   8  10
ATOM     10  C2  <0> d           0.149  -0.715   1.255  0.00  0.00     0.168 C 
BRANCH  10  11
ATOM     11  C3  <0> d          -1.204  -1.123   1.778  0.00  0.00     0.002 A 
ATOM     12  S1  <0> d          -2.304  -0.233   2.867  0.00  0.00    -0.103 SA
ATOM     13  C6  <0> d          -3.621  -1.437   2.933  0.00  0.00     0.069 A 
ATOM     14  C5  <0> d          -3.138  -2.425   2.139  0.00  0.00     0.018 A 
ATOM     15  C4  <0> d          -1.899  -2.264   1.547  0.00  0.00     0.035 A 
ATOM     16 Br1  <0> d          -4.145  -3.998   1.847  0.00  0.00    -0.051 Br
ENDBRANCH  10  11
ENDBRANCH   8  10
ENDBRANCH   1   8
BRANCH   4  17
ATOM     17  C13 <0> d          -0.005  -2.800  -4.895  0.00  0.00     0.104 C 
ATOM     18  N3  <0> d          -0.877  -3.788  -5.098  0.00  0.00    -0.385 N 
ATOM     19  H12 <0> d          -1.514  -4.022  -4.405  0.00  0.00     0.157 HD
ATOM     20  H13 <0> d          -0.875  -4.271  -5.939  0.00  0.00     0.157 HD
BRANCH  17  21
ATOM     21  N2  <0> d           0.870  -2.477  -5.848  0.00  0.00    -0.385 N 
ATOM     22  H11 <0> d           0.823  -2.908  -6.716  0.00  0.00     0.157 HD
ATOM     23  H14 <0> d           1.554  -1.812  -5.673  0.00  0.00     0.157 HD
ENDBRANCH  17  21
ENDBRANCH   4  17
TORSDOF 5
