REMARK  3 active torsions:
REMARK  status: ('A' for Active; 'I' for Inactive)
REMARK    1  A    between atoms: C2_2  and  S1_4 
REMARK    2  A    between atoms: S1_4  and  C4_7 
REMARK    3  A    between atoms: P1_20  and  O5_23 
ROOT
ATOM      1  C4  <0> d          -0.102  -0.072   2.666  0.00  0.00     0.082 A 
ATOM      2  C5  <0> d          -0.669  -0.918   3.598  0.00  0.00     0.034 A 
ATOM      3  C6  <0> d          -1.485  -0.414   4.601  0.00  0.00    -0.029 A 
ATOM      4  C7  <0> d          -1.728   0.942   4.664  0.00  0.00    -0.047 A 
ATOM      5  C8  <0> d          -1.159   1.792   3.730  0.00  0.00     0.033 A 
ATOM      6  C9  <0> d          -0.343   1.288   2.734  0.00  0.00     0.056 A 
ATOM      7 Cl1  <0> d           0.372   2.359   1.569  0.00  0.00    -0.083 Cl
ATOM      8  C10 <0> d          -2.610   1.533   5.734  0.00  0.00     0.055 C 
ATOM      9  C11 <0> d          -2.748   0.544   6.891  0.00  0.00     0.119 C 
ATOM     10  N1  <0> d          -3.162  -0.760   6.353  0.00  0.00    -0.215 NA
ATOM     11  C12 <0> d          -2.077  -1.381   5.592  0.00  0.00     0.137 C 
ATOM     12  C13 <0> d          -2.571  -2.623   4.845  0.00  0.00     0.206 C 
ATOM     13  O3  <0> d          -3.027  -3.591   5.809  0.00  0.00    -0.295 OA
ATOM     14  P1  <0> d          -4.067  -3.101   6.960  0.00  0.00     0.444 P 
ATOM     15  O4  <0> d          -3.994  -4.001   8.133  0.00  0.00    -0.233 OA
ATOM     16  N2  <0> d          -3.581  -1.577   7.379  0.00  0.00    -0.255 N 
ATOM     17  H17 <0> d          -3.590  -1.274   8.301  0.00  0.00     0.186 HD
ENDROOT
BRANCH   1  18
ATOM     18  S1  <0> d           0.932  -0.723   1.397  0.00  0.00     0.180 S 
ATOM     19  O1  <0> d           0.420  -0.169   0.193  0.00  0.00    -0.222 OA
ATOM     20  O2  <0> d           0.925  -2.128   1.609  0.00  0.00    -0.222 OA
BRANCH  18  21
ATOM     21  C2  <0> d           2.579  -0.047   1.746  0.00  0.00     0.105 C 
ATOM     22  C1  <0> d           3.035  -0.504   3.133  0.00  0.00     0.026 C 
ATOM     23  C3  <0> d           3.569  -0.549   0.693  0.00  0.00     0.026 C 
ENDBRANCH  18  21
ENDBRANCH   1  18
BRANCH  14  24
ATOM     24  O5  <0> d          -5.567  -3.069   6.378  0.00  0.00    -0.302 OA
ATOM     25  C14 <0> d          -6.719  -2.881   7.202  0.00  0.00     0.214 C 
ENDBRANCH  14  24
TORSDOF 3
