REMARK  5 active torsions:
REMARK  status: ('A' for Active; 'I' for Inactive)
REMARK    1  A    between atoms: C4_4  and  C18_22 
REMARK    2  A    between atoms: C7_7  and  N1_8 
REMARK       I    between atoms: N1_8  and  C8_9 
REMARK       I    between atoms: C8_9  and  N2_11 
REMARK    3  A    between atoms: N2_11  and  C9_12 
REMARK    4  A    between atoms: C9_12  and  C11_14 
REMARK    5  A    between atoms: C11_14  and  N3_15 
REMARK       I    between atoms: C18_22  and  N4_24 
ROOT
ATOM      1  N1  <0> d           0.191  -0.169   2.458  0.00  0.00    -0.308 N 
ATOM      2  C8  <0> d           0.006  -0.820   3.623  0.00  0.00     0.321 C 
ATOM      3  O1  <0> d          -0.072  -2.033   3.636  0.00  0.00    -0.247 OA
ATOM      4  N2  <0> d          -0.091  -0.126   4.774  0.00  0.00    -0.337 N 
ATOM      5  H9  <0> d           0.327   0.792   2.455  0.00  0.00     0.170 HD
ATOM      6  H10 <0> d          -0.028   0.842   4.764  0.00  0.00     0.164 HD
ENDROOT
BRANCH   1   7
ATOM      7  C7  <0> d           0.187  -0.876   1.256  0.00  0.00     0.042 A 
ATOM      8  C2  <0> d          -0.327  -0.286   0.105  0.00  0.00    -0.034 A 
ATOM      9  C1  <0> d          -0.880   1.115   0.160  0.00  0.00     0.050 C 
ATOM     10  C3  <0> d          -0.328  -0.980  -1.084  0.00  0.00     0.026 A 
ATOM     11  C4  <0> d           0.184  -2.279  -1.134  0.00  0.00     0.032 A 
ATOM     12  C5  <0> d           0.696  -2.870   0.025  0.00  0.00     0.019 A 
ATOM     13  C6  <0> d           0.693  -2.171   1.211  0.00  0.00     0.031 A 
BRANCH  11  14
ATOM     14  C18 <0> d           0.185  -3.025  -2.407  0.00  0.00     0.251 C 
ATOM     15  O2  <0> d          -0.260  -2.510  -3.414  0.00  0.00    -0.268 OA
ATOM     16  N4  <0> d           0.680  -4.278  -2.453  0.00  0.00    -0.361 N 
ATOM     17  C19 <0> d           0.681  -5.019  -3.717  0.00  0.00     0.149 C 
ATOM     18  H27 <0> d           1.035  -4.689  -1.650  0.00  0.00     0.162 HD
ENDBRANCH  11  14
ENDBRANCH   1   7
BRANCH   4  19
ATOM     19  C9  <0> d          -0.291  -0.834   6.041  0.00  0.00     0.107 C 
ATOM     20  C10 <0> d           1.067  -1.195   6.645  0.00  0.00     0.034 C 
BRANCH  19  21
ATOM     21  C11 <0> d          -1.058   0.066   7.013  0.00  0.00     0.259 C 
BRANCH  21  22
ATOM     22  N3  <0> d          -2.317   0.497   6.391  0.00  0.00    -0.069 N 
ATOM     23  C16 <0> d          -3.190  -0.668   6.199  0.00  0.00     0.239 C 
ATOM     24  C15 <0> d          -4.469  -0.238   5.479  0.00  0.00     0.007 C 
ATOM     25  C14 <0> d          -5.196   0.813   6.324  0.00  0.00     0.007 C 
ATOM     26  C17 <0> d          -5.378  -1.453   5.281  0.00  0.00     0.011 C 
ATOM     27  C13 <0> d          -4.251   1.990   6.580  0.00  0.00     0.028 C 
ATOM     28  C12 <0> d          -2.979   1.478   7.260  0.00  0.00     0.235 C 
ATOM     29  H31 <0> d          -2.122   0.921   5.497  0.00  0.00     0.280 HD
ENDBRANCH  21  22
ENDBRANCH  19  21
ENDBRANCH   4  19
TORSDOF 5
