REMARK  7 active torsions:
REMARK  status: ('A' for Active; 'I' for Inactive)
REMARK    1  A    between atoms: C2_2  and  O1_3 
REMARK    2  A    between atoms: O1_3  and  C3_4 
REMARK    3  A    between atoms: C6_7  and  C11_13 
REMARK    4  A    between atoms: C8_9  and  O2_10 
REMARK    5  A    between atoms: O2_10  and  C9_11 
REMARK    6  A    between atoms: C11_13  and  C12_14 
REMARK    7  A    between atoms: C11_13  and  N1_21 
ROOT
ATOM      1  C3  <0> d          -1.014   5.789  -0.846  0.00  0.00     0.102 A 
ATOM      2  C4  <0> d           0.168   5.132  -0.542  0.00  0.00     0.040 A 
ATOM      3  C5  <0> d           0.233   3.754  -0.626  0.00  0.00     0.012 A 
ATOM      4  C6  <0> d          -0.875   3.029  -1.024  0.00  0.00    -0.021 A 
ATOM      5  C7  <0> d          -2.056   3.678  -1.329  0.00  0.00     0.049 A 
ATOM      6  C8  <0> d          -2.131   5.059  -1.241  0.00  0.00     0.102 A 
ENDROOT
BRANCH   4   7
ATOM      7  C11 <0> d          -0.795   1.527  -1.120  0.00  0.00     0.250 C 
BRANCH   7   8
ATOM      8  C12 <0> d          -0.130   1.141  -2.416  0.00  0.00    -0.007 A 
ATOM      9  C17 <0> d          -0.856   1.143  -3.593  0.00  0.00     0.015 A 
ATOM     10  C16 <0> d          -0.245   0.789  -4.782  0.00  0.00     0.019 A 
ATOM     11  I1  <0> d          -2.880   1.682  -3.575  0.00  0.00    -0.044 I 
ATOM     12  C15 <0> d           1.090   0.433  -4.794  0.00  0.00     0.001 A 
ATOM     13  C14 <0> d           1.815   0.430  -3.616  0.00  0.00     0.001 A 
ATOM     14  C13 <0> d           1.207   0.789  -2.429  0.00  0.00     0.011 A 
ENDBRANCH   7   8
BRANCH   7  15
ATOM     15  N1  <0> d          -0.012   1.005   0.008  0.00  0.00    -0.067 N 
ATOM     16  H19 <0> d           0.046  -0.091  -0.062  0.00  0.00     0.275 HD
ATOM     17  H20 <0> d          -0.497   1.287   0.954  0.00  0.00     0.275 HD
ATOM     18  H21 <0> d           1.003   1.428  -0.024  0.00  0.00     0.275 HD
ENDBRANCH   7  15
ENDBRANCH   4   7
BRANCH   6  19
ATOM     19  O2  <0> d          -3.292   5.699  -1.541  0.00  0.00    -0.349 OA
BRANCH  19  20
ATOM     20  C9  <0> d          -4.397   4.886  -1.939  0.00  0.00     0.171 C 
ATOM     21  C10 <0> d          -5.606   5.776  -2.233  0.00  0.00     0.034 C 
ENDBRANCH  19  20
ENDBRANCH   6  19
BRANCH   1  22
ATOM     22  O1  <0> d          -1.082   7.144  -0.758  0.00  0.00    -0.349 OA
BRANCH  22  23
ATOM     23  C2  <0> d           0.103   7.828  -0.346  0.00  0.00     0.171 C 
ATOM     24  C1  <0> d          -0.165   9.334  -0.306  0.00  0.00     0.034 C 
ENDBRANCH  22  23
ENDBRANCH   1  22
TORSDOF 7
