REMARK  2 active torsions:
REMARK  status: ('A' for Active; 'I' for Inactive)
REMARK    1  A    between atoms: C9_10  and  O2_18 
REMARK    2  A    between atoms: C10_11  and  N1_12 
ROOT
ATOM      1  C1  <0> d           1.445   1.621   1.207  0.00  0.00     0.048 C 
ATOM      2  C2  <0> d           1.216   0.169   0.874  0.00  0.00    -0.059 A 
ATOM      3  C3  <0> d           1.029  -0.218  -0.441  0.00  0.00     0.014 A 
ATOM      4  C4  <0> d           0.818  -1.548  -0.745  0.00  0.00    -0.050 A 
ATOM      5  C5  <0> d           0.794  -2.500   0.261  0.00  0.00     0.015 A 
ATOM      6  C6  <0> d           0.984  -2.116   1.577  0.00  0.00     0.078 A 
ATOM      7  C7  <0> d           1.200  -0.775   1.879  0.00  0.00     0.044 A 
ATOM      8  O1  <0> d           0.980  -3.018   2.593  0.00  0.00    -0.348 OA
ATOM      9  C8  <0> d           0.409  -4.303   2.344  0.00  0.00     0.209 C 
ATOM     10  C9  <0> d           1.002  -4.850   1.039  0.00  0.00     0.178 C 
ATOM     11  C10 <0> d           0.555  -3.942  -0.110  0.00  0.00     0.255 C 
ATOM     12  C16 <0> d           0.612  -1.966  -2.178  0.00  0.00     0.049 C 
ENDROOT
BRANCH  11  13
ATOM     13  N1  <0> d           1.323  -4.269  -1.319  0.00  0.00    -0.060 N 
ATOM     14  C15 <0> d           2.691  -3.753  -1.182  0.00  0.00     0.236 C 
ATOM     15  C14 <0> d           3.472  -4.020  -2.471  0.00  0.00     0.028 C 
ATOM     16  C13 <0> d           3.517  -5.529  -2.731  0.00  0.00     0.003 C 
ATOM     17  C12 <0> d           2.085  -6.068  -2.797  0.00  0.00     0.028 C 
ATOM     18  C11 <0> d           1.356  -5.726  -1.497  0.00  0.00     0.236 C 
ATOM     19  H24 <0> d           0.883  -3.844  -2.121  0.00  0.00     0.280 HD
ENDBRANCH  11  13
BRANCH  10  20
ATOM     20  O2  <0> d           2.428  -4.856   1.123  0.00  0.00    -0.391 OA
ATOM     21  H20 <0> d           2.777  -5.400   1.842  0.00  0.00     0.210 HD
ENDBRANCH  10  20
TORSDOF 2
