REMARK  7 active torsions:
REMARK  status: ('A' for Active; 'I' for Inactive)
REMARK    1  A    between atoms: C2_2  and  C3_3 
REMARK    2  A    between atoms: N1_6  and  N3_10 
REMARK       I    between atoms: N3_10  and  C6_11 
REMARK    3  A    between atoms: C6_11  and  C7_13 
REMARK    4  A    between atoms: C7_13  and  S1_14 
REMARK    5  A    between atoms: S1_14  and  C8_15 
REMARK    6  A    between atoms: C9_18  and  C13_23 
REMARK    7  A    between atoms: N6_19  and  C10_20 
ROOT
ATOM      1  C8  <0> d           5.763  -7.036  -1.761  0.00  0.00     0.268 A 
ATOM      2  N4  <0> d           6.843  -7.192  -0.773  0.00  0.00    -0.279 N 
ATOM      3  N5  <0> d           6.354  -8.051   0.218  0.00  0.00    -0.158 NA
ATOM      4  C9  <0> d           5.131  -8.429  -0.043  0.00  0.00     0.157 A 
ATOM      5  N6  <0> d           4.666  -7.866  -1.237  0.00  0.00    -0.328 N 
ATOM      6  H11 <0> d           7.721  -6.782  -0.804  0.00  0.00     0.185 HD
ENDROOT
BRANCH   1   7
ATOM      7  S1  <0> d           5.249  -5.300  -1.870  0.00  0.00    -0.112 SA
BRANCH   7   8
ATOM      8  C7  <0> d           4.779  -4.874  -0.170  0.00  0.00     0.182 C 
BRANCH   8   9
ATOM      9  C6  <0> d           4.325  -3.438  -0.119  0.00  0.00     0.246 C 
ATOM     10  N3  <0> d           3.925  -2.899   1.050  0.00  0.00    -0.256 N 
ATOM     11  H8  <0> d           3.930  -3.435   1.858  0.00  0.00     0.191 HD
ATOM     12  O3  <0> d           4.320  -2.767  -1.130  0.00  0.00    -0.271 OA
BRANCH  10  13
ATOM     13  N1  <0> d           3.504  -1.563   1.097  0.00  0.00    -0.167 N 
ATOM     14  C4  <0> d           2.217  -1.179   1.204  0.00  0.00     0.275 A 
ATOM     15  C3  <0> d           2.242   0.337   1.219  0.00  0.00     0.114 A 
ATOM     16  O1  <0> d           1.242  -1.896   1.274  0.00  0.00    -0.268 OA
ATOM     17  N2  <0> d           3.674   0.660   1.108  0.00  0.00    -0.323 N 
ATOM     18  C21 <0> d           1.668   0.875   2.531  0.00  0.00     0.049 C 
ATOM     19  C5  <0> d           4.330  -0.512   1.043  0.00  0.00     0.345 A 
ATOM     20  H7  <0> d           4.068   1.547   1.086  0.00  0.00     0.165 HD
ATOM     21  O2  <0> d           5.538  -0.606   0.945  0.00  0.00    -0.245 OA
BRANCH  15  22
ATOM     22  C2  <0> d           1.468   0.899   0.024  0.00  0.00     0.036 C 
ATOM     23  C1  <0> d           1.702   2.408  -0.070  0.00  0.00     0.008 C 
ENDBRANCH  15  22
ENDBRANCH  10  13
ENDBRANCH   8   9
ENDBRANCH   7   8
ENDBRANCH   1   7
BRANCH   5  24
ATOM     24  C10 <0> d           3.348  -8.062  -1.847  0.00  0.00     0.089 A 
ATOM     25  C12 <0> d           2.432  -6.842  -1.958  0.00  0.00     0.027 A 
ATOM     26  C11 <0> d           3.097  -7.415  -3.210  0.00  0.00     0.027 A 
ENDBRANCH   5  24
BRANCH   4  27
ATOM     27  C13 <0> d           4.379  -9.291   0.771  0.00  0.00     0.019 A 
ATOM     28  C20 <0> d           3.002  -9.850   0.484  0.00  0.00     0.163 A 
ATOM     29  N7  <0> d           2.660 -10.693   1.633  0.00  0.00    -0.385 N 
ATOM     30  C19 <0> d           3.650 -10.664   2.504  0.00  0.00     0.039 A 
ATOM     31  H26 <0> d           1.835 -11.191   1.738  0.00  0.00     0.160 HD
ATOM     32  C14 <0> d           4.741  -9.806   2.015  0.00  0.00     0.002 A 
ATOM     33  C18 <0> d           3.809 -11.296   3.765  0.00  0.00     0.030 A 
ATOM     34  C15 <0> d           5.894  -9.648   2.814  0.00  0.00     0.014 A 
ATOM     35  C16 <0> d           5.977 -10.284   4.011  0.00  0.00     0.001 A 
ATOM     36  C17 <0> d           4.944 -11.099   4.479  0.00  0.00     0.002 A 
ENDBRANCH   4  27
TORSDOF 7
