REMARK  2 active torsions:
REMARK  status: ('A' for Active; 'I' for Inactive)
REMARK    1  A    between atoms: C2_2  and  C3_3 
REMARK    2  A    between atoms: C5_5  and  N2_17 
ROOT
ATOM      1  C3  <0> d           0.707  -0.490  -1.238  0.00  0.00    -0.054 A 
ATOM      2  C4  <0> d          -0.013  -0.718  -2.396  0.00  0.00     0.039 A 
ATOM      3  C5  <0> d           0.631  -1.163  -3.542  0.00  0.00     0.062 A 
ATOM      4  C6  <0> d           2.005  -1.381  -3.523  0.00  0.00     0.122 A 
ATOM      5  C7  <0> d           2.724  -1.154  -2.354  0.00  0.00     0.073 A 
ATOM      6  C8  <0> d           2.073  -0.701  -1.215  0.00  0.00     0.039 A 
ATOM      7  N1  <0> d           4.106  -1.386  -2.341  0.00  0.00    -0.320 N 
ATOM      8  C9  <0> d           4.872  -0.876  -3.331  0.00  0.00     0.226 C 
ATOM      9  O1  <0> d           6.060  -1.122  -3.371  0.00  0.00    -0.273 OA
ATOM     10  C10 <0> d           4.245  -0.001  -4.385  0.00  0.00     0.135 C 
ATOM     11  C11 <0> d           3.427  -0.852  -5.354  0.00  0.00     0.133 C 
ATOM     12  O2  <0> d           2.651  -1.811  -4.640  0.00  0.00    -0.341 OA
ATOM     13  C12 <0> d           2.491   0.054  -6.157  0.00  0.00     0.040 C 
ATOM     14  C13 <0> d           4.714  -2.174  -1.266  0.00  0.00     0.159 C 
ENDROOT
BRANCH   3  15
ATOM     15  N2  <0> d          -0.099  -1.392  -4.714  0.00  0.00    -0.397 N 
ATOM     16  H17 <0> d          -1.057  -1.240  -4.726  0.00  0.00     0.156 HD
ATOM     17  H18 <0> d           0.352  -1.703  -5.514  0.00  0.00     0.156 HD
ENDBRANCH   3  15
BRANCH   1  18
ATOM     18  C2  <0> d           0.002  -0.004   0.002  0.00  0.00     0.034 C 
ATOM     19  C1  <0> d          -0.019   1.526   0.010  0.00  0.00     0.010 C 
ENDBRANCH   1  18
TORSDOF 2
