REMARK  3 active torsions:
REMARK  status: ('A' for Active; 'I' for Inactive)
REMARK    1  A    between atoms: N2_5  and  C6_8 
REMARK    2  A    between atoms: C6_8  and  C7_9 
REMARK    3  A    between atoms: C8_11  and  C10_14 
ROOT
ATOM      1  C7  <0> d           1.503  -3.675   1.798  0.00  0.00     0.268 C 
ATOM      2  N3  <0> d           1.571  -4.943   2.586  0.00  0.00    -0.046 N 
ATOM      3  C8  <0> d           2.904  -5.558   2.442  0.00  0.00     0.296 C 
ATOM      4  C9  <0> d           3.307  -5.627   0.945  0.00  0.00     0.120 C 
ATOM      5  S1  <0> d           2.375  -4.192   0.257  0.00  0.00    -0.132 SA
ATOM      6  H11 <0> d           1.400  -4.742   3.559  0.00  0.00     0.279 HD
ATOM      7  H17 <0> d           0.869  -5.584   2.248  0.00  0.00     0.279 HD
ENDROOT
BRANCH   1   8
ATOM      8  C6  <0> d           0.054  -3.280   1.509  0.00  0.00     0.195 C 
BRANCH   8   9
ATOM      9  N2  <0> d           0.034  -2.085   0.661  0.00  0.00    -0.271 N 
ATOM     10  N1  <0> d           0.028  -2.068  -0.740  0.00  0.00    -0.177 NA
ATOM     11  C3  <0> d           0.009  -0.821  -1.133  0.00  0.00     0.059 A 
ATOM     12  C2  <0> d           0.002  -0.004   0.002  0.00  0.00    -0.012 A 
ATOM     13  C11 <0> d          -0.004  -0.346  -2.564  0.00  0.00     0.073 C 
ATOM     14  C1  <0> d          -0.018   1.503   0.010  0.00  0.00     0.052 C 
ATOM     15  C4  <0> d           0.023  -0.806   1.092  0.00  0.00     0.035 A 
ATOM     16  C5  <0> d           0.030  -0.352   2.529  0.00  0.00     0.070 C 
ENDBRANCH   8   9
ENDBRANCH   1   8
BRANCH   3  17
ATOM     17  C10 <0> d           2.874  -6.952   3.013  0.00  0.00     0.205 C 
ATOM     18  O1  <0> d           1.841  -7.599   2.988  0.00  0.00    -0.646 OA
ATOM     19  O2  <0> d           3.883  -7.433   3.500  0.00  0.00    -0.646 OA
ENDBRANCH   3  17
TORSDOF 3
