REMARK  5 active torsions:
REMARK  status: ('A' for Active; 'I' for Inactive)
REMARK    1  A    between atoms: C3_3  and  N2_11 
REMARK    2  A    between atoms: C7_7  and  N1_8 
REMARK       I    between atoms: N2_11  and  C8_12 
REMARK    3  A    between atoms: C8_12  and  C9_14 
REMARK    4  A    between atoms: C9_14  and  N3_16 
REMARK    5  A    between atoms: C13_19  and  C16_22 
REMARK       I    between atoms: C16_22  and  N4_24 
ROOT
ATOM      1  N2  <0> d          -0.718   1.500   4.712  0.00  0.00    -0.325 N 
ATOM      2  C8  <0> d          -1.467   1.738   3.617  0.00  0.00     0.253 C 
ATOM      3  O3  <0> d          -2.411   2.497   3.681  0.00  0.00    -0.271 OA
ATOM      4  H8  <0> d           0.085   0.749   4.676  0.00  0.00     0.169 HD
ENDROOT
BRANCH   2   5
ATOM      5  C9  <0> d          -1.133   1.059   2.313  0.00  0.00     0.275 C 
ATOM      6  C10 <0> d          -1.212  -0.458   2.493  0.00  0.00     0.050 C 
BRANCH   5   7
ATOM      7  N3  <0> d          -2.092   1.480   1.282  0.00  0.00    -0.059 N 
ATOM      8  C15 <0> d          -3.462   1.105   1.653  0.00  0.00     0.236 C 
ATOM      9  C14 <0> d          -4.444   1.685   0.633  0.00  0.00     0.042 C 
ATOM     10  C13 <0> d          -4.106   1.144  -0.758  0.00  0.00     0.081 C 
ATOM     11  C12 <0> d          -2.658   1.506  -1.100  0.00  0.00     0.042 C 
ATOM     12  C11 <0> d          -1.727   0.932  -0.030  0.00  0.00     0.236 C 
ATOM     13  H23 <0> d          -2.053   2.577   1.210  0.00  0.00     0.280 HD
BRANCH  10  14
ATOM     14  C16 <0> d          -5.033   1.756  -1.777  0.00  0.00     0.219 C 
ATOM     15  O4  <0> d          -4.581   2.418  -2.688  0.00  0.00    -0.273 OA
ATOM     16  N4  <0> d          -6.364   1.569  -1.676  0.00  0.00    -0.370 N 
ATOM     17  H21 <0> d          -7.040   2.016  -2.420  0.00  0.00     0.159 HD
ATOM     18  H22 <0> d          -6.773   0.969  -0.851  0.00  0.00     0.159 HD
ENDBRANCH  10  14
ENDBRANCH   5   7
ENDBRANCH   2   5
BRANCH   1  19
ATOM     19  C3  <0> d          -0.961   2.210   5.893  0.00  0.00     0.043 A 
ATOM     20  C2  <0> d          -0.513   1.710   7.109  0.00  0.00    -0.002 A 
ATOM     21  C1  <0> d           0.235   0.403   7.158  0.00  0.00     0.053 C 
ATOM     22  C7  <0> d          -0.749   2.415   8.273  0.00  0.00     0.111 A 
ATOM     23  C6  <0> d          -1.440   3.613   8.229  0.00  0.00     0.037 A 
ATOM     24  C5  <0> d          -1.892   4.110   7.021  0.00  0.00     0.005 A 
ATOM     25  C4  <0> d          -1.654   3.412   5.853  0.00  0.00     0.030 A 
BRANCH  22  26
ATOM     26  N1  <0> d          -0.268   1.887   9.569  0.00  0.00    -0.115 N 
ATOM     27  O1  <0> d          -0.596   2.430  10.608  0.00  0.00    -0.532 OA
ATOM     28  O2  <0> d           0.456   0.907   9.595  0.00  0.00    -0.532 OA
ENDBRANCH  22  26
ENDBRANCH   1  19
TORSDOF 5
