REMARK  3 active torsions:
REMARK  status: ('A' for Active; 'I' for Inactive)
REMARK    1  A    between atoms: C6_6  and  N1_7 
REMARK       I    between atoms: N1_7  and  C7_8 
REMARK    2  A    between atoms: C7_8  and  C8_10 
REMARK    3  A    between atoms: N3_12  and  C12_17 
ROOT
ATOM      1  C8  <0> d           2.425   1.022   0.102  0.00  0.00     0.123 C 
ATOM      2  N2  <0> d           2.473  -0.271   0.189  0.00  0.00    -0.168 NA
ATOM      3  N3  <0> d           3.695  -0.945   0.284  0.00  0.00    -0.232 N 
ATOM      4  C9  <0> d           4.806  -0.289   0.672  0.00  0.00     0.240 C 
ATOM      5  O2  <0> d           5.862  -0.879   0.757  0.00  0.00    -0.272 OA
ATOM      6  C10 <0> d           4.733   1.182   0.997  0.00  0.00     0.111 C 
ATOM      7  C11 <0> d           3.686   1.844   0.093  0.00  0.00     0.076 C 
ENDROOT
BRANCH   1   8
ATOM      8  C7  <0> d           1.124   1.693   0.005  0.00  0.00     0.272 C 
ATOM      9  N1  <0> d          -0.011   0.966   0.007  0.00  0.00    -0.322 N 
ATOM     10  H5  <0> d           0.034  -0.003   0.005  0.00  0.00     0.169 HD
ATOM     11  O1  <0> d           1.069   2.906  -0.076  0.00  0.00    -0.266 OA
BRANCH   9  12
ATOM     12  C6  <0> d          -1.253   1.608   0.007  0.00  0.00     0.035 A 
ATOM     13  C1  <0> d          -1.421   2.800  -0.685  0.00  0.00     0.030 A 
ATOM     14  C2  <0> d          -2.649   3.430  -0.682  0.00  0.00     0.010 A 
ATOM     15  C3  <0> d          -3.716   2.878   0.008  0.00  0.00    -0.052 A 
ATOM     16  C18 <0> d          -5.140   3.366   0.162  0.00  0.00     0.039 C 
ATOM     17  C4  <0> d          -3.552   1.690   0.699  0.00  0.00    -0.050 A 
ATOM     18  C17 <0> d          -5.938   2.138   0.649  0.00  0.00     0.009 C 
ATOM     19  C16 <0> d          -4.855   1.301   1.363  0.00  0.00     0.039 C 
ATOM     20  C5  <0> d          -2.324   1.053   0.694  0.00  0.00     0.037 A 
ENDBRANCH   9  12
ENDBRANCH   1   8
BRANCH   3  21
ATOM     21  C12 <0> d           3.767  -2.372  -0.038  0.00  0.00     0.128 C 
ATOM     22  C15 <0> d           2.817  -3.158   0.897  0.00  0.00     0.167 C 
ATOM     23  S1  <0> d           2.276  -4.561  -0.162  0.00  0.00     0.146 S 
ATOM     24  C14 <0> d           3.135  -4.109  -1.728  0.00  0.00     0.142 C 
ATOM     25  O3  <0> d           0.872  -4.474  -0.362  0.00  0.00    -0.228 OA
ATOM     26  O4  <0> d           2.837  -5.765   0.342  0.00  0.00    -0.228 OA
ATOM     27  C13 <0> d           3.353  -2.586  -1.504  0.00  0.00     0.043 C 
ENDBRANCH   3  21
TORSDOF 3
