REMARK  6 active torsions:
REMARK  status: ('A' for Active; 'I' for Inactive)
REMARK    1  A    between atoms: N1_2  and  C3_4 
REMARK    2  A    between atoms: C3_4  and  C4_5 
REMARK    3  A    between atoms: C3_4  and  C18_25 
REMARK    4  A    between atoms: C4_5  and  N2_6 
REMARK       I    between atoms: N2_6  and  C5_7 
REMARK    5  A    between atoms: C5_7  and  C6_9 
REMARK       I    between atoms: C6_9  and  N3_11 
REMARK    6  A    between atoms: N3_11  and  C7_12 
ROOT
ATOM      1  C6  <0> d          -1.782   3.375  -2.729  0.00  0.00     0.313 C 
ATOM      2  O2  <0> d          -1.210   3.995  -1.857  0.00  0.00    -0.262 OA
ATOM      3  N3  <0> d          -2.163   3.999  -3.862  0.00  0.00    -0.319 N 
ATOM      4  H11 <0> d          -2.687   3.523  -4.525  0.00  0.00     0.169 HD
ENDROOT
BRANCH   1   5
ATOM      5  C5  <0> d          -2.065   1.920  -2.547  0.00  0.00     0.309 C 
ATOM      6  N2  <0> d          -1.684   1.296  -1.415  0.00  0.00    -0.351 N 
ATOM      7  H10 <0> d          -1.226   1.792  -0.718  0.00  0.00     0.162 HD
ATOM      8  O1  <0> d          -2.638   1.299  -3.419  0.00  0.00    -0.262 OA
BRANCH   6   9
ATOM      9  C4  <0> d          -1.961  -0.132  -1.237  0.00  0.00     0.163 C 
BRANCH   9  10
ATOM     10  C3  <0> d          -1.322  -0.617   0.066  0.00  0.00     0.261 C 
BRANCH  10  11
ATOM     11  N1  <0> d          -1.805   0.205   1.184  0.00  0.00    -0.067 N 
ATOM     12  C1  <0> d          -3.250   0.004   1.351  0.00  0.00     0.270 C 
ATOM     13  C2  <0> d          -1.110  -0.189   2.417  0.00  0.00     0.270 C 
ATOM     14  H25 <0> d          -1.620   1.178   0.991  0.00  0.00     0.280 HD
ENDBRANCH  10  11
BRANCH  10  15
ATOM     15  C18 <0> d           0.177  -0.496  -0.035  0.00  0.00     0.085 A 
ATOM     16  O4  <0> d           0.888   0.631   0.133  0.00  0.00    -0.325 OA
ATOM     17  C21 <0> d           2.194   0.365  -0.026  0.00  0.00     0.142 A 
ATOM     18  C20 <0> d           2.330  -0.943  -0.309  0.00  0.00     0.027 A 
ATOM     19  C19 <0> d           1.030  -1.498  -0.315  0.00  0.00     0.037 A 
ENDBRANCH  10  15
ENDBRANCH   9  10
ENDBRANCH   6   9
ENDBRANCH   1   5
BRANCH   3  20
ATOM     20  C7  <0> d          -1.804   5.332  -4.080  0.00  0.00     0.036 A 
ATOM     21  C12 <0> d          -0.566   5.783  -3.610  0.00  0.00     0.039 A 
ATOM     22  C11 <0> d          -0.252   7.109  -3.839  0.00  0.00    -0.027 A 
ATOM     23  C10 <0> d          -1.155   7.938  -4.487  0.00  0.00     0.050 A 
ATOM     24  C13 <0> d           0.967   7.923  -3.524  0.00  0.00     0.061 A 
ATOM     25  C9  <0> d          -2.383   7.487  -4.976  0.00  0.00    -0.028 A 
ATOM     26  N4  <0> d          -0.711   9.255  -4.590  0.00  0.00    -0.317 N 
ATOM     27  C8  <0> d          -2.693   6.167  -4.752  0.00  0.00     0.039 A 
ATOM     28  C17 <0> d          -3.240   8.468  -5.717  0.00  0.00     0.050 C 
ATOM     29  C16 <0> d          -2.998   9.893  -5.227  0.00  0.00     0.108 C 
ATOM     30  C15 <0> d          -1.530  10.214  -5.075  0.00  0.00     0.224 C 
ATOM     31  O3  <0> d          -1.097  11.304  -5.383  0.00  0.00    -0.273 OA
ATOM     32  C14 <0> d           0.646   9.338  -4.060  0.00  0.00     0.137 A 
ENDBRANCH   3  20
TORSDOF 6
