REMARK  6 active torsions:
REMARK  status: ('A' for Active; 'I' for Inactive)
REMARK    1  A    between atoms: C2_2  and  C3_3 
REMARK    2  A    between atoms: C3_3  and  C4_4 
REMARK    3  A    between atoms: C4_4  and  N1_5 
REMARK    4  A    between atoms: C7_9  and  C18_23 
REMARK    5  A    between atoms: C18_23  and  C19_24 
REMARK    6  A    between atoms: C22_27  and  O4_30 
ROOT
ATOM      1  N1  <0> d          -0.146  -5.219  -3.183  0.00  0.00    -0.288 N 
ATOM      2  C5  <0> d          -0.236  -4.664  -1.970  0.00  0.00     0.233 A 
ATOM      3  O1  <0> d          -1.261  -4.530  -1.336  0.00  0.00    -0.272 OA
ATOM      4  C6  <0> d           1.148  -4.231  -1.500  0.00  0.00     0.126 A 
ATOM      5  C7  <0> d           1.218  -2.689  -1.467  0.00  0.00     0.206 C 
ATOM      6  C8  <0> d           2.594  -3.318  -3.248  0.00  0.00     0.247 A 
ATOM      7  C9  <0> d           2.056  -4.643  -2.695  0.00  0.00     0.144 A 
ATOM      8  C10 <0> d           1.094  -5.258  -3.685  0.00  0.00     0.234 A 
ATOM      9  O2  <0> d           1.398  -5.715  -4.766  0.00  0.00    -0.272 OA
ATOM     10  C11 <0> d           4.006  -3.456  -3.741  0.00  0.00     0.015 A 
ATOM     11  C12 <0> d           5.187  -3.835  -3.143  0.00  0.00     0.012 A 
ATOM     12  C13 <0> d           6.358  -3.864  -3.878  0.00  0.00     0.001 A 
ATOM     13  C14 <0> d           6.340  -3.513  -5.216  0.00  0.00     0.002 A 
ATOM     14  C15 <0> d           5.159  -3.134  -5.820  0.00  0.00     0.030 A 
ATOM     15  C16 <0> d           3.975  -3.102  -5.087  0.00  0.00     0.044 A 
ATOM     16  N2  <0> d           2.676  -2.759  -5.466  0.00  0.00    -0.324 N 
ATOM     17  C17 <0> d           1.804  -2.861  -4.444  0.00  0.00     0.264 A 
ATOM     18  O3  <0> d           0.614  -2.629  -4.481  0.00  0.00    -0.270 OA
ATOM     19  H17 <0> d           2.429  -2.481  -6.362  0.00  0.00     0.169 HD
ATOM     20  N3  <0> d           2.476  -2.375  -2.149  0.00  0.00    -0.047 N 
ATOM     21  H25 <0> d           3.266  -2.483  -1.502  0.00  0.00     0.279 HD
ATOM     22  H26 <0> d           2.455  -1.413  -2.507  0.00  0.00     0.279 HD
ENDROOT
BRANCH   5  23
ATOM     23  C18 <0> d           1.226  -2.187  -0.022  0.00  0.00     0.072 C 
BRANCH  23  24
ATOM     24  C19 <0> d           1.208  -0.680  -0.013  0.00  0.00    -0.056 A 
ATOM     25  C24 <0> d           2.398   0.024  -0.021  0.00  0.00     0.010 A 
ATOM     26  C23 <0> d           2.385   1.405  -0.013  0.00  0.00     0.037 A 
ATOM     27  C22 <0> d           1.176   2.086   0.002  0.00  0.00     0.065 A 
ATOM     28  C21 <0> d          -0.017   1.377   0.010  0.00  0.00     0.037 A 
ATOM     29  C20 <0> d           0.002  -0.004   0.002  0.00  0.00     0.010 A 
BRANCH  27  30
ATOM     30  O4  <0> d           1.160   3.445   0.009  0.00  0.00    -0.361 OA
ATOM     31  H24 <0> d           1.164   3.834   0.894  0.00  0.00     0.217 HD
ENDBRANCH  27  30
ENDBRANCH  23  24
ENDBRANCH   5  23
BRANCH   1  32
ATOM     32  C4  <0> d          -1.309  -5.742  -3.904  0.00  0.00     0.135 C 
BRANCH  32  33
ATOM     33  C3  <0> d          -1.509  -7.217  -3.548  0.00  0.00     0.020 C 
BRANCH  33  34
ATOM     34  C2  <0> d          -2.723  -7.763  -4.301  0.00  0.00    -0.003 C 
ATOM     35  C1  <0> d          -2.923  -9.238  -3.945  0.00  0.00     0.005 C 
ENDBRANCH  33  34
ENDBRANCH  32  33
ENDBRANCH   1  32
TORSDOF 6
