REMARK  8 active torsions:
REMARK  status: ('A' for Active; 'I' for Inactive)
REMARK    1  A    between atoms: C3_3  and  N1_9 
REMARK    2  A    between atoms: C10_13  and  S1_14 
REMARK    3  A    between atoms: S1_14  and  C11_15 
REMARK    4  A    between atoms: C11_15  and  C12_16 
REMARK       I    between atoms: C12_16  and  N3_18 
REMARK    5  A    between atoms: N3_18  and  C13_19 
REMARK    6  A    between atoms: C13_19  and  C15_21 
REMARK    7  A    between atoms: C18_24  and  S2_27 
REMARK    8  A    between atoms: S2_27  and  N4_30 
ROOT
ATOM      1  C12 <0> d          -4.098   1.692   0.032  0.00  0.00     0.227 C 
ATOM      2  O1  <0> d          -4.192   2.901   0.039  0.00  0.00    -0.273 OA
ATOM      3  N3  <0> d          -5.210   0.930   0.034  0.00  0.00    -0.352 N 
ATOM      4  H12 <0> d          -5.135  -0.037   0.029  0.00  0.00     0.163 HD
ENDROOT
BRANCH   1   5
ATOM      5  C11 <0> d          -2.739   1.041   0.022  0.00  0.00     0.185 C 
BRANCH   5   6
ATOM      6  S1  <0> d          -1.458   2.320   0.022  0.00  0.00    -0.082 SA
BRANCH   6   7
ATOM      7  C10 <0> d          -0.016   1.308   0.009  0.00  0.00     0.173 A 
ATOM      8  N1  <0> d           1.273   1.756  -0.001  0.00  0.00    -0.299 N 
ATOM      9  C8  <0> d           2.084   0.641  -0.014  0.00  0.00     0.118 A 
ATOM     10  C9  <0> d           1.276  -0.432  -0.012  0.00  0.00     0.137 A 
ATOM     11  N2  <0> d           0.002  -0.004   0.002  0.00  0.00    -0.235 NA
BRANCH   8  12
ATOM     12  C3  <0> d           1.692   3.094   0.002  0.00  0.00     0.048 A 
ATOM     13  C2  <0> d           1.421   3.905   1.095  0.00  0.00    -0.013 A 
ATOM     14  C1  <0> d           0.675   3.349   2.281  0.00  0.00     0.052 C 
ATOM     15  C7  <0> d           1.839   5.222   1.097  0.00  0.00     0.042 A 
ATOM     16  C6  <0> d           2.519   5.734   0.006  0.00  0.00     0.024 A 
ATOM     17 Cl1  <0> d           1.507   6.237   2.466  0.00  0.00    -0.084 Cl
ATOM     18  C5  <0> d           2.786   4.929  -1.086  0.00  0.00     0.004 A 
ATOM     19  C4  <0> d           2.374   3.611  -1.091  0.00  0.00     0.031 A 
ENDBRANCH   8  12
ENDBRANCH   6   7
ENDBRANCH   5   6
ENDBRANCH   1   5
BRANCH   3  20
ATOM     20  C13 <0> d          -6.532   1.562   0.044  0.00  0.00     0.113 C 
ATOM     21  C14 <0> d          -6.930   1.888   1.485  0.00  0.00     0.037 C 
BRANCH  20  22
ATOM     22  C15 <0> d          -7.544   0.620  -0.556  0.00  0.00    -0.036 A 
ATOM     23  C20 <0> d          -8.531   1.108  -1.392  0.00  0.00     0.011 A 
ATOM     24  C19 <0> d          -9.459   0.244  -1.942  0.00  0.00     0.026 A 
ATOM     25  C18 <0> d          -9.400  -1.107  -1.657  0.00  0.00     0.079 A 
ATOM     26  C17 <0> d          -8.413  -1.595  -0.821  0.00  0.00     0.026 A 
ATOM     27  C16 <0> d          -7.481  -0.732  -0.274  0.00  0.00     0.011 A 
BRANCH  25  28
ATOM     28  S2  <0> d         -10.583  -2.208  -2.359  0.00  0.00     0.256 S 
ATOM     29  O2  <0> d         -10.641  -3.341  -1.504  0.00  0.00    -0.201 OA
ATOM     30  O3  <0> d         -11.729  -1.429  -2.670  0.00  0.00    -0.201 OA
BRANCH  28  31
ATOM     31  N4  <0> d          -9.964  -2.736  -3.802  0.00  0.00    -0.324 N 
ATOM     32  H20 <0> d         -10.194  -3.618  -4.135  0.00  0.00     0.169 HD
ATOM     33  H21 <0> d          -9.371  -2.164  -4.314  0.00  0.00     0.169 HD
ENDBRANCH  28  31
ENDBRANCH  25  28
ENDBRANCH  20  22
ENDBRANCH   3  20
TORSDOF 8
