REMARK  4 active torsions:
REMARK  status: ('A' for Active; 'I' for Inactive)
REMARK       I    between atoms: N1_2  and  C2_3 
REMARK    1  A    between atoms: C2_3  and  C3_5 
REMARK    2  A    between atoms: C3_5  and  N2_12 
REMARK    3  A    between atoms: C4_6  and  C5_7 
REMARK       I    between atoms: N2_12  and  C9_13 
REMARK    4  A    between atoms: C9_13  and  C10_15 
ROOT
ATOM      1  C3  <0> d           1.126   1.550   0.010  0.00  0.00     0.106 C 
ATOM      2  C4  <0> d           2.310   0.886  -0.061  0.00  0.00     0.072 C 
ENDROOT
BRANCH   1   3
ATOM      3  C2  <0> d           1.095   3.009  -0.127  0.00  0.00     0.268 C 
ATOM      4  N1  <0> d          -0.085   3.657  -0.173  0.00  0.00    -0.360 N 
ATOM      5  C1  <0> d          -0.120   5.100  -0.422  0.00  0.00     0.149 C 
ATOM      6  H4  <0> d          -0.913   3.168  -0.043  0.00  0.00     0.162 HD
ATOM      7  O1  <0> d           2.137   3.636  -0.198  0.00  0.00    -0.266 OA
ENDBRANCH   1   3
BRANCH   1   8
ATOM      8  N2  <0> d          -0.064   0.842   0.214  0.00  0.00    -0.318 N 
ATOM      9  C9  <0> d          -0.822   1.095   1.299  0.00  0.00     0.256 C 
ATOM     10  O3  <0> d          -0.521   2.000   2.053  0.00  0.00    -0.267 OA
ATOM     11  H9  <0> d          -0.345   0.171  -0.428  0.00  0.00     0.169 HD
BRANCH   9  12
ATOM     12  C10 <0> d          -2.020   0.273   1.572  0.00  0.00     0.033 A 
ATOM     13  C15 <0> d          -2.807   0.533   2.695  0.00  0.00     0.036 A 
ATOM     14  C14 <0> d          -3.924  -0.238   2.944  0.00  0.00     0.011 A 
ATOM     15  C13 <0> d          -4.264  -1.268   2.083  0.00  0.00     0.019 A 
ATOM     16 Br1  <0> d          -4.993   0.112   4.464  0.00  0.00    -0.051 Br
ATOM     17  C12 <0> d          -3.487  -1.530   0.968  0.00  0.00     0.002 A 
ATOM     18  C11 <0> d          -2.371  -0.763   0.705  0.00  0.00     0.017 A 
ENDBRANCH   9  12
ENDBRANCH   1   8
BRANCH   2  19
ATOM     19  C5  <0> d           2.356  -0.507   0.192  0.00  0.00     0.077 A 
ATOM     20  O2  <0> d           1.296  -1.309   0.423  0.00  0.00    -0.323 OA
ATOM     21  C8  <0> d           1.720  -2.566   0.618  0.00  0.00     0.142 A 
ATOM     22  C7  <0> d           3.068  -2.595   0.525  0.00  0.00     0.027 A 
ATOM     23  C6  <0> d           3.493  -1.285   0.252  0.00  0.00     0.039 A 
ENDBRANCH   2  19
TORSDOF 4
