REMARK  6 active torsions:
REMARK  status: ('A' for Active; 'I' for Inactive)
REMARK    1  A    between atoms: C7_7  and  C15_19 
REMARK    2  A    between atoms: N1_9  and  C9_10 
REMARK    3  A    between atoms: C9_10  and  C10_11 
REMARK    4  A    between atoms: C11_13  and  C12_16 
REMARK    5  A    between atoms: C15_19  and  C16_20 
REMARK    6  A    between atoms: C16_20  and  N4_21 
ROOT
ATOM      1  C1  <0> d           0.214   1.465   0.160  0.00  0.00     0.001 A 
ATOM      2  C2  <0> d           1.446   2.093   0.129  0.00  0.00     0.002 A 
ATOM      3  C3  <0> d           2.603   1.347   0.051  0.00  0.00     0.030 A 
ATOM      4  C4  <0> d           2.540  -0.048   0.005  0.00  0.00     0.037 A 
ATOM      5  C5  <0> d           1.301  -0.666   0.037  0.00  0.00    -0.026 A 
ATOM      6  C6  <0> d           0.144   0.085   0.114  0.00  0.00     0.010 A 
ATOM      7  C7  <0> d           1.509  -2.163  -0.024  0.00  0.00     0.040 A 
ATOM      8  C8  <0> d           3.034  -2.338  -0.097  0.00  0.00     0.133 A 
ATOM      9  N1  <0> d           3.578  -0.977  -0.073  0.00  0.00    -0.372 N 
ENDROOT
BRANCH   9  10
ATOM     10  C9  <0> d           5.003  -0.642  -0.125  0.00  0.00     0.212 C 
BRANCH  10  11
ATOM     11  C10 <0> d           5.555  -0.577   1.276  0.00  0.00     0.190 A 
ATOM     12  O1  <0> d           5.596   0.513   2.053  0.00  0.00    -0.194 OA
ATOM     13  N3  <0> d           6.191   0.106   3.277  0.00  0.00    -0.111 NA
ATOM     14  C11 <0> d           6.466  -1.160   3.152  0.00  0.00     0.160 A 
ATOM     15  N2  <0> d           6.079  -1.570   1.938  0.00  0.00    -0.207 NA
BRANCH  14  16
ATOM     16  C12 <0> d           7.114  -2.024   4.203  0.00  0.00     0.060 A 
ATOM     17  C14 <0> d           8.510  -1.623   4.684  0.00  0.00     0.013 A 
ATOM     18  C13 <0> d           7.299  -1.421   5.597  0.00  0.00     0.013 A 
ENDBRANCH  14  16
ENDBRANCH  10  11
ENDBRANCH   9  10
BRANCH   7  19
ATOM     19  C15 <0> d           0.952  -2.831   1.234  0.00  0.00     0.038 C 
BRANCH  19  20
ATOM     20  C16 <0> d           1.048  -4.351   1.090  0.00  0.00     0.230 C 
BRANCH  20  21
ATOM     21  N4  <0> d           0.403  -4.995   2.242  0.00  0.00    -0.079 N 
ATOM     22  H19 <0> d           0.868  -4.708   3.091  0.00  0.00     0.274 HD
ATOM     23  H20 <0> d          -0.567  -4.721   2.281  0.00  0.00     0.274 HD
ATOM     24  H21 <0> d           0.467  -5.997   2.147  0.00  0.00     0.274 HD
ENDBRANCH  20  21
ENDBRANCH  19  20
ENDBRANCH   7  19
TORSDOF 6
