REMARK  3 active torsions:
REMARK  status: ('A' for Active; 'I' for Inactive)
REMARK    1  A    between atoms: C3_4  and  S1_7 
REMARK    2  A    between atoms: S1_7  and  N3_10 
REMARK    3  A    between atoms: C5_11  and  C6_13 
ROOT
ATOM      1  N3  <0> d           1.627  -3.880  -2.007  0.00  0.00    -0.129 NA
ATOM      2  C5  <0> d           1.925  -4.904  -2.755  0.00  0.00     0.238 C 
ATOM      3  O3  <0> d           0.940  -5.661  -3.290  0.00  0.00    -0.167 OA
ENDROOT
BRANCH   2   4
ATOM      4  C6  <0> d           3.336  -5.237  -3.018  0.00  0.00     0.090 A 
ATOM      5  N4  <0> d           3.777  -6.293  -3.791  0.00  0.00    -0.352 N 
ATOM      6  C13 <0> d           5.153  -6.283  -3.809  0.00  0.00     0.044 A 
ATOM      7  H1  <0> d           3.211  -6.934  -4.248  0.00  0.00     0.166 HD
ATOM      8  C8  <0> d           5.576  -5.198  -3.018  0.00  0.00    -0.007 A 
ATOM      9  C12 <0> d           6.103  -7.096  -4.419  0.00  0.00     0.049 A 
ATOM     10  C7  <0> d           4.407  -4.559  -2.534  0.00  0.00     0.048 A 
ATOM     11  C9  <0> d           6.945  -4.950  -2.855  0.00  0.00     0.015 A 
ATOM     12  C10 <0> d           7.859  -5.761  -3.462  0.00  0.00     0.020 A 
ATOM     13  C11 <0> d           7.444  -6.833  -4.244  0.00  0.00     0.013 A 
ATOM     14 Br1  <0> d           8.733  -7.941  -5.074  0.00  0.00    -0.051 Br
ENDBRANCH   2   4
BRANCH   1  15
ATOM     15  S1  <0> d           0.041  -3.505  -1.711  0.00  0.00     0.288 S 
ATOM     16  O1  <0> d          -0.492  -4.572  -0.939  0.00  0.00    -0.198 OA
ATOM     17  O2  <0> d          -0.521  -3.109  -2.955  0.00  0.00    -0.198 OA
BRANCH  15  18
ATOM     18  C3  <0> d           0.027  -2.079  -0.676  0.00  0.00     0.117 A 
ATOM     19  C2  <0> d           0.008  -0.792  -1.094  0.00  0.00     0.138 A 
ATOM     20  N1  <0> d           0.002  -0.004   0.002  0.00  0.00    -0.284 N 
ATOM     21  C1  <0> d          -0.018   1.461   0.010  0.00  0.00     0.179 C 
ATOM     22  N2  <0> d           0.025  -0.834   1.130  0.00  0.00    -0.184 NA
ATOM     23  C4  <0> d           0.034  -2.078   0.723  0.00  0.00     0.165 A 
ENDBRANCH  15  18
ENDBRANCH   1  15
TORSDOF 3
