REMARK  2 active torsions:
REMARK  status: ('A' for Active; 'I' for Inactive)
REMARK    1  A    between atoms: N1_7  and  C6_8 
REMARK    2  A    between atoms: C6_8  and  C7_9 
ROOT
ATOM      1  C7  <0> d           0.990  -0.307   3.618  0.00  0.00     0.175 C 
ATOM      2  C8  <0> d           0.284   0.103   4.913  0.00  0.00     0.265 C 
ATOM      3  N2  <0> d           1.175  -0.147   6.054  0.00  0.00    -0.071 N 
ATOM      4  C9  <0> d           2.405   0.640   5.895  0.00  0.00     0.258 C 
ATOM      5  C10 <0> d           3.107   0.229   4.599  0.00  0.00     0.196 C 
ATOM      6  O2  <0> d           2.215   0.420   3.497  0.00  0.00    -0.381 OA
ATOM      7  H16 <0> d           0.711   0.123   6.909  0.00  0.00     0.277 HD
ATOM      8  H21 <0> d           1.405  -1.128   6.092  0.00  0.00     0.277 HD
ENDROOT
BRANCH   1   9
ATOM      9  C6  <0> d           0.088   0.008   2.423  0.00  0.00     0.306 C 
BRANCH   9  10
ATOM     10  N1  <0> d           0.715  -0.492   1.192  0.00  0.00     0.099 N 
ATOM     11  C2  <0> d           0.002  -0.004   0.002  0.00  0.00     0.242 C 
ATOM     12  C1  <0> d          -0.019   1.526   0.010  0.00  0.00     0.045 C 
ATOM     13  C3  <0> d           0.720  -0.499  -1.256  0.00  0.00     0.203 C 
ATOM     14  O1  <0> d           0.803  -1.926  -1.222  0.00  0.00    -0.387 OA
ATOM     15  C4  <0> d           1.492  -2.436  -0.077  0.00  0.00     0.198 C 
ATOM     16  C5  <0> d           0.782  -1.960   1.193  0.00  0.00     0.299 C 
ENDBRANCH   9  10
ENDBRANCH   1   9
TORSDOF 2
