REMARK  3 active torsions:
REMARK  status: ('A' for Active; 'I' for Inactive)
REMARK    1  A    between atoms: N1_3  and  C7_13 
REMARK    2  A    between atoms: C4_5  and  N2_6 
REMARK    3  A    between atoms: N2_6  and  C5_7 
ROOT
ATOM      1  C1  <0> d          -0.019   1.542   0.011  0.00  0.00     0.054 C 
ATOM      2  C2  <0> d           1.486   1.909  -0.002  0.00  0.00     0.237 C 
ATOM      3  N1  <0> d           2.080   0.878  -0.892  0.00  0.00    -0.065 N 
ATOM      4  C3  <0> d           1.381  -0.385  -0.569  0.00  0.00     0.260 C 
ATOM      5  C4  <0> d           0.002  -0.004   0.002  0.00  0.00     0.111 C 
ATOM      6  H14 <0> d           1.927   1.123  -1.858  0.00  0.00     0.280 HD
ENDROOT
BRANCH   5   7
ATOM      7  N2  <0> d          -1.065  -0.522  -0.858  0.00  0.00    -0.361 N 
ATOM      8  H8  <0> d          -0.881  -0.732  -1.787  0.00  0.00     0.162 HD
BRANCH   7   9
ATOM      9  C5  <0> d          -2.341  -0.714  -0.342  0.00  0.00     0.191 A 
ATOM     10  S1  <0> d          -3.811  -1.324  -1.154  0.00  0.00    -0.021 SA
ATOM     11  C6  <0> d          -4.914  -1.227   0.247  0.00  0.00     0.171 A 
ATOM     12  N4  <0> d          -4.109  -0.750   1.178  0.00  0.00    -0.132 NA
ATOM     13  S2  <0> d          -6.621  -1.648   0.355  0.00  0.00    -0.021 SA
ATOM     14  N3  <0> d          -2.793  -0.488   0.876  0.00  0.00    -0.123 NA
ENDBRANCH   7   9
ENDBRANCH   5   7
BRANCH   3  15
ATOM     15  C7  <0> d           3.518   0.744  -0.622  0.00  0.00     0.188 A 
ATOM     16  C9  <0> d           4.293  -0.301  -1.427  0.00  0.00     0.035 A 
ATOM     17  C8  <0> d           4.487   1.188  -1.720  0.00  0.00     0.035 A 
ENDBRANCH   3  15
TORSDOF 3
