REMARK  5 active torsions:
REMARK  status: ('A' for Active; 'I' for Inactive)
REMARK    1  A    between atoms: C2_2  and  N1_3 
REMARK    2  A    between atoms: N1_3  and  S1_4 
REMARK    3  A    between atoms: S1_4  and  C3_7 
REMARK    4  A    between atoms: C6_10  and  C9_13 
REMARK       I    between atoms: C9_13  and  N2_15 
REMARK    5  A    between atoms: N2_15  and  C10_16 
ROOT
ATOM      1  C9  <0> d          -1.846   4.787  -5.166  0.00  0.00     0.256 C 
ATOM      2  O3  <0> d          -2.359   4.263  -6.136  0.00  0.00    -0.267 OA
ATOM      3  N2  <0> d          -1.373   6.046  -5.251  0.00  0.00    -0.321 N 
ATOM      4  H11 <0> d          -1.037   6.492  -4.459  0.00  0.00     0.169 HD
ENDROOT
BRANCH   1   5
ATOM      5  C6  <0> d          -1.739   4.042  -3.894  0.00  0.00     0.032 A 
ATOM      6  C5  <0> d          -1.149   4.639  -2.779  0.00  0.00     0.018 A 
ATOM      7  C4  <0> d          -1.057   3.940  -1.594  0.00  0.00     0.026 A 
ATOM      8  C3  <0> d          -1.538   2.645  -1.511  0.00  0.00     0.079 A 
ATOM      9  C8  <0> d          -2.123   2.047  -2.613  0.00  0.00     0.026 A 
ATOM     10  C7  <0> d          -2.227   2.737  -3.803  0.00  0.00     0.018 A 
BRANCH   8  11
ATOM     11  S1  <0> d          -1.410   1.757   0.005  0.00  0.00     0.258 S 
ATOM     12  O1  <0> d          -2.428   0.766  -0.018  0.00  0.00    -0.201 OA
ATOM     13  O2  <0> d          -1.316   2.728   1.038  0.00  0.00    -0.201 OA
BRANCH  11  14
ATOM     14  N1  <0> d           0.036   0.951  -0.020  0.00  0.00    -0.316 N 
ATOM     15  H6  <0> d           0.051  -0.019  -0.028  0.00  0.00     0.172 HD
BRANCH  14  16
ATOM     16  C2  <0> d           1.294   1.702  -0.035  0.00  0.00     0.128 C 
ATOM     17  C1  <0> d           2.452   0.765   0.310  0.00  0.00     0.027 C 
ENDBRANCH  14  16
ENDBRANCH  11  14
ENDBRANCH   8  11
ENDBRANCH   1   5
BRANCH   3  18
ATOM     18  C10 <0> d          -1.369   6.708  -6.480  0.00  0.00     0.064 A 
ATOM     19  C15 <0> d          -1.396   8.119  -6.528  0.00  0.00     0.093 A 
ATOM     20  C14 <0> d          -1.387   8.765  -7.789  0.00  0.00    -0.005 A 
ATOM     21  N3  <0> d          -1.427   8.846  -5.408  0.00  0.00    -0.258 NA
ATOM     22  C13 <0> d          -1.360   7.998  -8.964  0.00  0.00     0.014 A 
ATOM     23  C18 <0> d          -1.409  10.172  -7.834  0.00  0.00     0.015 A 
ATOM     24  C12 <0> d          -1.339   6.638  -8.887  0.00  0.00     0.003 A 
ATOM     25  C11 <0> d          -1.343   5.990  -7.656  0.00  0.00     0.032 A 
ATOM     26  C17 <0> d          -1.451  10.854  -6.652  0.00  0.00     0.020 A 
ATOM     27  C16 <0> d          -1.454  10.156  -5.446  0.00  0.00     0.117 A 
ENDBRANCH   3  18
TORSDOF 5
