REMARK  7 active torsions:
REMARK  status: ('A' for Active; 'I' for Inactive)
REMARK    1  A    between atoms: C5_5  and  C8_8 
REMARK    2  A    between atoms: C8_8  and  N1_9 
REMARK    3  A    between atoms: N2_12  and  C13_15 
REMARK    4  A    between atoms: C13_15  and  C14_16 
REMARK    5  A    between atoms: C17_22  and  N5_24 
REMARK    6  A    between atoms: N6_27  and  C22_30 
REMARK    7  A    between atoms: C22_30  and  C23_31 
ROOT
ATOM      1  C14 <0> d           5.153  -8.309  -1.230  0.00  0.00     0.087 A 
ATOM      2  C15 <0> d           5.437  -8.896  -2.428  0.00  0.00     0.104 A 
ATOM      3  C16 <0> d           5.204 -10.274  -2.582  0.00  0.00     0.261 A 
ATOM      4  O1  <0> d           5.447 -10.832  -3.640  0.00  0.00    -0.268 OA
ATOM      5  N3  <0> d           4.706 -10.969  -1.537  0.00  0.00    -0.154 N 
ATOM      6  H1  <0> d           4.537 -11.920  -1.621  0.00  0.00     0.187 HD
ATOM      7  C17 <0> d           4.441 -10.329  -0.365  0.00  0.00     0.705 A 
ATOM      8  N4  <0> d           4.667  -9.038  -0.227  0.00  0.00    -0.067 NA
ENDROOT
BRANCH   1   9
ATOM      9  C13 <0> d           5.394  -6.834  -1.038  0.00  0.00     0.332 C 
BRANCH   9  10
ATOM     10  N2  <0> d           4.112  -6.153  -0.815  0.00  0.00     0.097 N 
ATOM     11  C10 <0> d           4.276  -4.693  -0.860  0.00  0.00     0.300 C 
ATOM     12  C9  <0> d           2.912  -4.023  -0.683  0.00  0.00     0.265 C 
ATOM     13  N1  <0> d           2.331  -4.428   0.605  0.00  0.00    -0.064 N 
ATOM     14  C12 <0> d           2.150  -5.886   0.625  0.00  0.00     0.265 C 
ATOM     15  H35 <0> d           2.950  -4.156   1.353  0.00  0.00     0.280 HD
ATOM     16  C11 <0> d           3.509  -6.571   0.459  0.00  0.00     0.300 C 
BRANCH  13  17
ATOM     17  C8  <0> d           1.029  -3.771   0.782  0.00  0.00     0.273 C 
BRANCH  17  18
ATOM     18  C5  <0> d           1.229  -2.281   0.884  0.00  0.00    -0.033 A 
ATOM     19  C4  <0> d           1.206  -1.501  -0.257  0.00  0.00     0.009 A 
ATOM     20  C3  <0> d           1.388  -0.134  -0.163  0.00  0.00     0.007 A 
ATOM     21  C2  <0> d           1.592   0.454   1.071  0.00  0.00    -0.062 A 
ATOM     22  C1  <0> d           1.790   1.944   1.173  0.00  0.00     0.048 C 
ATOM     23  C7  <0> d           1.619  -0.327   2.212  0.00  0.00     0.007 A 
ATOM     24  C6  <0> d           1.433  -1.694   2.119  0.00  0.00     0.009 A 
ENDBRANCH  17  18
ENDBRANCH  13  17
ENDBRANCH   9  10
ENDBRANCH   1   9
BRANCH   7  25
ATOM     25  N5  <0> d           3.936 -11.041   0.690  0.00  0.00    -0.212 N 
ATOM     26  C21 <0> d           3.530 -10.364   1.931  0.00  0.00     0.171 C 
ATOM     27  C20 <0> d           4.194 -11.066   3.114  0.00  0.00     0.293 C 
ATOM     28  N6  <0> d           3.892 -12.503   3.061  0.00  0.00     0.095 N 
ATOM     29  C19 <0> d           4.450 -13.121   1.851  0.00  0.00     0.293 C 
ATOM     30  C18 <0> d           3.791 -12.502   0.614  0.00  0.00     0.171 C 
BRANCH  28  31
ATOM     31  C22 <0> d           4.371 -13.186   4.270  0.00  0.00     0.313 C 
BRANCH  31  32
ATOM     32  C23 <0> d           3.597 -12.693   5.466  0.00  0.00    -0.006 A 
ATOM     33  C26 <0> d           2.454 -13.210   5.950  0.00  0.00     0.150 A 
ATOM     34  O2  <0> d           2.083 -12.492   7.022  0.00  0.00    -0.334 OA
ATOM     35  C25 <0> d           2.973 -11.508   7.231  0.00  0.00     0.142 A 
ATOM     36  C24 <0> d           3.930 -11.593   6.290  0.00  0.00     0.035 A 
ENDBRANCH  31  32
ENDBRANCH  28  31
ENDBRANCH   7  25
TORSDOF 7
