REMARK  3 active torsions:
REMARK  status: ('A' for Active; 'I' for Inactive)
REMARK    1  A    between atoms: C2_2  and  C3_3 
REMARK    2  A    between atoms: N3_7  and  C5_8 
REMARK    3  A    between atoms: C5_8  and  C6_9 
ROOT
ATOM      1  C3  <0> d           0.707  -0.490  -1.238  0.00  0.00     0.128 A 
ATOM      2  N1  <0> d           1.224   0.263  -2.155  0.00  0.00    -0.159 NA
ATOM      3  N2  <0> d           1.784  -0.566  -3.136  0.00  0.00    -0.251 N 
ATOM      4  C4  <0> d           1.572  -1.842  -2.752  0.00  0.00     0.196 A 
ATOM      5  N3  <0> d           0.913  -1.805  -1.577  0.00  0.00    -0.303 N 
ATOM      6  S2  <0> d           2.058  -3.249  -3.598  0.00  0.00    -0.039 SA
ATOM      7  H12 <0> d           2.240  -0.276  -3.942  0.00  0.00     0.191 HD
ENDROOT
BRANCH   5   8
ATOM      8  C5  <0> d           0.485  -2.969  -0.797  0.00  0.00     0.200 C 
BRANCH   8   9
ATOM      9  C6  <0> d          -0.899  -3.381  -1.227  0.00  0.00     0.093 A 
ATOM     10  S1  <0> d          -2.381  -2.866  -0.617  0.00  0.00    -0.083 SA
ATOM     11  C8  <0> d          -3.435  -3.835  -1.683  0.00  0.00     0.078 A 
ATOM     12  C7  <0> d          -2.506  -4.489  -2.426  0.00  0.00     0.038 A 
ATOM     13  N4  <0> d          -1.241  -4.231  -2.163  0.00  0.00    -0.249 NA
ATOM     14  C9  <0> d          -2.904  -5.466  -3.503  0.00  0.00     0.071 C 
ENDBRANCH   8   9
ENDBRANCH   5   8
BRANCH   1  15
ATOM     15  C2  <0> d           0.002  -0.004   0.002  0.00  0.00     0.076 C 
ATOM     16  C1  <0> d          -0.019   1.526   0.010  0.00  0.00     0.013 C 
ENDBRANCH   1  15
TORSDOF 3
