REMARK  5 active torsions:
REMARK  status: ('A' for Active; 'I' for Inactive)
REMARK    1  A    between atoms: C5_7  and  N5_11 
REMARK    2  A    between atoms: N5_11  and  C7_12 
REMARK    3  A    between atoms: C7_12  and  C8_13 
REMARK    4  A    between atoms: C8_13  and  C9_14 
REMARK    5  A    between atoms: C8_13  and  N6_19 
ROOT
ATOM      1  C7  <0> d          -0.027  -5.494  -2.120  0.00  0.00     0.160 C 
ENDROOT
BRANCH   1   2
ATOM      2  N5  <0> d          -1.178  -5.451  -3.026  0.00  0.00    -0.372 N 
ATOM      3  H7  <0> d          -1.722  -6.243  -3.156  0.00  0.00     0.161 HD
BRANCH   2   4
ATOM      4  C5  <0> d          -1.486  -4.283  -3.695  0.00  0.00     0.140 A 
ATOM      5  C3  <0> d          -2.588  -4.222  -4.570  0.00  0.00     0.076 A 
ATOM      6  C2  <0> d          -2.854  -3.003  -5.224  0.00  0.00     0.162 A 
ATOM      7  C4  <0> d          -3.571  -5.142  -4.994  0.00  0.00     0.158 A 
ATOM      8  N1  <0> d          -3.955  -3.212  -6.000  0.00  0.00    -0.256 N 
ATOM      9  N4  <0> d          -2.058  -1.961  -4.990  0.00  0.00    -0.222 NA
ATOM     10  C1  <0> d          -4.598  -2.217  -6.863  0.00  0.00     0.182 C 
ATOM     11  N2  <0> d          -4.370  -4.538  -5.826  0.00  0.00    -0.182 NA
ATOM     12  C6  <0> d          -1.040  -2.067  -4.164  0.00  0.00     0.237 A 
ATOM     13  N3  <0> d          -0.751  -3.188  -3.528  0.00  0.00    -0.224 NA
ENDBRANCH   2   4
ENDBRANCH   1   2
BRANCH   1  14
ATOM     14  C8  <0> d           0.028  -6.859  -1.431  0.00  0.00     0.245 C 
BRANCH  14  15
ATOM     15  C9  <0> d           0.303  -7.928  -2.457  0.00  0.00     0.015 A 
ATOM     16  S1  <0> d           1.856  -8.403  -3.198  0.00  0.00    -0.104 SA
ATOM     17  C12 <0> d           1.243  -9.704  -4.255  0.00  0.00     0.050 A 
ATOM     18  C11 <0> d          -0.085  -9.685  -3.982  0.00  0.00     0.008 A 
ATOM     19  C10 <0> d          -0.567  -8.775  -3.061  0.00  0.00     0.017 A 
ENDBRANCH  14  15
BRANCH  14  20
ATOM     20  N6  <0> d           1.101  -6.857  -0.427  0.00  0.00    -0.061 N 
ATOM     21  C16 <0> d           1.153  -8.163   0.265  0.00  0.00     0.236 C 
ATOM     22  C15 <0> d           1.533  -7.883   1.731  0.00  0.00     0.029 C 
ATOM     23  C14 <0> d           1.659  -6.345   1.829  0.00  0.00     0.029 C 
ATOM     24  C13 <0> d           0.813  -5.852   0.628  0.00  0.00     0.236 C 
ATOM     25  H21 <0> d           1.988  -6.659  -0.865  0.00  0.00     0.280 HD
ENDBRANCH  14  20
ENDBRANCH   1  14
TORSDOF 5
