REMARK  6 active torsions:
REMARK  status: ('A' for Active; 'I' for Inactive)
REMARK    1  A    between atoms: C3_3  and  C8_11 
REMARK    2  A    between atoms: C4_5  and  C5_6 
REMARK    3  A    between atoms: C5_6  and  C6_7 
REMARK    4  A    between atoms: C6_7  and  C7_8 
REMARK    5  A    between atoms: C6_7  and  N1_10 
REMARK    6  A    between atoms: C7_8  and  O1_9 
ROOT
ATOM      1  C1  <0> d          -0.016   1.353   0.009  0.00  0.00     0.016 A 
ATOM      2  C2  <0> d           1.177   2.041   0.002  0.00  0.00     0.021 A 
ATOM      3  C3  <0> d           2.348   1.327  -0.013  0.00  0.00     0.022 A 
ATOM      4  S1  <0> d           1.752  -0.356  -0.017  0.00  0.00    -0.093 SA
ATOM      5  C4  <0> d           0.002  -0.004   0.002  0.00  0.00    -0.015 A 
ENDROOT
BRANCH   5   6
ATOM      6  C5  <0> d          -1.157  -0.967   0.008  0.00  0.00     0.081 C 
BRANCH   6   7
ATOM      7  C6  <0> d          -1.564  -1.285  -1.432  0.00  0.00     0.211 C 
BRANCH   7   8
ATOM      8  C7  <0> d          -2.657  -2.356  -1.429  0.00  0.00     0.197 C 
BRANCH   8   9
ATOM      9  O1  <0> d          -2.954  -2.737  -2.773  0.00  0.00    -0.399 OA
ATOM     10  H8  <0> d          -3.640  -3.414  -2.848  0.00  0.00     0.209 HD
ENDBRANCH   8   9
ENDBRANCH   7   8
BRANCH   7  11
ATOM     11  N1  <0> d          -2.073  -0.068  -2.077  0.00  0.00    -0.073 N 
ATOM     12  H9  <0> d          -2.876   0.272  -1.568  0.00  0.00     0.274 HD
ATOM     13  H10 <0> d          -1.353   0.639  -2.079  0.00  0.00     0.274 HD
ATOM     14  H13 <0> d          -2.341  -0.277  -3.027  0.00  0.00     0.274 HD
ENDBRANCH   7  11
ENDBRANCH   6   7
ENDBRANCH   5   6
BRANCH   3  15
ATOM     15  C8  <0> d           3.736   1.820  -0.025  0.00  0.00     0.023 A 
ATOM     16  S2  <0> d           4.332   3.503  -0.023  0.00  0.00    -0.082 SA
ATOM     17  C11 <0> d           6.082   3.152  -0.039  0.00  0.00     0.052 A 
ATOM     18  C10 <0> d           6.101   1.794  -0.052  0.00  0.00     0.028 A 
ATOM     19 Br1  <0> d           7.537   4.360  -0.043  0.00  0.00    -0.043 Br
ATOM     20  C9  <0> d           4.906   1.106  -0.045  0.00  0.00     0.022 A 
ENDBRANCH   3  15
TORSDOF 6
