REMARK  3 active torsions:
REMARK  status: ('A' for Active; 'I' for Inactive)
REMARK    1  A    between atoms: C4_6  and  C7_10 
REMARK    2  A    between atoms: C7_10  and  N4_11 
REMARK    3  A    between atoms: C10_14  and  C13_17 
ROOT
ATOM      1  N4  <0> d           4.069  -3.858  -1.387  0.00  0.00    -0.066 N 
ATOM      2  C8  <0> d           4.764  -2.713  -1.987  0.00  0.00     0.235 C 
ATOM      3  C9  <0> d           5.064  -3.007  -3.458  0.00  0.00     0.034 C 
ATOM      4  C10 <0> d           5.950  -4.252  -3.554  0.00  0.00     0.019 C 
ATOM      5  C11 <0> d           5.248  -5.422  -2.859  0.00  0.00     0.034 C 
ATOM      6  C12 <0> d           4.941  -5.038  -1.410  0.00  0.00     0.235 C 
ATOM      7  H25 <0> d           3.229  -4.051  -1.911  0.00  0.00     0.280 HD
ENDROOT
BRANCH   1   8
ATOM      8  C7  <0> d           3.715  -3.540   0.003  0.00  0.00     0.296 C 
BRANCH   8   9
ATOM      9  C4  <0> d           2.722  -2.406   0.022  0.00  0.00     0.096 A 
ATOM     10  N2  <0> d           3.025  -1.105  -0.019  0.00  0.00    -0.064 NA
ATOM     11  C3  <0> d           1.906  -0.395   0.014  0.00  0.00     0.732 A 
ATOM     12  N1  <0> d           1.683   0.927  -0.005  0.00  0.00    -0.074 NA
ATOM     13  N3  <0> d           0.854  -1.272   0.077  0.00  0.00    -0.163 N 
ATOM     14  C2  <0> d           0.461   1.405   0.036  0.00  0.00     0.138 A 
ATOM     15  C1  <0> d          -0.638   0.537   0.101  0.00  0.00     0.038 A 
ATOM     16  C6  <0> d          -0.427  -0.802   0.121  0.00  0.00     0.116 A 
ATOM     17  C5  <0> d           1.380  -2.535   0.081  0.00  0.00     0.144 A 
ENDBRANCH   8   9
ENDBRANCH   1   8
BRANCH   4  18
ATOM     18  C13 <0> d           6.189  -4.599  -5.025  0.00  0.00     0.190 C 
ATOM     19  N5  <0> d           6.931  -3.508  -5.683  0.00  0.00    -0.070 N 
ATOM     20  C16 <0> d           8.224  -4.048  -6.165  0.00  0.00     0.233 C 
ATOM     21  H23 <0> d           6.396  -3.155  -6.463  0.00  0.00     0.277 HD
ATOM     22  H24 <0> d           7.098  -2.764  -5.023  0.00  0.00     0.277 HD
ATOM     23  C15 <0> d           7.980  -5.568  -6.336  0.00  0.00     0.029 C 
ATOM     24  C14 <0> d           7.052  -5.873  -5.131  0.00  0.00     0.035 C 
ENDBRANCH   4  18
TORSDOF 3
