REMARK  5 active torsions:
REMARK  status: ('A' for Active; 'I' for Inactive)
REMARK    1  A    between atoms: C7_9  and  C8_11 
REMARK    2  A    between atoms: C13_16  and  C14_17 
REMARK    3  A    between atoms: C13_16  and  N7_28 
REMARK    4  A    between atoms: N6_21  and  C15_22 
REMARK    5  A    between atoms: C15_22  and  C16_23 
ROOT
ATOM      1  C8  <0> d           2.190   6.684   0.017  0.00  0.00     0.058 C 
ATOM      2  C9  <0> d           3.469   6.599  -0.820  0.00  0.00     0.040 C 
ATOM      3  C10 <0> d           4.199   7.942  -0.765  0.00  0.00     0.236 C 
ATOM      4  C11 <0> d           3.309   8.402   1.442  0.00  0.00     0.236 C 
ATOM      5  C12 <0> d           2.553   7.072   1.453  0.00  0.00     0.040 C 
ATOM      6  N7  <0> d           4.542   8.246   0.641  0.00  0.00    -0.064 N 
ATOM      7  H22 <0> d           5.092   7.469   1.025  0.00  0.00     0.280 HD
ENDROOT
BRANCH   6   8
ATOM      8  C13 <0> d           5.347   9.483   0.708  0.00  0.00     0.316 C 
BRANCH   8   9
ATOM      9  C14 <0> d           6.449   9.411  -0.317  0.00  0.00     0.174 A 
ATOM     10  N6  <0> d           6.396   9.853  -1.587  0.00  0.00    -0.228 N 
ATOM     11  N5  <0> d           7.542   9.604  -2.125  0.00  0.00    -0.044 NA
ATOM     12  N4  <0> d           8.295   9.032  -1.251  0.00  0.00    -0.023 NA
ATOM     13  N3  <0> d           7.648   8.911  -0.143  0.00  0.00    -0.112 NA
BRANCH  10  14
ATOM     14  C15 <0> d           5.251  10.497  -2.237  0.00  0.00     0.200 C 
BRANCH  14  15
ATOM     15  C16 <0> d           5.333  11.988  -2.037  0.00  0.00     0.002 A 
ATOM     16  S1  <0> d           4.657  12.985  -0.720  0.00  0.00    -0.105 SA
ATOM     17  C19 <0> d           5.229  14.577  -1.289  0.00  0.00     0.050 A 
ATOM     18  C18 <0> d           5.882  14.249  -2.430  0.00  0.00     0.008 A 
ATOM     19  C17 <0> d           5.935  12.922  -2.814  0.00  0.00     0.017 A 
ENDBRANCH  14  15
ENDBRANCH  10  14
ENDBRANCH   8   9
ENDBRANCH   6   8
BRANCH   1  20
ATOM     20  C7  <0> d           1.498   5.345   0.017  0.00  0.00     0.109 A 
ATOM     21  N1  <0> d           2.130   4.141   0.004  0.00  0.00    -0.342 N 
ATOM     22  C5  <0> d           1.154   3.165   0.008  0.00  0.00     0.062 A 
ATOM     23  H1  <0> d           3.118   3.991  -0.006  0.00  0.00     0.167 HD
ATOM     24  C4  <0> d          -0.075   3.845   0.023  0.00  0.00     0.085 A 
ATOM     25  C6  <0> d           1.175   1.777   0.000  0.00  0.00     0.032 A 
ATOM     26  C3  <0> d          -1.266   3.114   0.031  0.00  0.00     0.034 A 
ATOM     27  N2  <0> d           0.208   5.173   0.028  0.00  0.00    -0.233 NA
ATOM     28  C2  <0> d          -1.226   1.748   0.017  0.00  0.00     0.002 A 
ATOM     29  C1  <0> d          -0.013   1.076   0.008  0.00  0.00     0.002 A 
ENDBRANCH   1  20
TORSDOF 5
