REMARK  8 active torsions:
REMARK  status: ('A' for Active; 'I' for Inactive)
REMARK    1  A    between atoms: N1_2  and  C2_3 
REMARK    2  A    between atoms: N1_2  and  C10_13 
REMARK    3  A    between atoms: C7_8  and  C8_9 
REMARK    4  A    between atoms: C8_9  and  O2_11 
REMARK    5  A    between atoms: C11_14  and  N5_30 
REMARK    6  A    between atoms: C12_15  and  N4_19 
REMARK    7  A    between atoms: N4_19  and  C14_20 
REMARK    8  A    between atoms: C17_23  and  C20_26 
ROOT
ATOM      1  C10 <0> d          -1.266  -0.390  -1.489  0.00  0.00     0.161 A 
ATOM      2  C11 <0> d          -0.700   0.298  -2.564  0.00  0.00     0.117 A 
ATOM      3  C12 <0> d          -0.458  -0.408  -3.744  0.00  0.00     0.137 A 
ATOM      4  N2  <0> d          -0.773  -1.700  -3.799  0.00  0.00    -0.335 N 
ATOM      5  C13 <0> d          -1.306  -2.311  -2.761  0.00  0.00     0.211 A 
ATOM      6  N3  <0> d          -1.546  -1.684  -1.627  0.00  0.00    -0.224 NA
ATOM      7  H19 <0> d          -0.609  -2.198  -4.615  0.00  0.00     0.168 HD
ENDROOT
BRANCH   1   8
ATOM      8  N1  <0> d          -1.528   0.265  -0.290  0.00  0.00    -0.333 N 
ATOM      9  C1  <0> d          -0.470   0.410   0.712  0.00  0.00     0.158 C 
BRANCH   8  10
ATOM     10  C2  <0> d          -2.794   0.782  -0.044  0.00  0.00     0.052 A 
ATOM     11  C7  <0> d          -3.769  -0.009   0.585  0.00  0.00     0.066 A 
ATOM     12  C6  <0> d          -5.037   0.526   0.832  0.00  0.00     0.020 A 
ATOM     13  C5  <0> d          -5.324   1.817   0.449  0.00  0.00     0.001 A 
ATOM     14  C4  <0> d          -4.361   2.594  -0.176  0.00  0.00     0.002 A 
ATOM     15  C3  <0> d          -3.104   2.083  -0.423  0.00  0.00     0.031 A 
BRANCH  11  16
ATOM     16  C8  <0> d          -3.457  -1.391   0.986  0.00  0.00     0.295 C 
ATOM     17  O1  <0> d          -2.352  -1.851   0.773  0.00  0.00    -0.259 OA
BRANCH  16  18
ATOM     18  O2  <0> d          -4.396  -2.146   1.589  0.00  0.00    -0.322 OA
ATOM     19  C9  <0> d          -4.024  -3.478   1.951  0.00  0.00     0.213 C 
ENDBRANCH  16  18
ENDBRANCH  11  16
ENDBRANCH   8  10
ENDBRANCH   1   8
BRANCH   2  20
ATOM     20  N5  <0> d          -0.384   1.662  -2.462  0.00  0.00    -0.393 N 
ATOM     21  H17 <0> d          -0.476   2.118  -1.611  0.00  0.00     0.156 HD
ATOM     22  H18 <0> d          -0.074   2.148  -3.242  0.00  0.00     0.156 HD
ENDBRANCH   2  20
BRANCH   3  23
ATOM     23  N4  <0> d           0.103   0.229  -4.845  0.00  0.00    -0.341 N 
ATOM     24  H12 <0> d           0.417   1.144  -4.769  0.00  0.00     0.167 HD
BRANCH  23  25
ATOM     25  C14 <0> d           0.216  -0.448  -6.062  0.00  0.00     0.033 A 
ATOM     26  C19 <0> d           1.358  -0.299  -6.839  0.00  0.00     0.030 A 
ATOM     27  C18 <0> d           1.469  -0.976  -8.038  0.00  0.00     0.018 A 
ATOM     28  C17 <0> d           0.439  -1.790  -8.472  0.00  0.00     0.048 A 
ATOM     29  C16 <0> d          -0.702  -1.936  -7.704  0.00  0.00     0.018 A 
ATOM     30  C15 <0> d          -0.816  -1.268  -6.501  0.00  0.00     0.030 A 
BRANCH  28  31
ATOM     31  C20 <0> d           0.561  -2.521  -9.784  0.00  0.00     0.417 C 
ATOM     32  F1  <0> d           0.049  -1.722 -10.812  0.00  0.00    -0.166 F 
ATOM     33  F2  <0> d           1.907  -2.802 -10.039  0.00  0.00    -0.166 F 
ATOM     34  F3  <0> d          -0.161  -3.718  -9.720  0.00  0.00    -0.166 F 
ENDBRANCH  28  31
ENDBRANCH  23  25
ENDBRANCH   3  23
TORSDOF 8
