REMARK  6 active torsions:
REMARK  status: ('A' for Active; 'I' for Inactive)
REMARK    1  A    between atoms: C2_2  and  N1_3 
REMARK    2  A    between atoms: C5_6  and  C7_8 
REMARK    3  A    between atoms: C7_8  and  N2_9 
REMARK    4  A    between atoms: N2_9  and  S1_10 
REMARK    5  A    between atoms: S1_10  and  C8_13 
REMARK    6  A    between atoms: C11_16  and  N3_20 
ROOT
ATOM      1  S1  <0> d          -5.604  -4.993  -0.091  0.00  0.00     0.260 S 
ATOM      2  O1  <0> d          -6.498  -5.468  -1.087  0.00  0.00    -0.200 OA
ATOM      3  O2  <0> d          -4.641  -5.832   0.532  0.00  0.00    -0.200 OA
ENDROOT
BRANCH   1   4
ATOM      4  N2  <0> d          -4.767  -3.735  -0.768  0.00  0.00    -0.315 N 
ATOM      5  H15 <0> d          -4.931  -3.483  -1.691  0.00  0.00     0.172 HD
BRANCH   4   6
ATOM      6  C7  <0> d          -3.778  -3.001   0.025  0.00  0.00     0.138 C 
BRANCH   6   7
ATOM      7  C5  <0> d          -2.890  -2.172  -0.905  0.00  0.00     0.031 C 
ATOM      8  C4  <0> d          -3.719  -1.056  -1.582  0.00  0.00     0.035 C 
ATOM      9  C3  <0> d          -2.742   0.147  -1.585  0.00  0.00     0.235 C 
ATOM     10  N1  <0> d          -2.035   0.015  -0.286  0.00  0.00    -0.071 N 
ATOM     11  C6  <0> d          -1.807  -1.435  -0.097  0.00  0.00     0.241 C 
ATOM     12  H21 <0> d          -2.608   0.377   0.462  0.00  0.00     0.279 HD
BRANCH  10  13
ATOM     13  C2  <0> d          -0.752   0.728  -0.332  0.00  0.00     0.230 C 
ATOM     14  C1  <0> d          -1.008   2.235  -0.402  0.00  0.00     0.034 C 
ENDBRANCH  10  13
ENDBRANCH   6   7
ENDBRANCH   4   6
ENDBRANCH   1   4
BRANCH   1  15
ATOM     15  C8  <0> d          -6.598  -4.322   1.200  0.00  0.00     0.097 A 
ATOM     16  C13 <0> d          -7.602  -3.420   0.900  0.00  0.00     0.036 A 
ATOM     17  C12 <0> d          -8.387  -2.896   1.910  0.00  0.00     0.049 A 
ATOM     18 Br1  <0> d          -7.907  -2.907  -0.895  0.00  0.00    -0.049 Br
ATOM     19  C11 <0> d          -8.159  -3.269   3.228  0.00  0.00     0.027 A 
ATOM     20  C10 <0> d          -7.146  -4.172   3.526  0.00  0.00     0.030 A 
ATOM     21  C9  <0> d          -6.368  -4.695   2.512  0.00  0.00     0.029 A 
BRANCH  19  22
ATOM     22  N3  <0> d          -8.947  -2.739   4.252  0.00  0.00    -0.399 N 
ATOM     23  H19 <0> d          -8.787  -3.000   5.172  0.00  0.00     0.156 HD
ATOM     24  H20 <0> d          -9.655  -2.109   4.043  0.00  0.00     0.156 HD
ENDBRANCH  19  22
ENDBRANCH   1  15
TORSDOF 6
