REMARK  5 active torsions:
REMARK  status: ('A' for Active; 'I' for Inactive)
REMARK    1  A    between atoms: C7_7  and  C8_8 
REMARK    2  A    between atoms: C7_7  and  N3_22 
REMARK    3  A    between atoms: C8_8  and  C9_9 
REMARK    4  A    between atoms: C9_9  and  N1_10 
REMARK       I    between atoms: N1_10  and  C10_11 
REMARK    5  A    between atoms: C10_11  and  C11_13 
ROOT
ATOM      1  N1  <0> d          -7.136   2.912  -1.853  0.00  0.00    -0.356 N 
ATOM      2  C10 <0> d          -8.475   2.856  -1.998  0.00  0.00     0.268 C 
ATOM      3  O1  <0> d          -9.130   2.088  -1.318  0.00  0.00    -0.266 OA
ATOM      4  H20 <0> d          -6.615   3.525  -2.396  0.00  0.00     0.162 HD
ENDROOT
BRANCH   1   5
ATOM      5  C9  <0> d          -6.469   2.049  -0.876  0.00  0.00     0.124 C 
BRANCH   5   6
ATOM      6  C8  <0> d          -4.962   2.308  -0.912  0.00  0.00     0.047 C 
BRANCH   6   7
ATOM      7  C7  <0> d          -4.264   1.407   0.109  0.00  0.00     0.237 C 
BRANCH   7   8
ATOM      8  N3  <0> d          -2.814   1.686   0.075  0.00  0.00    -0.067 N 
ATOM      9  C2  <0> d          -2.158   1.093   1.260  0.00  0.00     0.184 C 
ATOM     10  C1  <0> d          -2.835   1.628   2.523  0.00  0.00     0.040 C 
ATOM     11  C3  <0> d          -0.680   1.495   1.264  0.00  0.00     0.033 C 
ATOM     12  C4  <0> d          -0.012   0.975  -0.012  0.00  0.00     0.004 C 
ATOM     13  C5  <0> d          -0.748   1.538  -1.231  0.00  0.00     0.028 C 
ATOM     14  C6  <0> d          -2.222   1.134  -1.162  0.00  0.00     0.235 C 
ATOM     15  H22 <0> d          -2.670   2.702   0.089  0.00  0.00     0.280 HD
ENDBRANCH   7   8
ENDBRANCH   6   7
ENDBRANCH   5   6
ENDBRANCH   1   5
BRANCH   2  16
ATOM     16  C11 <0> d          -9.143   3.720  -2.976  0.00  0.00     0.102 A 
ATOM     17  N2  <0> d          -8.532   4.632  -3.809  0.00  0.00    -0.345 N 
ATOM     18  C14 <0> d          -9.483   5.234  -4.564  0.00  0.00     0.098 A 
ATOM     19  H2  <0> d          -7.579   4.812  -3.849  0.00  0.00     0.167 HD
ATOM     20  C13 <0> d         -10.695   4.725  -4.230  0.00  0.00     0.047 A 
ATOM     21 Br1  <0> d          -9.172   6.567  -5.869  0.00  0.00    -0.030 Br
ATOM     22  C12 <0> d         -10.497   3.764  -3.234  0.00  0.00     0.057 A 
ATOM     23 Br2  <0> d         -12.357   5.220  -4.984  0.00  0.00    -0.048 Br
ENDBRANCH   2  16
TORSDOF 5
