REMARK  2 active torsions:
REMARK  status: ('A' for Active; 'I' for Inactive)
REMARK    1  A    between atoms: C6_6  and  N1_8 
REMARK    2  A    between atoms: C10_12  and  C12_15 
ROOT
ATOM      1  N1  <0> d          -0.006  -2.788   2.393  0.00  0.00    -0.325 N 
ATOM      2  C8  <0> d           0.010  -4.250   2.533  0.00  0.00     0.215 A 
ATOM      3  C9  <0> d           0.095  -4.500   4.024  0.00  0.00     0.185 A 
ATOM      4  O1  <0> d           0.132  -5.577   4.587  0.00  0.00    -0.290 OA
ATOM      5  C10 <0> d           0.120  -3.228   4.623  0.00  0.00     0.101 A 
ATOM      6  C11 <0> d           0.065  -2.245   3.639  0.00  0.00     0.119 A 
ATOM      7  N2  <0> d           0.078  -0.904   3.892  0.00  0.00    -0.384 N 
ATOM      8  H10 <0> d          -0.042  -0.273   3.165  0.00  0.00     0.157 HD
ATOM      9  H11 <0> d           0.206  -0.583   4.798  0.00  0.00     0.157 HD
ENDROOT
BRANCH   5  10
ATOM     10  C12 <0> d           0.198  -2.975   6.071  0.00  0.00     0.148 A 
ATOM     11  N4  <0> d          -0.710  -3.413   6.999  0.00  0.00    -0.333 N 
ATOM     12  C18 <0> d          -0.276  -2.970   8.237  0.00  0.00     0.064 A 
ATOM     13  C19 <0> d          -1.912  -4.206   6.731  0.00  0.00     0.158 C 
ATOM     14  C13 <0> d           0.908  -2.251   8.004  0.00  0.00     0.086 A 
ATOM     15  C17 <0> d          -0.766  -3.099   9.528  0.00  0.00     0.032 A 
ATOM     16  N3  <0> d           1.146  -2.289   6.669  0.00  0.00    -0.228 NA
ATOM     17  C14 <0> d           1.584  -1.671   9.082  0.00  0.00     0.034 A 
ATOM     18  C15 <0> d           1.083  -1.809  10.357  0.00  0.00     0.002 A 
ATOM     19  C16 <0> d          -0.087  -2.520  10.581  0.00  0.00     0.002 A 
ENDBRANCH   5  10
BRANCH   1  20
ATOM     20  C6  <0> d          -0.077  -2.078   1.190  0.00  0.00     0.036 A 
ATOM     21  C5  <0> d          -1.227  -2.137   0.414  0.00  0.00     0.029 A 
ATOM     22  C4  <0> d          -1.293  -1.434  -0.773  0.00  0.00     0.003 A 
ATOM     23  C3  <0> d          -0.217  -0.673  -1.189  0.00  0.00     0.007 A 
ATOM     24  C2  <0> d           0.930  -0.613  -0.419  0.00  0.00    -0.060 A 
ATOM     25  C1  <0> d           2.102   0.218  -0.876  0.00  0.00     0.048 C 
ATOM     26  C7  <0> d           1.006  -1.317   0.766  0.00  0.00     0.036 A 
ENDBRANCH   1  20
TORSDOF 2
