REMARK  6 active torsions:
REMARK  status: ('A' for Active; 'I' for Inactive)
REMARK    1  A    between atoms: C6_6  and  N1_9 
REMARK       I    between atoms: N1_9  and  C9_10 
REMARK    2  A    between atoms: C9_10  and  C10_12 
REMARK       I    between atoms: C10_12  and  N2_14 
REMARK    3  A    between atoms: N2_14  and  C11_15 
REMARK    4  A    between atoms: C11_15  and  C12_16 
REMARK    5  A    between atoms: C12_16  and  C13_17 
REMARK    6  A    between atoms: C12_16  and  N4_34 
ROOT
ATOM      1  C12 <0> d          -2.643   8.262  -0.333  0.00  0.00     0.255 C 
ENDROOT
BRANCH   1   2
ATOM      2  C11 <0> d          -1.455   7.301  -0.255  0.00  0.00     0.162 C 
BRANCH   2   3
ATOM      3  N2  <0> d          -1.919   5.989   0.204  0.00  0.00    -0.351 N 
ATOM      4  C10 <0> d          -1.069   4.943   0.222  0.00  0.00     0.309 C 
ATOM      5  O2  <0> d           0.080   5.087  -0.142  0.00  0.00    -0.262 OA
ATOM      6  H12 <0> d          -2.837   5.873   0.496  0.00  0.00     0.162 HD
BRANCH   4   7
ATOM      7  C9  <0> d          -1.541   3.605   0.691  0.00  0.00     0.313 C 
ATOM      8  N1  <0> d          -0.692   2.559   0.708  0.00  0.00    -0.318 N 
ATOM      9  H11 <0> d           0.247   2.693   0.506  0.00  0.00     0.169 HD
ATOM     10  O1  <0> d          -2.690   3.461   1.055  0.00  0.00    -0.262 OA
BRANCH   8  11
ATOM     11  C6  <0> d          -1.164   1.281   1.019  0.00  0.00     0.041 A 
ATOM     12  C5  <0> d          -2.520   0.996   0.916  0.00  0.00     0.030 A 
ATOM     13  C4  <0> d          -2.983  -0.268   1.224  0.00  0.00     0.003 A 
ATOM     14  C3  <0> d          -2.099  -1.250   1.634  0.00  0.00     0.007 A 
ATOM     15  C2  <0> d          -0.748  -0.969   1.737  0.00  0.00    -0.054 A 
ATOM     16  C1  <0> d           0.211  -2.041   2.184  0.00  0.00     0.049 C 
ATOM     17  C7  <0> d          -0.279   0.293   1.431  0.00  0.00    -0.029 A 
ATOM     18  C8  <0> d           1.193   0.598   1.545  0.00  0.00     0.051 C 
ENDBRANCH   8  11
ENDBRANCH   4   7
ENDBRANCH   2   3
ENDBRANCH   1   2
BRANCH   1  19
ATOM     19  C13 <0> d          -2.149   9.644  -0.675  0.00  0.00     0.043 A 
ATOM     20  N3  <0> d          -1.254  10.375   0.050  0.00  0.00    -0.363 N 
ATOM     21  C16 <0> d          -1.057  11.570  -0.576  0.00  0.00     0.090 A 
ATOM     22  C17 <0> d          -0.612   9.947   1.294  0.00  0.00     0.155 C 
ATOM     23  C15 <0> d          -1.820  11.596  -1.688  0.00  0.00     0.019 A 
ATOM     24  C14 <0> d          -2.510  10.369  -1.753  0.00  0.00     0.029 A 
ENDBRANCH   1  19
BRANCH   1  25
ATOM     25  N4  <0> d          -3.593   7.819  -1.379  0.00  0.00    -0.056 N 
ATOM     26  C18 <0> d          -4.300   6.600  -0.937  0.00  0.00     0.241 C 
ATOM     27  C19 <0> d          -5.492   6.387  -1.871  0.00  0.00     0.067 C 
ATOM     28  C20 <0> d          -5.037   6.442  -3.307  0.00  0.00    -0.049 A 
ATOM     29  C25 <0> d          -3.820   6.985  -3.660  0.00  0.00    -0.026 A 
ATOM     30  C21 <0> d          -5.875   5.932  -4.287  0.00  0.00     0.007 A 
ATOM     31  C24 <0> d          -3.443   7.020  -4.995  0.00  0.00     0.009 A 
ATOM     32  C26 <0> d          -2.872   7.546  -2.633  0.00  0.00     0.275 C 
ATOM     33  C23 <0> d          -4.279   6.513  -5.969  0.00  0.00     0.001 A 
ATOM     34  C22 <0> d          -5.498   5.967  -5.614  0.00  0.00     0.001 A 
ATOM     35  H31 <0> d          -4.280   8.565  -1.543  0.00  0.00     0.281 HD
ENDBRANCH   1  25
TORSDOF 6
