REMARK  4 active torsions:
REMARK  status: ('A' for Active; 'I' for Inactive)
REMARK    1  A    between atoms: C2_2  and  C3_3 
REMARK    2  A    between atoms: C2_2  and  N3_20 
REMARK       I    between atoms: C3_3  and  N1_5 
REMARK    3  A    between atoms: N1_5  and  C4_6 
REMARK    4  A    between atoms: C6_8  and  N2_13 
ROOT
ATOM      1  C4  <0> d          -3.566  -0.649   0.953  0.00  0.00     0.075 A 
ATOM      2  C5  <0> d          -3.972  -1.454  -0.101  0.00  0.00     0.063 A 
ATOM      3  C6  <0> d          -5.290  -1.881  -0.177  0.00  0.00     0.047 A 
ATOM      4  C7  <0> d          -6.200  -1.500   0.801  0.00  0.00     0.033 A 
ATOM      5  C8  <0> d          -5.794  -0.698   1.851  0.00  0.00     0.047 A 
ATOM      6  C9  <0> d          -4.479  -0.275   1.933  0.00  0.00     0.143 A 
ATOM      7  F1  <0> d          -4.084   0.505   2.962  0.00  0.00    -0.204 F 
ENDROOT
BRANCH   1   8
ATOM      8  N1  <0> d          -2.236  -0.217   1.033  0.00  0.00    -0.323 N 
ATOM      9  C3  <0> d          -1.259  -0.929   0.438  0.00  0.00     0.245 C 
ATOM     10  O1  <0> d          -1.516  -1.995  -0.081  0.00  0.00    -0.271 OA
ATOM     11  H5  <0> d          -2.018   0.595   1.517  0.00  0.00     0.169 HD
BRANCH   9  12
ATOM     12  C2  <0> d           0.152  -0.402   0.417  0.00  0.00     0.178 C 
ATOM     13  C1  <0> d           0.183   0.945  -0.309  0.00  0.00     0.043 C 
BRANCH  12  14
ATOM     14  N3  <0> d           1.019  -1.353  -0.283  0.00  0.00    -0.338 N 
ATOM     15  C15 <0> d           2.095  -1.986   0.232  0.00  0.00     0.183 A 
ATOM     16  N4  <0> d           2.609  -2.754  -0.689  0.00  0.00    -0.361 N 
ATOM     17  C14 <0> d           1.892  -2.635  -1.816  0.00  0.00     0.106 A 
ATOM     18  H18 <0> d           3.389  -3.320  -0.577  0.00  0.00     0.166 HD
ATOM     19  C13 <0> d           0.892  -1.763  -1.583  0.00  0.00     0.109 A 
ENDBRANCH  12  14
ENDBRANCH   9  12
ENDBRANCH   1   8
BRANCH   3  20
ATOM     20  N2  <0> d          -5.703  -2.692  -1.238  0.00  0.00    -0.276 N 
ATOM     21  S1  <0> d          -6.993  -3.762  -1.249  0.00  0.00     0.233 S 
ATOM     22  C12 <0> d          -6.800  -4.520  -2.914  0.00  0.00     0.165 C 
ATOM     23  O2  <0> d          -6.710  -4.709  -0.228  0.00  0.00    -0.205 OA
ATOM     24  O3  <0> d          -8.159  -2.951  -1.199  0.00  0.00    -0.205 OA
ATOM     25  C11 <0> d          -5.300  -4.189  -3.177  0.00  0.00     0.038 C 
ATOM     26  C10 <0> d          -5.089  -2.787  -2.575  0.00  0.00     0.142 C 
ENDBRANCH   3  20
TORSDOF 4
