REMARK  6 active torsions:
REMARK  status: ('A' for Active; 'I' for Inactive)
REMARK    1  A    between atoms: C3_3  and  N4_21 
REMARK    2  A    between atoms: C6_6  and  C7_7 
REMARK    3  A    between atoms: C7_7  and  N1_8 
REMARK    4  A    between atoms: N1_8  and  C8_9 
REMARK    5  A    between atoms: C8_9  and  C9_10 
REMARK    6  A    between atoms: C12_13  and  N3_16 
ROOT
ATOM      1  N1  <0> d          -1.728  -1.016  -1.372  0.00  0.00     0.091 N 
ATOM      2  H7  <0> d          -1.809  -0.150  -1.883  0.00  0.00     0.316 HD
ENDROOT
BRANCH   1   3
ATOM      3  C7  <0> d          -1.294  -0.774   0.010  0.00  0.00     0.308 C 
BRANCH   3   4
ATOM      4  C6  <0> d           0.002  -0.004   0.002  0.00  0.00    -0.030 A 
ATOM      5  C1  <0> d          -0.017   1.379   0.010  0.00  0.00     0.011 A 
ATOM      6  C2  <0> d           1.169   2.087   0.002  0.00  0.00     0.030 A 
ATOM      7  C3  <0> d           2.381   1.409  -0.013  0.00  0.00     0.039 A 
ATOM      8  C4  <0> d           2.396   0.021  -0.021  0.00  0.00     0.030 A 
ATOM      9  C5  <0> d           1.207  -0.682  -0.013  0.00  0.00     0.011 A 
BRANCH   7  10
ATOM     10  N4  <0> d           3.586   2.125  -0.021  0.00  0.00    -0.315 N 
ATOM     11  C20 <0> d           3.723   3.477  -0.016  0.00  0.00     0.214 A 
ATOM     12  N5  <0> d           4.995   3.766  -0.024  0.00  0.00    -0.254 NA
ATOM     13  C19 <0> d           5.709   2.631  -0.043  0.00  0.00     0.135 A 
ATOM     14  C18 <0> d           4.850   1.594  -0.042  0.00  0.00     0.117 A 
ENDBRANCH   7  10
ENDBRANCH   3   4
ENDBRANCH   1   3
BRANCH   1  15
ATOM     15  C8  <0> d          -2.990  -1.766  -1.403  0.00  0.00     0.310 C 
BRANCH  15  16
ATOM     16  C9  <0> d          -3.403  -1.996  -2.834  0.00  0.00    -0.015 A 
ATOM     17  C13 <0> d          -2.986  -3.126  -3.508  0.00  0.00     0.098 A 
ATOM     18  N2  <0> d          -3.346  -3.340  -4.759  0.00  0.00    -0.352 N 
ATOM     19  C12 <0> d          -4.107  -2.481  -5.419  0.00  0.00     0.102 A 
ATOM     20  H24 <0> d          -3.042  -4.145  -5.208  0.00  0.00     0.166 HD
ATOM     21  C11 <0> d          -4.559  -1.318  -4.804  0.00  0.00     0.049 A 
ATOM     22  C10 <0> d          -4.203  -1.069  -3.491  0.00  0.00     0.014 A 
BRANCH  19  23
ATOM     23  N3  <0> d          -4.458  -2.744  -6.738  0.00  0.00    -0.367 N 
ATOM     24  C17 <0> d          -4.054  -3.930  -7.515  0.00  0.00     0.124 C 
ATOM     25  C16 <0> d          -5.142  -4.072  -8.611  0.00  0.00     0.021 C 
ATOM     26  C15 <0> d          -5.429  -2.587  -8.957  0.00  0.00     0.021 C 
ATOM     27  C14 <0> d          -5.288  -1.881  -7.592  0.00  0.00     0.124 C 
ENDBRANCH  19  23
ENDBRANCH  15  16
ENDBRANCH   1  15
TORSDOF 6
