REMARK  5 active torsions:
REMARK  status: ('A' for Active; 'I' for Inactive)
REMARK    1  A    between atoms: C3_3  and  C11_16 
REMARK    2  A    between atoms: C5_8  and  C6_10 
REMARK    3  A    between atoms: C11_16  and  C12_17 
REMARK       I    between atoms: C12_17  and  N4_19 
REMARK    4  A    between atoms: N4_19  and  C13_20 
REMARK    5  A    between atoms: C13_20  and  C14_21 
ROOT
ATOM      1  C1  <0> d          -0.018   1.503   0.010  0.00  0.00     0.071 C 
ATOM      2  C2  <0> d           0.002  -0.004   0.002  0.00  0.00     0.045 A 
ATOM      3  C3  <0> d          -1.170  -0.700   0.004  0.00  0.00     0.043 A 
ATOM      4  C4  <0> d          -1.124  -2.110  -0.005  0.00  0.00     0.255 A 
ATOM      5  O1  <0> d          -2.153  -2.765  -0.004  0.00  0.00    -0.268 OA
ATOM      6  N1  <0> d           0.081  -2.719  -0.014  0.00  0.00    -0.307 N 
ATOM      7  H1  <0> d           0.137  -3.687  -0.020  0.00  0.00     0.170 HD
ATOM      8  C5  <0> d           1.217  -1.968  -0.015  0.00  0.00     0.141 A 
ATOM      9  N2  <0> d           1.165  -0.653  -0.013  0.00  0.00    -0.234 NA
ENDROOT
BRANCH   3  10
ATOM     10  C11 <0> d          -2.492   0.024   0.015  0.00  0.00     0.149 C 
BRANCH  10  11
ATOM     11  C12 <0> d          -2.999   0.165  -1.397  0.00  0.00     0.222 C 
ATOM     12  O2  <0> d          -2.351  -0.279  -2.321  0.00  0.00    -0.273 OA
ATOM     13  N4  <0> d          -4.173   0.784  -1.633  0.00  0.00    -0.357 N 
ATOM     14  H11 <0> d          -4.691   1.139  -0.893  0.00  0.00     0.162 HD
BRANCH  13  15
ATOM     15  C13 <0> d          -4.666   0.922  -3.005  0.00  0.00     0.161 C 
BRANCH  15  16
ATOM     16  C14 <0> d          -5.987   1.646  -2.994  0.00  0.00    -0.040 A 
ATOM     17  C19 <0> d          -6.022   3.023  -3.090  0.00  0.00     0.016 A 
ATOM     18  C18 <0> d          -7.235   3.692  -3.086  0.00  0.00    -0.051 A 
ATOM     19  C17 <0> d          -8.413   2.979  -2.974  0.00  0.00    -0.052 A 
ATOM     20  C20 <0> d          -7.539   5.171  -3.182  0.00  0.00     0.039 C 
ATOM     21  C16 <0> d          -8.376   1.598  -2.872  0.00  0.00     0.008 A 
ATOM     22  C22 <0> d          -9.590   3.930  -2.987  0.00  0.00     0.039 C 
ATOM     23  C15 <0> d          -7.166   0.932  -2.882  0.00  0.00     0.009 A 
ATOM     24  C21 <0> d          -9.034   5.253  -3.556  0.00  0.00     0.009 C 
ENDBRANCH  15  16
ENDBRANCH  13  15
ENDBRANCH  10  11
ENDBRANCH   3  10
BRANCH   8  25
ATOM     25  C6  <0> d           2.534  -2.642  -0.026  0.00  0.00     0.013 A 
ATOM     26  C10 <0> d           3.721  -1.902  -0.027  0.00  0.00     0.034 A 
ATOM     27  C9  <0> d           4.928  -2.573  -0.032  0.00  0.00     0.117 A 
ATOM     28  N3  <0> d           4.970  -3.891  -0.046  0.00  0.00    -0.273 NA
ATOM     29  C8  <0> d           3.876  -4.626  -0.050  0.00  0.00     0.117 A 
ATOM     30  C7  <0> d           2.626  -4.038  -0.040  0.00  0.00     0.034 A 
ENDBRANCH   8  25
TORSDOF 5
