REMARK  3 active torsions:
REMARK  status: ('A' for Active; 'I' for Inactive)
REMARK    1  A    between atoms: C7_7  and  N1_8 
REMARK       I    between atoms: N1_8  and  C8_9 
REMARK    2  A    between atoms: C8_9  and  C9_11 
REMARK       I    between atoms: C9_11  and  N2_13 
REMARK    3  A    between atoms: N2_13  and  C10_14 
ROOT
ATOM      1  N1  <0> d           0.025  -0.016   2.416  0.00  0.00    -0.319 N 
ATOM      2  C8  <0> d          -0.057  -0.695   3.577  0.00  0.00     0.314 C 
ATOM      3  O1  <0> d          -0.040  -1.909   3.572  0.00  0.00    -0.262 OA
ATOM      4  H8  <0> d           0.077   0.953   2.424  0.00  0.00     0.169 HD
ENDROOT
BRANCH   2   5
ATOM      5  C9  <0> d          -0.168   0.045   4.869  0.00  0.00     0.310 C 
ATOM      6  O2  <0> d          -0.184   1.258   4.874  0.00  0.00    -0.262 OA
ATOM      7  N2  <0> d          -0.249  -0.635   6.030  0.00  0.00    -0.347 N 
ATOM      8  H9  <0> d          -0.236  -1.605   6.027  0.00  0.00     0.163 HD
BRANCH   7   9
ATOM      9  C10 <0> d          -0.358   0.091   7.298  0.00  0.00     0.112 C 
ATOM     10  C13 <0> d          -1.010  -0.801   8.371  0.00  0.00     0.259 C 
ATOM     11  N3  <0> d          -0.009  -0.983   9.447  0.00  0.00    -0.073 N 
ATOM     12  C12 <0> d           0.887   0.199   9.372  0.00  0.00     0.236 C 
ATOM     13  C14 <0> d          -0.676  -1.030  10.755  0.00  0.00     0.269 C 
ATOM     14  H19 <0> d           0.518  -1.830   9.293  0.00  0.00     0.279 HD
ATOM     15  C11 <0> d           1.048   0.425   7.848  0.00  0.00     0.054 C 
ENDBRANCH   7   9
ENDBRANCH   2   5
BRANCH   1  16
ATOM     16  C7  <0> d           0.033  -0.706   1.201  0.00  0.00     0.041 A 
ATOM     17  C2  <0> d          -0.585  -0.158   0.084  0.00  0.00    -0.034 A 
ATOM     18  C1  <0> d          -1.266   1.183   0.181  0.00  0.00     0.050 C 
ATOM     19  C3  <0> d          -0.570  -0.841  -1.116  0.00  0.00     0.028 A 
ATOM     20  C4  <0> d           0.055  -2.072  -1.206  0.00  0.00     0.011 A 
ATOM     21  C5  <0> d           0.667  -2.623  -0.094  0.00  0.00     0.021 A 
ATOM     22 Br1  <0> d           0.073  -3.003  -2.852  0.00  0.00    -0.051 Br
ATOM     23  C6  <0> d           0.656  -1.945   1.109  0.00  0.00     0.031 A 
ENDBRANCH   1  16
TORSDOF 3
