REMARK  6 active torsions:
REMARK  status: ('A' for Active; 'I' for Inactive)
REMARK    1  A    between atoms: C3_4  and  C10_13 
REMARK    2  A    between atoms: C4_5  and  C5_7 
REMARK    3  A    between atoms: C10_13  and  N4_14 
REMARK    4  A    between atoms: N4_14  and  C11_15 
REMARK    5  A    between atoms: N5_18  and  C16_21 
REMARK    6  A    between atoms: C16_21  and  C17_22 
ROOT
ATOM      1  N4  <0> d          -1.170  -3.936  -1.645  0.00  0.00     0.092 N 
ATOM      2  H11 <0> d          -1.530  -4.097  -0.716  0.00  0.00     0.316 HD
ENDROOT
BRANCH   1   3
ATOM      3  C10 <0> d           0.149  -3.291  -1.592  0.00  0.00     0.312 C 
BRANCH   3   4
ATOM      4  C3  <0> d           0.028  -1.955  -0.905  0.00  0.00     0.018 A 
ATOM      5  C2  <0> d           0.068  -0.745  -1.505  0.00  0.00     0.123 A 
ATOM      6  N1  <0> d          -0.075   0.199  -0.551  0.00  0.00    -0.284 N 
ATOM      7  C1  <0> d          -0.088   1.648  -0.770  0.00  0.00     0.179 C 
ATOM      8  N2  <0> d          -0.203  -0.447   0.686  0.00  0.00    -0.172 NA
ATOM      9  C4  <0> d          -0.147  -1.745   0.477  0.00  0.00     0.097 A 
BRANCH   9  10
ATOM     10  C5  <0> d          -0.245  -2.801   1.514  0.00  0.00    -0.002 A 
ATOM     11  C9  <0> d          -1.191  -2.715   2.540  0.00  0.00     0.033 A 
ATOM     12  C8  <0> d          -1.251  -3.721   3.482  0.00  0.00     0.117 A 
ATOM     13  N3  <0> d          -0.425  -4.748   3.428  0.00  0.00    -0.273 NA
ATOM     14  C7  <0> d           0.485  -4.866   2.480  0.00  0.00     0.117 A 
ATOM     15  C6  <0> d           0.610  -3.907   1.496  0.00  0.00     0.033 A 
ENDBRANCH   9  10
ENDBRANCH   3   4
ENDBRANCH   1   3
BRANCH   1  16
ATOM     16  C11 <0> d          -1.113  -5.186  -2.413  0.00  0.00     0.224 C 
ATOM     17  C15 <0> d          -2.501  -5.502  -2.979  0.00  0.00     0.063 C 
ATOM     18  C14 <0> d          -2.454  -6.846  -3.710  0.00  0.00     0.237 C 
ATOM     19  N5  <0> d          -2.053  -7.903  -2.774  0.00  0.00    -0.067 N 
ATOM     20  C13 <0> d          -0.695  -7.644  -2.282  0.00  0.00     0.237 C 
ATOM     21  H28 <0> d          -2.694  -7.921  -1.995  0.00  0.00     0.280 HD
ATOM     22  C12 <0> d          -0.674  -6.331  -1.496  0.00  0.00     0.063 C 
BRANCH  19  23
ATOM     23  C16 <0> d          -2.084  -9.201  -3.461  0.00  0.00     0.273 C 
BRANCH  23  24
ATOM     24  C17 <0> d          -3.502  -9.525  -3.858  0.00  0.00    -0.033 A 
ATOM     25  C22 <0> d          -3.983  -9.122  -5.090  0.00  0.00     0.009 A 
ATOM     26  C21 <0> d          -5.281  -9.423  -5.457  0.00  0.00     0.001 A 
ATOM     27  C20 <0> d          -6.101 -10.118  -4.588  0.00  0.00     0.000 A 
ATOM     28  C19 <0> d          -5.622 -10.516  -3.354  0.00  0.00     0.001 A 
ATOM     29  C18 <0> d          -4.322 -10.219  -2.989  0.00  0.00     0.009 A 
ENDBRANCH  23  24
ENDBRANCH  19  23
ENDBRANCH   1  16
TORSDOF 6
