REMARK  10 active torsions:
REMARK  status: ('A' for Active; 'I' for Inactive)
REMARK    1  A    between atoms: C2_2  and  C3_3 
REMARK    2  A    between atoms: C2_2  and  N5_30 
REMARK    3  A    between atoms: C4_6  and  S1_15 
REMARK    4  A    between atoms: N3_7  and  C5_8 
REMARK    5  A    between atoms: S1_15  and  C11_16 
REMARK    6  A    between atoms: C11_16  and  C12_17 
REMARK    7  A    between atoms: C12_17  and  N4_27 
REMARK    8  A    between atoms: C13_18  and  C14_19 
REMARK    9  A    between atoms: C13_18  and  N4_27 
REMARK   10  A    between atoms: C14_19  and  O1_20 
ROOT
ATOM      1  C3  <0> d           2.076   0.607   0.178  0.00  0.00     0.166 A 
ATOM      2  N1  <0> d           1.117   1.487   0.245  0.00  0.00    -0.131 NA
ATOM      3  N2  <0> d          -0.011   0.900   0.425  0.00  0.00    -0.122 NA
ATOM      4  C4  <0> d           0.165  -0.400   0.484  0.00  0.00     0.196 A 
ATOM      5  N3  <0> d           1.505  -0.629   0.328  0.00  0.00    -0.274 N 
ENDROOT
BRANCH   4   6
ATOM      6  S1  <0> d          -1.086  -1.618   0.720  0.00  0.00    -0.088 SA
BRANCH   6   7
ATOM      7  C11 <0> d          -2.544  -0.552   0.839  0.00  0.00     0.110 C 
BRANCH   7   8
ATOM      8  C12 <0> d          -3.790  -1.414   1.052  0.00  0.00     0.243 C 
BRANCH   8   9
ATOM      9  N4  <0> d          -4.973  -0.538   1.148  0.00  0.00    -0.072 N 
ATOM     10  H28 <0> d          -5.066   0.001   0.279  0.00  0.00     0.277 HD
ATOM     11  H29 <0> d          -4.855   0.105   1.939  0.00  0.00     0.277 HD
BRANCH   9  12
ATOM     12  C13 <0> d          -6.191  -1.344   1.354  0.00  0.00     0.258 C 
BRANCH  12  13
ATOM     13  C14 <0> d          -7.399  -0.410   1.449  0.00  0.00     0.191 C 
BRANCH  13  14
ATOM     14  O1  <0> d          -7.588   0.254   0.198  0.00  0.00    -0.399 OA
ATOM     15  H17 <0> d          -8.339   0.863   0.185  0.00  0.00     0.209 HD
ENDBRANCH  13  14
ENDBRANCH  12  13
ENDBRANCH   9  12
ENDBRANCH   8   9
ENDBRANCH   7   8
ENDBRANCH   6   7
ENDBRANCH   4   6
BRANCH   5  16
ATOM     16  C5  <0> d           2.158  -1.871   0.322  0.00  0.00     0.043 A 
ATOM     17  C10 <0> d           1.898  -2.788  -0.688  0.00  0.00     0.033 A 
ATOM     18  C9  <0> d           2.542  -4.010  -0.692  0.00  0.00     0.044 A 
ATOM     19  C8  <0> d           3.446  -4.321   0.310  0.00  0.00     0.116 A 
ATOM     20  C7  <0> d           3.705  -3.408   1.318  0.00  0.00     0.044 A 
ATOM     21  F1  <0> d           4.074  -5.516   0.304  0.00  0.00    -0.206 F 
ATOM     22  C6  <0> d           3.068  -2.183   1.323  0.00  0.00     0.033 A 
ENDBRANCH   5  16
BRANCH   1  23
ATOM     23  C2  <0> d           3.541   0.895  -0.027  0.00  0.00     0.255 C 
ATOM     24  C1  <0> d           3.781   1.306  -1.481  0.00  0.00     0.049 C 
BRANCH  23  25
ATOM     25  N5  <0> d           3.939   2.010   0.857  0.00  0.00    -0.060 N 
ATOM     26  C15 <0> d           5.386   2.275   0.714  0.00  0.00     0.236 C 
ATOM     27  C16 <0> d           5.750   3.507   1.546  0.00  0.00     0.028 C 
ATOM     28  C17 <0> d           5.417   3.240   3.017  0.00  0.00     0.003 C 
ATOM     29  C18 <0> d           3.930   2.893   3.140  0.00  0.00     0.028 C 
ATOM     30  C19 <0> d           3.619   1.680   2.262  0.00  0.00     0.236 C 
ATOM     31  H30 <0> d           3.418   2.852   0.586  0.00  0.00     0.280 HD
ENDBRANCH  23  25
ENDBRANCH   1  23
TORSDOF 10
