REMARK  6 active torsions:
REMARK  status: ('A' for Active; 'I' for Inactive)
REMARK    1  A    between atoms: C2_2  and  C3_3 
REMARK    2  A    between atoms: C3_3  and  C4_4 
REMARK    3  A    between atoms: C3_3  and  N1_19 
REMARK    4  A    between atoms: C4_4  and  C5_5 
REMARK    5  A    between atoms: C4_4  and  S2_11 
REMARK    6  A    between atoms: S2_11  and  C10_12 
ROOT
ATOM      1  C4  <0> d           0.963  -2.094  -1.504  0.00  0.00     0.122 C 
ENDROOT
BRANCH   1   2
ATOM      2  C3  <0> d           0.777  -0.579  -1.615  0.00  0.00     0.202 C 
BRANCH   2   3
ATOM      3  C2  <0> d           0.341  -0.018  -0.260  0.00  0.00     0.030 C 
ATOM      4  C1  <0> d           0.263   1.508  -0.341  0.00  0.00     0.007 C 
ENDBRANCH   2   3
BRANCH   2   5
ATOM      5  N1  <0> d          -0.252  -0.285  -2.621  0.00  0.00    -0.074 N 
ATOM      6  H17 <0> d          -0.374   0.714  -2.695  0.00  0.00     0.274 HD
ATOM      7  H18 <0> d           0.036  -0.655  -3.515  0.00  0.00     0.274 HD
ATOM      8  H19 <0> d          -1.123  -0.711  -2.345  0.00  0.00     0.274 HD
ENDBRANCH   2   5
ENDBRANCH   1   2
BRANCH   1   9
ATOM      9  C5  <0> d           1.492  -2.632  -2.808  0.00  0.00    -0.001 A 
ATOM     10  S1  <0> d           0.759  -2.560  -4.434  0.00  0.00    -0.098 SA
ATOM     11  C8  <0> d           2.043  -3.420  -5.328  0.00  0.00    -0.021 A 
ATOM     12  C7  <0> d           2.928  -3.705  -4.342  0.00  0.00     0.015 A 
ATOM     13  C9  <0> d           2.121  -3.747  -6.797  0.00  0.00     0.056 C 
ATOM     14  C6  <0> d           2.645  -3.302  -3.050  0.00  0.00     0.017 A 
ENDBRANCH   1   9
BRANCH   1  15
ATOM     15  S2  <0> d          -0.632  -2.873  -1.131  0.00  0.00    -0.118 SA
BRANCH  15  16
ATOM     16  C10 <0> d          -0.209  -4.531  -0.709  0.00  0.00     0.001 A 
ATOM     17  C15 <0> d          -1.208  -5.473  -0.501  0.00  0.00     0.020 A 
ATOM     18  C14 <0> d          -0.873  -6.772  -0.175  0.00  0.00     0.020 A 
ATOM     19  C13 <0> d           0.456  -7.134  -0.047  0.00  0.00     0.011 A 
ATOM     20  C12 <0> d           1.454  -6.197  -0.249  0.00  0.00     0.020 A 
ATOM     21 Br1  <0> d           0.911  -8.913   0.405  0.00  0.00    -0.051 Br
ATOM     22  C11 <0> d           1.125  -4.897  -0.580  0.00  0.00     0.020 A 
ENDBRANCH  15  16
ENDBRANCH   1  15
TORSDOF 6
