REMARK  6 active torsions:
REMARK  status: ('A' for Active; 'I' for Inactive)
REMARK    1  A    between atoms: C5_5  and  C6_7 
REMARK    2  A    between atoms: C11_16  and  C12_18 
REMARK    3  A    between atoms: C12_18  and  N3_19 
REMARK    4  A    between atoms: N4_23  and  C18_26 
REMARK    5  A    between atoms: C18_26  and  C19_27 
REMARK       I    between atoms: C19_27  and  N5_29 
REMARK    6  A    between atoms: N5_29  and  C20_30 
ROOT
ATOM      1  C12 <0> d           4.984  -6.163  -3.549  0.00  0.00     0.350 C 
ENDROOT
BRANCH   1   2
ATOM      2  C11 <0> d           3.946  -5.550  -2.644  0.00  0.00     0.136 A 
ATOM      3  N1  <0> d           3.603  -4.246  -2.809  0.00  0.00    -0.309 N 
ATOM      4  C10 <0> d           2.682  -3.661  -2.022  0.00  0.00     0.260 A 
ATOM      5  H1  <0> d           4.032  -3.727  -3.507  0.00  0.00     0.170 HD
ATOM      6  C9  <0> d           2.055  -4.435  -0.995  0.00  0.00     0.080 A 
ATOM      7  O1  <0> d           2.385  -2.489  -2.182  0.00  0.00    -0.267 OA
ATOM      8  C6  <0> d           1.040  -4.033  -0.026  0.00  0.00     0.006 A 
ATOM      9  C8  <0> d           2.475  -5.771  -0.897  0.00  0.00     0.116 A 
ATOM     10  C7  <0> d           0.587  -4.954   0.861  0.00  0.00     0.065 A 
ATOM     11  S2  <0> d           1.512  -6.420   0.444  0.00  0.00    -0.080 SA
ATOM     12  N2  <0> d           3.398  -6.279  -1.710  0.00  0.00    -0.225 NA
BRANCH   8  13
ATOM     13  C5  <0> d           0.512  -2.653  -0.016  0.00  0.00     0.017 A 
ATOM     14  C4  <0> d          -0.789  -2.227  -0.007  0.00  0.00     0.021 A 
ATOM     15  C3  <0> d          -1.042  -0.871   0.002  0.00  0.00     0.015 A 
ATOM     16  C2  <0> d           0.002  -0.004   0.002  0.00  0.00    -0.021 A 
ATOM     17  C1  <0> d          -0.018   1.503   0.010  0.00  0.00     0.056 C 
ATOM     18  S1  <0> d           1.406  -1.107  -0.018  0.00  0.00    -0.095 SA
ENDBRANCH   8  13
ENDBRANCH   1   2
BRANCH   1  19
ATOM     19  N3  <0> d           5.185  -7.571  -3.181  0.00  0.00     0.097 N 
ATOM     20  C17 <0> d           5.967  -8.231  -4.133  0.00  0.00     0.300 C 
ATOM     21  C16 <0> d           6.050  -9.748  -3.880  0.00  0.00     0.265 C 
ATOM     22  N4  <0> d           7.043  -9.990  -2.859  0.00  0.00    -0.061 N 
ATOM     23  C15 <0> d           6.444 -10.097  -1.509  0.00  0.00     0.237 C 
ATOM     24  H32 <0> d           7.708  -9.231  -2.863  0.00  0.00     0.280 HD
ATOM     25  C14 <0> d           5.345  -9.050  -1.264  0.00  0.00     0.058 C 
ATOM     26  C13 <0> d           5.710  -7.689  -1.799  0.00  0.00     0.274 C 
BRANCH  22  27
ATOM     27  C18 <0> d           7.748 -11.241  -3.167  0.00  0.00     0.337 C 
BRANCH  27  28
ATOM     28  C19 <0> d           8.909 -11.409  -2.221  0.00  0.00     0.244 C 
ATOM     29  O2  <0> d           9.127 -10.570  -1.373  0.00  0.00    -0.272 OA
ATOM     30  N5  <0> d           9.705 -12.493  -2.317  0.00  0.00    -0.352 N 
ATOM     31  H22 <0> d           9.531 -13.164  -2.995  0.00  0.00     0.163 HD
BRANCH  30  32
ATOM     32  C20 <0> d          10.834 -12.656  -1.397  0.00  0.00     0.022 C 
ATOM     33  C21 <0> d          10.316 -12.704   0.042  0.00  0.00     0.037 C 
ATOM     34  C22 <0> d          11.569 -13.959  -1.719  0.00  0.00     0.037 C 
ATOM     35  C23 <0> d          11.795 -11.476  -1.555  0.00  0.00     0.037 C 
ENDBRANCH  30  32
ENDBRANCH  27  28
ENDBRANCH  22  27
ENDBRANCH   1  19
TORSDOF 6
