REMARK  4 active torsions:
REMARK  status: ('A' for Active; 'I' for Inactive)
REMARK    1  A    between atoms: C2_2  and  N1_3 
REMARK    2  A    between atoms: C7_9  and  N3_14 
REMARK    3  A    between atoms: C8_10  and  C9_11 
REMARK       I    between atoms: C9_11  and  N2_13 
REMARK       I    between atoms: N3_14  and  C10_15 
REMARK    4  A    between atoms: C10_15  and  C11_17 
ROOT
ATOM      1  N1  <0> d           0.690  -0.478  -1.207  0.00  0.00    -0.067 N 
ATOM      2  C3  <0> d           0.601  -1.942  -1.277  0.00  0.00     0.240 C 
ATOM      3  C4  <0> d           1.029  -2.431  -2.665  0.00  0.00     0.068 C 
ATOM      4  C5  <0> d           2.386  -1.818  -2.979  0.00  0.00    -0.023 A 
ATOM      5  C6  <0> d           2.832  -0.755  -2.272  0.00  0.00     0.018 A 
ATOM      6  S1  <0> d           4.416  -0.390  -2.964  0.00  0.00    -0.074 SA
ATOM      7  C7  <0> d           4.496  -1.585  -4.142  0.00  0.00     0.093 A 
ATOM      8  C8  <0> d           3.299  -2.275  -4.008  0.00  0.00     0.073 A 
ATOM      9  C16 <0> d           2.106  -0.068  -1.158  0.00  0.00     0.281 C 
ATOM     10  H22 <0> d           0.251  -0.076  -2.022  0.00  0.00     0.280 HD
ENDROOT
BRANCH   7  11
ATOM     11  N3  <0> d           5.521  -1.827  -5.042  0.00  0.00    -0.315 N 
ATOM     12  C10 <0> d           6.623  -1.050  -5.032  0.00  0.00     0.277 C 
ATOM     13  O2  <0> d           6.717  -0.138  -4.234  0.00  0.00    -0.266 OA
ATOM     14  H12 <0> d           5.447  -2.554  -5.679  0.00  0.00     0.170 HD
BRANCH  12  15
ATOM     15  C11 <0> d           7.716  -1.308  -5.991  0.00  0.00     0.152 A 
ATOM     16  N5  <0> d           7.750  -2.256  -6.906  0.00  0.00    -0.167 NA
ATOM     17  N4  <0> d           8.848  -2.189  -7.569  0.00  0.00    -0.284 N 
ATOM     18  C13 <0> d           9.613  -1.177  -7.106  0.00  0.00     0.121 A 
ATOM     19  C14 <0> d           9.220  -3.086  -8.666  0.00  0.00     0.179 C 
ATOM     20  C12 <0> d           8.929  -0.587  -6.098  0.00  0.00    -0.009 A 
ATOM     21  C15 <0> d           9.368   0.590  -5.265  0.00  0.00     0.052 C 
ENDBRANCH  12  15
ENDBRANCH   7  11
BRANCH   8  22
ATOM     22  C9  <0> d           2.973  -3.416  -4.869  0.00  0.00     0.252 C 
ATOM     23  O1  <0> d           2.384  -3.237  -5.918  0.00  0.00    -0.268 OA
ATOM     24  N2  <0> d           3.326  -4.662  -4.497  0.00  0.00    -0.366 N 
ATOM     25  H10 <0> d           3.796  -4.805  -3.661  0.00  0.00     0.159 HD
ATOM     26  H11 <0> d           3.110  -5.417  -5.067  0.00  0.00     0.159 HD
ENDBRANCH   8  22
BRANCH   1  27
ATOM     27  C2  <0> d           0.002  -0.004   0.002  0.00  0.00     0.231 C 
ATOM     28  C1  <0> d          -0.019   1.526   0.010  0.00  0.00     0.034 C 
ENDBRANCH   1  27
TORSDOF 4
