REMARK  8 active torsions:
REMARK  status: ('A' for Active; 'I' for Inactive)
REMARK    1  A    between atoms: O1_2  and  C2_3 
REMARK    2  A    between atoms: C2_3  and  C3_4 
REMARK    3  A    between atoms: C3_4  and  N1_5 
REMARK    4  A    between atoms: N1_5  and  S1_6 
REMARK    5  A    between atoms: S1_6  and  C4_9 
REMARK    6  A    between atoms: C7_12  and  C10_16 
REMARK    7  A    between atoms: C11_17  and  C12_18 
REMARK    8  A    between atoms: C12_18  and  O4_19 
ROOT
ATOM      1  C4  <0> d           0.350  -5.062   0.476  0.00  0.00     0.101 A 
ATOM      2  C5  <0> d           1.512  -5.717   0.841  0.00  0.00     0.028 A 
ATOM      3  C6  <0> d           2.234  -6.424  -0.099  0.00  0.00     0.022 A 
ATOM      4  C7  <0> d           1.789  -6.477  -1.421  0.00  0.00     0.019 A 
ATOM      5  C8  <0> d           0.616  -5.814  -1.783  0.00  0.00     0.046 A 
ATOM      6  C9  <0> d          -0.100  -5.115  -0.832  0.00  0.00     0.058 A 
ATOM      7 Cl1  <0> d          -1.564  -4.295  -1.279  0.00  0.00    -0.083 Cl
ENDROOT
BRANCH   1   8
ATOM      8  S1  <0> d          -0.566  -4.162   1.683  0.00  0.00     0.260 S 
ATOM      9  O2  <0> d           0.154  -4.271   2.903  0.00  0.00    -0.200 OA
ATOM     10  O3  <0> d          -1.919  -4.575   1.557  0.00  0.00    -0.200 OA
BRANCH   8  11
ATOM     11  N1  <0> d          -0.515  -2.565   1.245  0.00  0.00    -0.313 N 
ATOM     12  H8  <0> d          -0.064  -1.921   1.812  0.00  0.00     0.172 HD
BRANCH  11  13
ATOM     13  C3  <0> d          -1.154  -2.126   0.002  0.00  0.00     0.158 C 
BRANCH  13  14
ATOM     14  C2  <0> d          -1.295  -0.603   0.011  0.00  0.00     0.187 C 
BRANCH  14  15
ATOM     15  O1  <0> d           0.002  -0.004   0.002  0.00  0.00    -0.394 OA
ATOM     16  C1  <0> d          -0.017   1.425   0.010  0.00  0.00     0.201 C 
ENDBRANCH  14  15
ENDBRANCH  13  14
ENDBRANCH  11  13
ENDBRANCH   8  11
ENDBRANCH   1   8
BRANCH   4  17
ATOM     17  C10 <0> d           2.534  -7.209  -2.401  0.00  0.00    -0.065 C 
ATOM     18  C11 <0> d           3.145  -7.808  -3.204  0.00  0.00    -0.075 C 
BRANCH  18  19
ATOM     19  C12 <0> d           3.911  -8.560  -4.212  0.00  0.00     0.258 C 
BRANCH  19  20
ATOM     20  O4  <0> d           3.256  -8.463  -5.478  0.00  0.00    -0.389 OA
ATOM     21  H14 <0> d           3.706  -8.937  -6.191  0.00  0.00     0.210 HD
ENDBRANCH  19  20
ENDBRANCH  18  19
ENDBRANCH   4  17
TORSDOF 8
