REMARK  3 active torsions:
REMARK  status: ('A' for Active; 'I' for Inactive)
REMARK       I    between atoms: N1_4  and  C5_6 
REMARK    1  A    between atoms: C5_6  and  C6_8 
REMARK    2  A    between atoms: N2_12  and  C13_18 
REMARK    3  A    between atoms: C13_18  and  C14_19 
ROOT
ATOM      1  C6  <0> d           0.846  -2.813   0.257  0.00  0.00     0.109 C 
ATOM      2  C7  <0> d           1.158  -4.118   0.349  0.00  0.00     0.032 C 
ATOM      3  C8  <0> d          -0.037  -4.858  -0.184  0.00  0.00     0.133 C 
ATOM      4  C9  <0> d           0.246  -5.967  -1.144  0.00  0.00     0.298 C 
ATOM      5  N2  <0> d          -0.958  -6.485  -1.796  0.00  0.00     0.097 N 
ATOM      6  C10 <0> d          -1.394  -5.713  -2.944  0.00  0.00     0.274 C 
ATOM      7  C11 <0> d          -2.428  -4.623  -2.510  0.00  0.00     0.046 C 
ATOM      8  C12 <0> d          -2.122  -4.211  -1.062  0.00  0.00     0.116 C 
ATOM      9  N3  <0> d          -0.726  -3.783  -0.988  0.00  0.00    -0.221 NA
ATOM     10  N4  <0> d          -0.455  -2.666  -0.261  0.00  0.00    -0.314 N 
ATOM     11  H19 <0> d          -1.046  -1.909  -0.126  0.00  0.00     0.181 HD
ENDROOT
BRANCH   5  12
ATOM     12  C13 <0> d          -0.799  -7.903  -2.144  0.00  0.00     0.348 C 
BRANCH  12  13
ATOM     13  C14 <0> d          -2.126  -8.464  -2.583  0.00  0.00     0.109 A 
ATOM     14  N6  <0> d          -2.298  -9.560  -3.305  0.00  0.00    -0.353 N 
ATOM     15  C16 <0> d          -3.622  -9.739  -3.493  0.00  0.00     0.106 A 
ATOM     16  H22 <0> d          -1.594 -10.136  -3.641  0.00  0.00     0.166 HD
ATOM     17  C15 <0> d          -4.256  -8.722  -2.875  0.00  0.00     0.106 A 
ATOM     18  N5  <0> d          -3.311  -7.940  -2.315  0.00  0.00    -0.353 N 
ATOM     19  H25 <0> d          -3.472  -7.131  -1.803  0.00  0.00     0.166 HD
ENDBRANCH  12  13
ENDBRANCH   5  12
BRANCH   1  20
ATOM     20  C5  <0> d           1.733  -1.700   0.648  0.00  0.00     0.271 C 
ATOM     21  N1  <0> d           1.313  -0.426   0.518  0.00  0.00    -0.347 N 
ATOM     22  C3  <0> d           2.092   0.776   0.868  0.00  0.00     0.126 C 
ATOM     23  C4  <0> d           0.002  -0.004   0.002  0.00  0.00     0.126 C 
ATOM     24  C2  <0> d           1.488   1.907  -0.002  0.00  0.00     0.021 C 
ATOM     25  C1  <0> d          -0.019   1.539   0.011  0.00  0.00     0.021 C 
ATOM     26  O1  <0> d           2.842  -1.932   1.087  0.00  0.00    -0.266 OA
ENDBRANCH   1  20
TORSDOF 3
