REMARK  3 active torsions:
REMARK  status: ('A' for Active; 'I' for Inactive)
REMARK    1  A    between atoms: C3_3  and  C10_13 
REMARK    2  A    between atoms: C5_5  and  N1_7 
REMARK       I    between atoms: C10_13  and  N3_15 
REMARK    3  A    between atoms: N3_15  and  C11_16 
ROOT
ATOM      1  C10 <0> d           3.655   2.172  -0.084  0.00  0.00     0.252 C 
ATOM      2  O1  <0> d           4.715   1.582  -0.154  0.00  0.00    -0.268 OA
ATOM      3  N3  <0> d           3.635   3.518  -0.015  0.00  0.00    -0.344 N 
ATOM      4  H8  <0> d           2.789   3.989   0.041  0.00  0.00     0.163 HD
ENDROOT
BRANCH   1   5
ATOM      5  C3  <0> d           2.385   1.413  -0.076  0.00  0.00     0.034 A 
ATOM      6  C2  <0> d           1.167   2.089   0.004  0.00  0.00     0.017 A 
ATOM      7  C1  <0> d          -0.017   1.378   0.012  0.00  0.00     0.003 A 
ATOM      8  C6  <0> d           0.001  -0.002  -0.060  0.00  0.00     0.031 A 
ATOM      9  C5  <0> d           1.209  -0.684  -0.140  0.00  0.00     0.059 A 
ATOM     10  C4  <0> d           2.402   0.021  -0.148  0.00  0.00     0.048 A 
BRANCH   9  11
ATOM     11  N1  <0> d           1.221  -2.084  -0.213  0.00  0.00    -0.244 N 
ATOM     12  N2  <0> d           2.359  -2.896  -0.298  0.00  0.00    -0.179 NA
ATOM     13  C9  <0> d           1.969  -4.145  -0.344  0.00  0.00     0.159 A 
ATOM     14  C8  <0> d           0.571  -4.172  -0.300  0.00  0.00     0.047 A 
ATOM     15  C7  <0> d           0.131  -2.894  -0.220  0.00  0.00     0.139 A 
ATOM     16 Br1  <0> d          -0.514  -5.720  -0.346  0.00  0.00    -0.048 Br
ENDBRANCH   9  11
ENDBRANCH   1   5
BRANCH   3  17
ATOM     17  C11 <0> d           4.893   4.270  -0.023  0.00  0.00     0.177 C 
ATOM     18  C16 <0> d           5.443   4.325  -1.433  0.00  0.00     0.240 C 
ATOM     19  N4  <0> d           4.648   4.681  -2.447  0.00  0.00    -0.359 N 
ATOM     20  O2  <0> d           6.607   4.052  -1.639  0.00  0.00    -0.271 OA
ATOM     21  C15 <0> d           3.233   5.008  -2.208  0.00  0.00     0.122 C 
ATOM     22  H17 <0> d           5.006   4.721  -3.348  0.00  0.00     0.162 HD
ATOM     23  C14 <0> d           3.156   6.360  -1.496  0.00  0.00     0.020 C 
ATOM     24  C13 <0> d           3.277   6.188   0.007  0.00  0.00     0.004 C 
ATOM     25  C12 <0> d           4.640   5.700   0.461  0.00  0.00     0.035 C 
ENDBRANCH   3  17
TORSDOF 3
