REMARK  5 active torsions:
REMARK  status: ('A' for Active; 'I' for Inactive)
REMARK    1  A    between atoms: C2_2  and  C3_3 
REMARK    2  A    between atoms: C2_2  and  N1_10 
REMARK       I    between atoms: N1_10  and  C9_11 
REMARK    3  A    between atoms: C9_11  and  C10_13 
REMARK    4  A    between atoms: C14_17  and  N2_19 
REMARK    5  A    between atoms: N2_19  and  S1_20 
ROOT
ATOM      1  N1  <0> d          -1.372  -0.511   0.012  0.00  0.00    -0.349 N 
ATOM      2  C9  <0> d          -2.029  -0.655   1.181  0.00  0.00     0.252 C 
ATOM      3  O1  <0> d          -1.480  -0.364   2.226  0.00  0.00    -0.268 OA
ATOM      4  H9  <0> d          -1.869  -0.774  -0.933  0.00  0.00     0.163 HD
ENDROOT
BRANCH   2   5
ATOM      5  C10 <0> d          -3.416  -1.167   1.191  0.00  0.00     0.034 A 
ATOM      6  C15 <0> d          -4.095  -1.322   2.399  0.00  0.00     0.047 A 
ATOM      7  C14 <0> d          -5.397  -1.799   2.401  0.00  0.00     0.043 A 
ATOM      8  C13 <0> d          -6.018  -2.129   1.202  0.00  0.00     0.030 A 
ATOM      9  C12 <0> d          -5.342  -1.980   0.005  0.00  0.00     0.003 A 
ATOM     10  C11 <0> d          -4.048  -1.502  -0.008  0.00  0.00     0.017 A 
BRANCH   7  11
ATOM     11  N2  <0> d          -6.084  -1.952   3.608  0.00  0.00    -0.285 N 
ATOM     12  H14 <0> d          -6.049  -1.156   4.365  0.00  0.00     0.178 HD
BRANCH  11  13
ATOM     13  S1  <0> d          -6.950  -3.334   3.898  0.00  0.00     0.227 S 
ATOM     14  O2  <0> d          -7.524  -3.138   5.183  0.00  0.00    -0.206 OA
ATOM     15  O3  <0> d          -7.776  -3.491   2.752  0.00  0.00    -0.206 OA
ATOM     16  C16 <0> d          -5.710  -4.656   3.962  0.00  0.00     0.186 C 
ENDBRANCH  11  13
ENDBRANCH   7  11
ENDBRANCH   2   5
BRANCH   1  17
ATOM     17  C2  <0> d           0.002  -0.004   0.002  0.00  0.00     0.115 C 
ATOM     18  C1  <0> d          -0.019   1.526   0.010  0.00  0.00     0.037 C 
BRANCH  17  19
ATOM     19  C3  <0> d           0.707  -0.490  -1.238  0.00  0.00    -0.018 A 
ATOM     20  C8  <0> d           2.086  -0.598  -1.252  0.00  0.00     0.019 A 
ATOM     21  C7  <0> d           2.733  -1.048  -2.389  0.00  0.00     0.019 A 
ATOM     22 Br1  <0> d           3.087  -0.137   0.285  0.00  0.00    -0.050 Br
ATOM     23  C6  <0> d           2.002  -1.381  -3.514  0.00  0.00     0.001 A 
ATOM     24  C5  <0> d           0.624  -1.268  -3.501  0.00  0.00     0.001 A 
ATOM     25  C4  <0> d          -0.023  -0.823  -2.363  0.00  0.00     0.010 A 
ENDBRANCH  17  19
ENDBRANCH   1  17
TORSDOF 5
