REMARK  6 active torsions:
REMARK  status: ('A' for Active; 'I' for Inactive)
REMARK    1  A    between atoms: C2_2  and  N1_4 
REMARK    2  A    between atoms: C4_5  and  C6_10 
REMARK    3  A    between atoms: C6_10  and  C7_11 
REMARK    4  A    between atoms: C7_11  and  N4_12 
REMARK       I    between atoms: N4_12  and  C8_13 
REMARK    5  A    between atoms: C8_13  and  C9_15 
REMARK    6  A    between atoms: C10_16  and  C11_17 
ROOT
ATOM      1  C11 <0> d          -1.554  -5.704  -8.373  0.00  0.00    -0.015 A 
ATOM      2  C12 <0> d          -0.223  -5.367  -8.624  0.00  0.00     0.013 A 
ATOM      3  C13 <0> d           0.402  -5.831  -9.764  0.00  0.00     0.001 A 
ATOM      4  C14 <0> d          -0.283  -6.630 -10.665  0.00  0.00     0.002 A 
ATOM      5  C15 <0> d          -1.600  -6.975 -10.435  0.00  0.00     0.023 A 
ATOM      6  C16 <0> d          -2.249  -6.523  -9.287  0.00  0.00     0.054 A 
ATOM      7  C17 <0> d          -3.613  -6.883  -9.041  0.00  0.00     0.100 C 
ATOM      8  N5  <0> d          -4.695  -7.169  -8.847  0.00  0.00    -0.191 NA
ENDROOT
BRANCH   1   9
ATOM      9  C10 <0> d          -2.226  -5.214  -7.160  0.00  0.00     0.018 C 
ATOM     10  C9  <0> d          -1.557  -4.431  -6.288  0.00  0.00     0.075 C 
BRANCH  10  11
ATOM     11  C8  <0> d          -2.226  -3.943  -5.080  0.00  0.00     0.241 C 
ATOM     12  N4  <0> d          -1.558  -3.161  -4.209  0.00  0.00    -0.357 N 
ATOM     13  H13 <0> d          -0.634  -2.921  -4.383  0.00  0.00     0.162 HD
ATOM     14  O1  <0> d          -3.385  -4.243  -4.862  0.00  0.00    -0.269 OA
BRANCH  12  15
ATOM     15  C7  <0> d          -2.227  -2.672  -3.001  0.00  0.00     0.130 C 
BRANCH  15  16
ATOM     16  C6  <0> d          -1.253  -1.813  -2.191  0.00  0.00     0.100 C 
BRANCH  16  17
ATOM     17  C4  <0> d          -1.941  -1.311  -0.948  0.00  0.00     0.130 A 
ATOM     18  N1  <0> d          -1.372  -0.511   0.012  0.00  0.00    -0.305 N 
ATOM     19  C5  <0> d          -2.293  -0.277   0.969  0.00  0.00     0.196 A 
ATOM     20  N3  <0> d          -3.425  -0.915   0.605  0.00  0.00    -0.251 N 
ATOM     21  S1  <0> d          -2.068   0.661   2.384  0.00  0.00    -0.039 SA
ATOM     22  N2  <0> d          -3.165  -1.562  -0.611  0.00  0.00    -0.159 NA
ATOM     23  H8  <0> d          -4.261  -0.927   1.096  0.00  0.00     0.191 HD
BRANCH  18  24
ATOM     24  C2  <0> d           0.002  -0.004   0.002  0.00  0.00     0.085 C 
ATOM     25  C1  <0> d          -0.019   1.526   0.010  0.00  0.00     0.032 C 
ATOM     26  C3  <0> d           0.742  -0.511   1.242  0.00  0.00     0.032 C 
ENDBRANCH  18  24
ENDBRANCH  16  17
ENDBRANCH  15  16
ENDBRANCH  12  15
ENDBRANCH  10  11
ENDBRANCH   1   9
TORSDOF 6
