REMARK  7 active torsions:
REMARK  status: ('A' for Active; 'I' for Inactive)
REMARK    1  A    between atoms: C3_3  and  C4_4 
REMARK    2  A    between atoms: C3_3  and  N2_25 
REMARK    3  A    between atoms: C9_9  and  C10_10 
REMARK    4  A    between atoms: C10_10  and  N1_11 
REMARK    5  A    between atoms: N1_11  and  S1_12 
REMARK    6  A    between atoms: S1_12  and  C11_15 
REMARK    7  A    between atoms: C15_19  and  C17_21 
ROOT
ATOM      1  N1  <0> d           0.002  -0.004   0.002  0.00  0.00    -0.311 N 
ATOM      2  H15 <0> d           0.848  -0.477  -0.025  0.00  0.00     0.172 HD
ENDROOT
BRANCH   1   3
ATOM      3  C10 <0> d          -1.256  -0.754   0.035  0.00  0.00     0.171 C 
BRANCH   3   4
ATOM      4  C9  <0> d          -0.996  -2.188  -0.348  0.00  0.00    -0.032 A 
ATOM      5  C4  <0> d          -0.486  -3.071   0.585  0.00  0.00    -0.025 A 
ATOM      6  C5  <0> d          -0.248  -4.387   0.234  0.00  0.00     0.009 A 
ATOM      7  C6  <0> d          -0.521  -4.819  -1.050  0.00  0.00     0.001 A 
ATOM      8  C7  <0> d          -1.031  -3.937  -1.983  0.00  0.00     0.001 A 
ATOM      9  C8  <0> d          -1.274  -2.622  -1.631  0.00  0.00     0.009 A 
BRANCH   5  10
ATOM     10  C3  <0> d          -0.189  -2.599   1.985  0.00  0.00     0.273 C 
BRANCH  10  11
ATOM     11  N2  <0> d          -1.454  -2.541   2.747  0.00  0.00    -0.075 N 
ATOM     12  C1  <0> d          -1.981  -3.906   2.957  0.00  0.00     0.269 C 
ATOM     13  C2  <0> d          -1.229  -1.881   4.051  0.00  0.00     0.269 C 
ATOM     14  H19 <0> d          -2.141  -1.997   2.212  0.00  0.00     0.279 HD
ENDBRANCH  10  11
ENDBRANCH   5  10
ENDBRANCH   3   4
ENDBRANCH   1   3
BRANCH   1  15
ATOM     15  S1  <0> d          -0.020   1.652   0.011  0.00  0.00     0.259 S 
ATOM     16  O1  <0> d           1.336   2.076   0.001  0.00  0.00    -0.201 OA
ATOM     17  O2  <0> d          -0.952   2.051  -0.985  0.00  0.00    -0.201 OA
BRANCH  15  18
ATOM     18  C11 <0> d          -0.694   2.155   1.560  0.00  0.00     0.080 A 
ATOM     19  C16 <0> d           0.141   2.364   2.637  0.00  0.00     0.045 A 
ATOM     20  C15 <0> d          -0.393   2.763   3.864  0.00  0.00     0.059 A 
ATOM     21  C14 <0> d          -1.772   2.948   3.991  0.00  0.00     0.028 A 
ATOM     22  C13 <0> d          -2.596   2.735   2.903  0.00  0.00     0.022 A 
ATOM     23 Br1  <0> d          -2.509   3.487   5.647  0.00  0.00    -0.050 Br
ATOM     24  C12 <0> d          -2.058   2.345   1.690  0.00  0.00     0.027 A 
BRANCH  20  25
ATOM     25  C17 <0> d           0.494   2.988   5.022  0.00  0.00     0.210 C 
ATOM     26  O3  <0> d           0.026   3.335   6.088  0.00  0.00    -0.644 OA
ATOM     27  O4  <0> d           1.824   2.808   4.897  0.00  0.00    -0.644 OA
ENDBRANCH  20  25
ENDBRANCH  15  18
ENDBRANCH   1  15
TORSDOF 7
