REMARK  4 active torsions:
REMARK  status: ('A' for Active; 'I' for Inactive)
REMARK    1  A    between atoms: C2_2  and  C3_3 
REMARK    2  A    between atoms: C8_8  and  N1_9 
REMARK       I    between atoms: N1_9  and  C9_10 
REMARK    3  A    between atoms: C9_10  and  C10_12 
REMARK    4  A    between atoms: C13_16  and  N3_18 
ROOT
ATOM      1  N1  <0> d          -2.433   1.468   0.022  0.00  0.00    -0.322 N 
ATOM      2  C9  <0> d          -3.605   2.124   0.133  0.00  0.00     0.256 C 
ATOM      3  O1  <0> d          -3.623   3.339   0.139  0.00  0.00    -0.267 OA
ATOM      4  H10 <0> d          -2.423   0.501  -0.049  0.00  0.00     0.169 HD
ENDROOT
BRANCH   2   5
ATOM      5  C10 <0> d          -4.871   1.364   0.247  0.00  0.00     0.037 A 
ATOM      6  C14 <0> d          -6.095   2.024   0.368  0.00  0.00     0.068 A 
ATOM      7  C13 <0> d          -7.258   1.271   0.466  0.00  0.00     0.136 A 
ATOM      8  N2  <0> d          -7.211  -0.050   0.457  0.00  0.00    -0.243 NA
ATOM      9  C12 <0> d          -6.073  -0.707   0.350  0.00  0.00     0.120 A 
ATOM     10  C11 <0> d          -4.872  -0.036   0.241  0.00  0.00     0.036 A 
BRANCH   7  11
ATOM     11  N3  <0> d          -8.493   1.918   0.582  0.00  0.00    -0.281 N 
ATOM     12  C16 <0> d          -9.721   1.335   0.692  0.00  0.00     0.241 A 
ATOM     13  N5  <0> d         -10.599   2.296   0.777  0.00  0.00    -0.144 NA
ATOM     14  N4  <0> d         -10.007   3.436   0.728  0.00  0.00    -0.144 NA
ATOM     15  C15 <0> d          -8.718   3.263   0.614  0.00  0.00     0.241 A 
ENDBRANCH   7  11
ENDBRANCH   2   5
BRANCH   1  16
ATOM     16  C8  <0> d          -1.230   2.182   0.009  0.00  0.00     0.041 A 
ATOM     17  C3  <0> d          -0.095   1.644   0.600  0.00  0.00    -0.032 A 
ATOM     18  C4  <0> d           1.092   2.350   0.582  0.00  0.00     0.009 A 
ATOM     19  C5  <0> d           1.150   3.593  -0.021  0.00  0.00     0.001 A 
ATOM     20  C6  <0> d           0.019   4.134  -0.606  0.00  0.00     0.002 A 
ATOM     21  C7  <0> d          -1.171   3.434  -0.590  0.00  0.00     0.030 A 
BRANCH  17  22
ATOM     22  C2  <0> d          -0.157   0.288   1.256  0.00  0.00     0.036 C 
ATOM     23  C1  <0> d           0.049  -0.799   0.200  0.00  0.00     0.010 C 
ENDBRANCH  17  22
ENDBRANCH   1  16
TORSDOF 4
