REMARK  7 active torsions:
REMARK  status: ('A' for Active; 'I' for Inactive)
REMARK    1  A    between atoms: C5_5  and  N2_11 
REMARK    2  A    between atoms: C6_6  and  N1_8 
REMARK       I    between atoms: N2_11  and  C8_12 
REMARK    3  A    between atoms: C8_12  and  C9_14 
REMARK    4  A    between atoms: C9_14  and  C10_15 
REMARK    5  A    between atoms: C9_14  and  N3_21 
REMARK    6  A    between atoms: N4_24  and  C20_27 
REMARK    7  A    between atoms: C20_27  and  C21_28 
ROOT
ATOM      1  C9  <0> d           3.838  -0.969   0.208  0.00  0.00     0.312 C 
ENDROOT
BRANCH   1   2
ATOM      2  C8  <0> d           2.538  -0.352  -0.239  0.00  0.00     0.258 C 
ATOM      3  N2  <0> d           2.382   0.986  -0.212  0.00  0.00    -0.323 N 
ATOM      4  H8  <0> d           3.231   1.633   0.053  0.00  0.00     0.169 HD
ATOM      5  O3  <0> d           1.631  -1.061  -0.622  0.00  0.00    -0.270 OA
BRANCH   3   6
ATOM      6  C5  <0> d           1.140   1.552  -0.521  0.00  0.00     0.068 A 
ATOM      7  C4  <0> d           0.341   0.984  -1.504  0.00  0.00     0.032 A 
ATOM      8  C3  <0> d          -0.881   1.548  -1.811  0.00  0.00     0.009 A 
ATOM      9  C2  <0> d          -1.315   2.672  -1.131  0.00  0.00    -0.059 A 
ATOM     10  C1  <0> d          -2.653   3.282  -1.464  0.00  0.00     0.048 C 
ATOM     11  C7  <0> d          -0.523   3.240  -0.151  0.00  0.00     0.045 A 
ATOM     12  C6  <0> d           0.704   2.683   0.156  0.00  0.00     0.130 A 
BRANCH  12  13
ATOM     13  N1  <0> d           1.552   3.292   1.205  0.00  0.00    -0.113 N 
ATOM     14  O1  <0> d           1.133   4.232   1.857  0.00  0.00    -0.532 OA
ATOM     15  O2  <0> d           2.668   2.853   1.417  0.00  0.00    -0.532 OA
ENDBRANCH  12  13
ENDBRANCH   3   6
ENDBRANCH   1   2
BRANCH   1  16
ATOM     16  C10 <0> d           4.888  -0.750  -0.851  0.00  0.00    -0.018 A 
ATOM     17  C15 <0> d           5.886   0.186  -0.652  0.00  0.00     0.010 A 
ATOM     18  C14 <0> d           6.848   0.387  -1.624  0.00  0.00     0.001 A 
ATOM     19  C13 <0> d           6.814  -0.348  -2.794  0.00  0.00     0.000 A 
ATOM     20  C12 <0> d           5.816  -1.284  -2.993  0.00  0.00     0.001 A 
ATOM     21  C11 <0> d           4.856  -1.488  -2.019  0.00  0.00     0.010 A 
ENDBRANCH   1  16
BRANCH   1  22
ATOM     22  N3  <0> d           3.650  -2.410   0.419  0.00  0.00    -0.051 N 
ATOM     23  C19 <0> d           4.937  -3.082   0.645  0.00  0.00     0.266 C 
ATOM     24  C18 <0> d           4.706  -4.589   0.781  0.00  0.00     0.300 C 
ATOM     25  N4  <0> d           3.782  -4.841   1.895  0.00  0.00     0.097 N 
ATOM     26  C17 <0> d           2.494  -4.169   1.670  0.00  0.00     0.300 C 
ATOM     27  C16 <0> d           2.725  -2.662   1.534  0.00  0.00     0.266 C 
ATOM     28  H29 <0> d           3.203  -2.829  -0.494  0.00  0.00     0.281 HD
BRANCH  25  29
ATOM     29  C20 <0> d           3.593  -6.282   2.107  0.00  0.00     0.330 C 
BRANCH  29  30
ATOM     30  C21 <0> d           2.845  -6.507   3.396  0.00  0.00     0.055 A 
ATOM     31  N6  <0> d           3.391  -6.574   4.612  0.00  0.00    -0.343 N 
ATOM     32  C27 <0> d           2.436  -6.780   5.508  0.00  0.00     0.111 A 
ATOM     33  H30 <0> d           4.479  -6.460   4.734  0.00  0.00     0.167 HD
ATOM     34  N5  <0> d           1.239  -6.848   4.843  0.00  0.00    -0.317 N 
ATOM     35  C26 <0> d           2.464  -6.926   6.909  0.00  0.00     0.049 A 
ATOM     36  C22 <0> d           1.509  -6.670   3.513  0.00  0.00     0.124 A 
ATOM     37  C23 <0> d           0.078  -7.057   5.529  0.00  0.00     0.098 A 
ATOM     38  C24 <0> d           0.089  -7.199   6.871  0.00  0.00     0.018 A 
ATOM     39  C25 <0> d           1.300  -7.133   7.581  0.00  0.00     0.005 A 
ENDBRANCH  29  30
ENDBRANCH  25  29
ENDBRANCH   1  22
TORSDOF 7
