REMARK  4 active torsions:
REMARK  status: ('A' for Active; 'I' for Inactive)
REMARK    1  A    between atoms: C3_3  and  N4_22 
REMARK    2  A    between atoms: C4_4  and  C5_8 
REMARK       I    between atoms: C5_8  and  N3_10 
REMARK    3  A    between atoms: N3_10  and  C6_11 
REMARK    4  A    between atoms: C11_16  and  C12_17 
ROOT
ATOM      1  C5  <0> d           0.047  -3.372  -1.393  0.00  0.00     0.278 C 
ATOM      2  O1  <0> d           0.036  -3.313  -2.607  0.00  0.00    -0.265 OA
ATOM      3  N3  <0> d           0.061  -4.571  -0.776  0.00  0.00    -0.321 N 
ATOM      4  H5  <0> d           0.137  -4.618   0.190  0.00  0.00     0.169 HD
ENDROOT
BRANCH   3   5
ATOM      5  C6  <0> d          -0.032  -5.746  -1.529  0.00  0.00     0.050 A 
ATOM      6  C11 <0> d          -0.706  -6.848  -1.019  0.00  0.00     0.075 A 
ATOM      7  C10 <0> d          -0.801  -8.005  -1.767  0.00  0.00     0.037 A 
ATOM      8  C9  <0> d          -0.216  -8.070  -3.019  0.00  0.00     0.011 A 
ATOM      9  C8  <0> d           0.461  -6.976  -3.528  0.00  0.00     0.021 A 
ATOM     10 Br1  <0> d          -0.342  -9.659  -4.037  0.00  0.00    -0.051 Br
ATOM     11  C7  <0> d           0.554  -5.815  -2.787  0.00  0.00     0.032 A 
BRANCH   6  12
ATOM     12  C12 <0> d          -1.337  -6.779   0.347  0.00  0.00     0.419 C 
ATOM     13  F1  <0> d          -1.952  -8.001   0.639  0.00  0.00    -0.166 F 
ATOM     14  F2  <0> d          -0.352  -6.513   1.304  0.00  0.00    -0.166 F 
ATOM     15  F3  <0> d          -2.294  -5.759   0.368  0.00  0.00    -0.166 F 
ENDBRANCH   6  12
ENDBRANCH   3   5
BRANCH   1  16
ATOM     16  C4  <0> d           0.045  -2.133  -0.594  0.00  0.00     0.172 A 
ATOM     17  C3  <0> d           0.030  -0.806  -1.097  0.00  0.00     0.086 A 
ATOM     18  C2  <0> d           0.034  -0.004   0.000  0.00  0.00     0.052 A 
ATOM     19  C1  <0> d           0.023   1.504   0.008  0.00  0.00     0.072 C 
ATOM     20  N2  <0> d           0.054  -0.817   1.089  0.00  0.00    -0.280 N 
ATOM     21  N1  <0> d           0.055  -2.048   0.723  0.00  0.00    -0.167 NA
ATOM     22  H1  <0> d           0.065  -0.511   2.010  0.00  0.00     0.189 HD
BRANCH  17  23
ATOM     23  N4  <0> d           0.015  -0.407  -2.442  0.00  0.00    -0.395 N 
ATOM     24  H9  <0> d           0.006   0.536  -2.667  0.00  0.00     0.156 HD
ATOM     25  H10 <0> d           0.015  -1.074  -3.146  0.00  0.00     0.156 HD
ENDBRANCH  17  23
ENDBRANCH   1  16
TORSDOF 4
