REMARK  7 active torsions:
REMARK  status: ('A' for Active; 'I' for Inactive)
REMARK    1  A    between atoms: C4_4  and  C11_18 
REMARK    2  A    between atoms: C5_5  and  C7_7 
REMARK    3  A    between atoms: C7_7  and  N1_8 
REMARK    4  A    between atoms: N1_8  and  S1_9 
REMARK    5  A    between atoms: S1_9  and  C8_12 
REMARK    6  A    between atoms: C12_19  and  C13_20 
REMARK    7  A    between atoms: C13_20  and  O3_21 
ROOT
ATOM      1  C7  <0> d           1.223  -2.188  -0.022  0.00  0.00     0.172 C 
ENDROOT
BRANCH   1   2
ATOM      2  C5  <0> d           1.205  -0.681  -0.013  0.00  0.00    -0.021 A 
ATOM      3  C4  <0> d           2.403   0.033  -0.021  0.00  0.00     0.025 A 
ATOM      4  C3  <0> d           2.377   1.429  -0.013  0.00  0.00     0.021 A 
ATOM      5  C2  <0> d           1.169   2.093   0.002  0.00  0.00     0.002 A 
ATOM      6  C1  <0> d          -0.017   1.379   0.010  0.00  0.00     0.001 A 
ATOM      7  C6  <0> d           0.002  -0.004   0.002  0.00  0.00     0.010 A 
BRANCH   3   8
ATOM      8  C11 <0> d           3.655  -0.663  -0.037  0.00  0.00    -0.064 C 
ATOM      9  C12 <0> d           4.681  -1.233  -0.050  0.00  0.00    -0.075 C 
BRANCH   9  10
ATOM     10  C13 <0> d           5.967  -1.948  -0.067  0.00  0.00     0.258 C 
BRANCH  10  11
ATOM     11  O3  <0> d           5.729  -3.357  -0.072  0.00  0.00    -0.389 OA
ATOM     12  H13 <0> d           6.534  -3.893  -0.083  0.00  0.00     0.210 HD
ENDBRANCH  10  11
ENDBRANCH   9  10
ENDBRANCH   3   8
ENDBRANCH   1   2
BRANCH   1  13
ATOM     13  N1  <0> d           1.482  -2.681   1.333  0.00  0.00    -0.311 N 
ATOM     14  H8  <0> d           1.822  -2.077   2.012  0.00  0.00     0.172 HD
BRANCH  13  15
ATOM     15  S1  <0> d           1.195  -4.269   1.705  0.00  0.00     0.262 S 
ATOM     16  O1  <0> d           1.565  -4.440   3.067  0.00  0.00    -0.200 OA
ATOM     17  O2  <0> d          -0.108  -4.569   1.226  0.00  0.00    -0.200 OA
BRANCH  15  18
ATOM     18  C8  <0> d           2.318  -5.238   0.753  0.00  0.00     0.115 A 
ATOM     19  C10 <0> d           3.602  -5.631   1.145  0.00  0.00     0.165 A 
ATOM     20  N3  <0> d           4.124  -6.341   0.177  0.00  0.00    -0.186 NA
ATOM     21  N2  <0> d           3.192  -6.412  -0.866  0.00  0.00    -0.288 N 
ATOM     22  C9  <0> d           2.092  -5.728  -0.487  0.00  0.00     0.136 A 
ATOM     23  H1  <0> d           3.315  -6.873  -1.710  0.00  0.00     0.188 HD
ENDBRANCH  15  18
ENDBRANCH  13  15
ENDBRANCH   1  13
TORSDOF 7
