REMARK  8 active torsions:
REMARK  status: ('A' for Active; 'I' for Inactive)
REMARK    1  A    between atoms: C5_6  and  C9_11 
REMARK    2  A    between atoms: C9_11  and  C10_12 
REMARK    3  A    between atoms: C10_12  and  N2_13 
REMARK    4  A    between atoms: C12_16  and  C14_20 
REMARK    5  A    between atoms: C13_18  and  O2_19 
REMARK    6  A    between atoms: C14_20  and  C15_21 
REMARK    7  A    between atoms: C15_21  and  C16_22 
REMARK       I    between atoms: C16_22  and  N4_24 
REMARK    8  A    between atoms: N4_24  and  C17_25 
ROOT
ATOM      1  N2  <0> d           5.001  -3.593  -1.505  0.00  0.00    -0.280 N 
ATOM      2  C11 <0> d           6.301  -3.945  -1.418  0.00  0.00     0.252 A 
ATOM      3  O1  <0> d           7.259  -3.208  -1.317  0.00  0.00    -0.271 OA
ATOM      4  C12 <0> d           6.303  -5.460  -1.474  0.00  0.00     0.205 A 
ATOM      5  N3  <0> d           4.879  -5.810  -1.596  0.00  0.00    -0.236 NA
ATOM      6  C13 <0> d           4.204  -4.706  -1.601  0.00  0.00     0.244 A 
ENDROOT
BRANCH   1   7
ATOM      7  C10 <0> d           4.508  -2.214  -1.492  0.00  0.00     0.140 C 
BRANCH   7   8
ATOM      8  C9  <0> d           4.232  -1.784  -0.050  0.00  0.00     0.057 C 
BRANCH   8   9
ATOM      9  C5  <0> d           3.725  -0.365  -0.037  0.00  0.00    -0.048 A 
ATOM     10  C4  <0> d           4.557   0.898  -0.038  0.00  0.00     0.155 A 
ATOM     11  N1  <0> d           3.600   2.010  -0.023  0.00  0.00    -0.385 N 
ATOM     12  C3  <0> d           2.386   1.516  -0.013  0.00  0.00     0.039 A 
ATOM     13  H22 <0> d           3.828   2.953  -0.020  0.00  0.00     0.160 HD
ATOM     14  C2  <0> d           1.109   2.144   0.003  0.00  0.00     0.033 A 
ATOM     15  C6  <0> d           2.434   0.037  -0.021  0.00  0.00    -0.003 A 
ATOM     16  C1  <0> d          -0.017   1.400   0.010  0.00  0.00     0.044 A 
ATOM     17  C8  <0> d           0.002  -0.004   0.002  0.00  0.00     0.117 A 
ATOM     18  C7  <0> d           1.164  -0.699  -0.013  0.00  0.00     0.056 A 
ATOM     19  F1  <0> d          -1.169  -0.678   0.010  0.00  0.00    -0.206 F 
ENDBRANCH   8   9
ENDBRANCH   7   8
ENDBRANCH   1   7
BRANCH   6  20
ATOM     20  O2  <0> d           2.858  -4.654  -1.696  0.00  0.00    -0.331 OA
ATOM     21  H11 <0> d           2.434  -5.521  -1.757  0.00  0.00     0.221 HD
ENDBRANCH   6  20
BRANCH   4  22
ATOM     22  C14 <0> d           7.087  -5.951  -2.692  0.00  0.00     0.046 C 
BRANCH  22  23
ATOM     23  C15 <0> d           7.180  -7.478  -2.657  0.00  0.00     0.105 C 
BRANCH  23  24
ATOM     24  C16 <0> d           7.952  -7.962  -3.857  0.00  0.00     0.217 C 
ATOM     25  O3  <0> d           8.385  -7.165  -4.662  0.00  0.00    -0.274 OA
ATOM     26  N4  <0> d           8.161  -9.282  -4.037  0.00  0.00    -0.356 N 
ATOM     27  H16 <0> d           7.815  -9.919  -3.393  0.00  0.00     0.162 HD
BRANCH  26  28
ATOM     28  C17 <0> d           8.912  -9.752  -5.204  0.00  0.00     0.084 A 
ATOM     29  C19 <0> d           8.642 -11.178  -5.689  0.00  0.00     0.027 A 
ATOM     30  C18 <0> d           9.956 -10.848  -4.977  0.00  0.00     0.027 A 
ENDBRANCH  26  28
ENDBRANCH  23  24
ENDBRANCH  22  23
ENDBRANCH   4  22
TORSDOF 8
