REMARK  6 active torsions:
REMARK  status: ('A' for Active; 'I' for Inactive)
REMARK    1  A    between atoms: C7_7  and  N1_8 
REMARK    2  A    between atoms: N1_8  and  C8_9 
REMARK    3  A    between atoms: C9_11  and  C11_16 
REMARK    4  A    between atoms: C10_13  and  N5_15 
REMARK    5  A    between atoms: C11_16  and  N6_29 
REMARK    6  A    between atoms: C15_20  and  C17_22 
ROOT
ATOM      1  C8  <0> d          -4.563  -1.930   1.022  0.00  0.00     0.744 A 
ATOM      2  N2  <0> d          -4.443  -0.610   1.145  0.00  0.00    -0.044 NA
ATOM      3  C9  <0> d          -4.369  -0.060   2.345  0.00  0.00     0.190 A 
ATOM      4  N3  <0> d          -4.424  -0.817   3.427  0.00  0.00    -0.045 NA
ATOM      5  C10 <0> d          -4.550  -2.137   3.312  0.00  0.00     0.737 A 
ATOM      6  N4  <0> d          -4.620  -2.694   2.108  0.00  0.00     0.130 NA
ENDROOT
BRANCH   3   7
ATOM      7  C11 <0> d          -4.226   1.434   2.479  0.00  0.00     0.316 C 
BRANCH   7   8
ATOM      8  N6  <0> d          -2.800   1.820   2.504  0.00  0.00    -0.064 N 
ATOM      9  C12 <0> d          -2.148   1.267   3.711  0.00  0.00     0.235 C 
ATOM     10  C13 <0> d          -0.707   1.777   3.775  0.00  0.00     0.028 C 
ATOM     11  C14 <0> d           0.048   1.318   2.524  0.00  0.00     0.017 C 
ATOM     12  C15 <0> d          -0.679   1.836   1.280  0.00  0.00     0.119 C 
ATOM     13  C16 <0> d          -2.122   1.325   1.288  0.00  0.00     0.248 C 
ATOM     14  H22 <0> d          -2.732   2.844   2.529  0.00  0.00     0.280 HD
BRANCH  12  15
ATOM     15  C17 <0> d           0.035   1.332   0.024  0.00  0.00     0.393 C 
ATOM     16  F1  <0> d           0.035  -0.067   0.018  0.00  0.00    -0.171 F 
ATOM     17  F2  <0> d           1.354   1.798   0.019  0.00  0.00    -0.171 F 
ATOM     18  F3  <0> d          -0.631   1.803  -1.112  0.00  0.00    -0.171 F 
ENDBRANCH  12  15
ENDBRANCH   7   8
ENDBRANCH   3   7
BRANCH   1  19
ATOM     19  N1  <0> d          -4.634  -2.504  -0.232  0.00  0.00    -0.187 N 
ATOM     20  H9  <0> d          -4.679  -1.941  -1.021  0.00  0.00     0.184 HD
BRANCH  19  21
ATOM     21  C7  <0> d          -4.642  -3.896  -0.364  0.00  0.00     0.055 A 
ATOM     22  C2  <0> d          -5.207  -4.485  -1.488  0.00  0.00    -0.035 A 
ATOM     23  C1  <0> d          -5.813  -3.624  -2.567  0.00  0.00     0.050 C 
ATOM     24  C3  <0> d          -5.213  -5.860  -1.616  0.00  0.00     0.009 A 
ATOM     25  C4  <0> d          -4.657  -6.650  -0.627  0.00  0.00     0.001 A 
ATOM     26  C5  <0> d          -4.094  -6.067   0.494  0.00  0.00     0.002 A 
ATOM     27  C6  <0> d          -4.080  -4.692   0.625  0.00  0.00     0.030 A 
ENDBRANCH  19  21
ENDBRANCH   1  19
BRANCH   5  28
ATOM     28  N5  <0> d          -4.608  -2.926   4.443  0.00  0.00    -0.230 N 
ATOM     29  H10 <0> d          -4.557  -2.519   5.322  0.00  0.00     0.174 HD
ATOM     30  H11 <0> d          -4.700  -3.888   4.358  0.00  0.00     0.174 HD
ENDBRANCH   5  28
TORSDOF 6
