REMARK  9 active torsions:
REMARK  status: ('A' for Active; 'I' for Inactive)
REMARK    1  A    between atoms: C2_2  and  C3_3 
REMARK    2  A    between atoms: C3_3  and  N1_4 
REMARK       I    between atoms: N1_4  and  C4_5 
REMARK    3  A    between atoms: C4_5  and  C5_7 
REMARK    4  A    between atoms: C5_7  and  S1_8 
REMARK    5  A    between atoms: S1_8  and  C6_9 
REMARK    6  A    between atoms: C9_13  and  C16_23 
REMARK    7  A    between atoms: N3_19  and  C14_20 
REMARK    8  A    between atoms: C14_20  and  C15_21 
REMARK    9  A    between atoms: C15_21  and  O3_22 
ROOT
ATOM      1  C6  <0> d          -0.340   2.751   1.773  0.00  0.00     0.172 A 
ATOM      2  N2  <0> d          -0.913   3.238   2.846  0.00  0.00    -0.224 NA
ATOM      3  C7  <0> d          -1.904   2.572   3.484  0.00  0.00     0.076 A 
ATOM      4  C8  <0> d          -2.510   3.091   4.632  0.00  0.00     0.051 A 
ATOM      5  C9  <0> d          -3.523   2.373   5.253  0.00  0.00     0.043 A 
ATOM      6  C10 <0> d          -3.939   1.138   4.737  0.00  0.00     0.019 A 
ATOM      7  C11 <0> d          -3.354   0.622   3.616  0.00  0.00     0.020 A 
ATOM      8  C12 <0> d          -2.334   1.326   2.977  0.00  0.00     0.061 A 
ATOM      9  C13 <0> d          -1.678   0.806   1.767  0.00  0.00     0.262 A 
ATOM     10  O2  <0> d          -2.003  -0.261   1.281  0.00  0.00    -0.267 OA
ATOM     11  N3  <0> d          -0.698   1.558   1.213  0.00  0.00    -0.290 N 
ENDROOT
BRANCH   1  12
ATOM     12  S1  <0> d           0.947   3.683   1.011  0.00  0.00    -0.082 SA
BRANCH  12  13
ATOM     13  C5  <0> d           1.002   5.110   2.124  0.00  0.00     0.185 C 
BRANCH  13  14
ATOM     14  C4  <0> d           2.064   6.071   1.655  0.00  0.00     0.227 C 
ATOM     15  N1  <0> d           2.286   7.214   2.335  0.00  0.00    -0.360 N 
ATOM     16  H8  <0> d           1.762   7.417   3.126  0.00  0.00     0.162 HD
ATOM     17  O1  <0> d           2.719   5.817   0.667  0.00  0.00    -0.273 OA
BRANCH  15  18
ATOM     18  C3  <0> d           3.318   8.148   1.879  0.00  0.00     0.122 C 
BRANCH  18  19
ATOM     19  C2  <0> d           3.365   9.354   2.820  0.00  0.00     0.015 C 
ATOM     20  C1  <0> d           4.443  10.330   2.344  0.00  0.00     0.006 C 
ENDBRANCH  18  19
ENDBRANCH  15  18
ENDBRANCH  13  14
ENDBRANCH  12  13
ENDBRANCH   1  12
BRANCH  11  21
ATOM     21  C14 <0> d          -0.013   1.086   0.008  0.00  0.00     0.160 C 
BRANCH  21  22
ATOM     22  C15 <0> d          -0.753   1.593  -1.232  0.00  0.00     0.184 C 
BRANCH  22  23
ATOM     23  O3  <0> d          -0.672   3.018  -1.285  0.00  0.00    -0.399 OA
ATOM     24  H18 <0> d          -1.120   3.410  -2.047  0.00  0.00     0.209 HD
ENDBRANCH  22  23
ENDBRANCH  21  22
ENDBRANCH  11  21
BRANCH   5  25
ATOM     25  C16 <0> d          -4.170   2.915   6.468  0.00  0.00     0.209 C 
ATOM     26  O4  <0> d          -3.813   3.985   6.920  0.00  0.00    -0.644 OA
ATOM     27  O5  <0> d          -5.153   2.222   7.074  0.00  0.00    -0.644 OA
ENDBRANCH   5  25
TORSDOF 9
