REMARK  9 active torsions:
REMARK  status: ('A' for Active; 'I' for Inactive)
REMARK    1  A    between atoms: C2_2  and  C3_3 
REMARK    2  A    between atoms: C3_3  and  C4_4 
REMARK    3  A    between atoms: C4_4  and  C5_5 
REMARK       I    between atoms: C5_5  and  N1_7 
REMARK    4  A    between atoms: C7_9  and  C14_17 
REMARK       I    between atoms: C14_17  and  N3_19 
REMARK    5  A    between atoms: N3_19  and  C15_20 
REMARK    6  A    between atoms: C15_20  and  C16_21 
REMARK    7  A    between atoms: C16_21  and  N4_22 
REMARK    8  A    between atoms: N4_22  and  C17_23 
REMARK    9  A    between atoms: N4_22  and  C19_25 
ROOT
ATOM      1  C5  <0> d          -1.269  -2.359  -0.662  0.00  0.00     0.219 C 
ATOM      2  O1  <0> d          -2.080  -1.460  -0.735  0.00  0.00    -0.273 OA
ATOM      3  N1  <0> d          -1.685  -3.639  -0.606  0.00  0.00    -0.351 N 
ATOM      4  C6  <0> d          -0.853  -4.862  -0.509  0.00  0.00     0.140 C 
ATOM      5  C7  <0> d          -1.624  -5.782   0.464  0.00  0.00     0.106 C 
ATOM      6  C8  <0> d          -3.084  -5.307   0.379  0.00  0.00    -0.007 C 
ATOM      7  C9  <0> d          -3.080  -4.143  -0.622  0.00  0.00     0.136 C 
ATOM      8  C10 <0> d          -3.561  -4.819   1.744  0.00  0.00     0.039 C 
ATOM      9  C11 <0> d          -5.032  -4.406   1.648  0.00  0.00     0.233 C 
ATOM     10  N2  <0> d          -5.836  -5.552   1.207  0.00  0.00    -0.075 N 
ATOM     11  C12 <0> d          -5.433  -5.956  -0.145  0.00  0.00     0.233 C 
ATOM     12  C13 <0> d          -3.979  -6.435  -0.125  0.00  0.00     0.039 C 
ATOM     13  H19 <0> d          -5.697  -6.323   1.843  0.00  0.00     0.277 HD
ATOM     14  H39 <0> d          -6.812  -5.295   1.203  0.00  0.00     0.277 HD
ENDROOT
BRANCH   5  15
ATOM     15  C14 <0> d          -1.511  -7.220   0.026  0.00  0.00     0.224 C 
ATOM     16  O2  <0> d          -1.432  -7.490  -1.154  0.00  0.00    -0.273 OA
ATOM     17  N3  <0> d          -1.499  -8.205   0.945  0.00  0.00    -0.359 N 
ATOM     18  H24 <0> d          -1.562  -7.989   1.889  0.00  0.00     0.162 HD
BRANCH  17  19
ATOM     19  C15 <0> d          -1.389  -9.603   0.519  0.00  0.00     0.150 C 
BRANCH  19  20
ATOM     20  C16 <0> d          -1.398 -10.513   1.749  0.00  0.00     0.254 C 
BRANCH  20  21
ATOM     21  N4  <0> d          -1.288 -11.914   1.323  0.00  0.00    -0.070 N 
ATOM     22  H40 <0> d          -2.022 -12.123   0.662  0.00  0.00     0.279 HD
BRANCH  21  23
ATOM     23  C17 <0> d           0.018 -12.132   0.688  0.00  0.00     0.230 C 
ATOM     24  C18 <0> d           0.083 -13.554   0.128  0.00  0.00     0.034 C 
ENDBRANCH  21  23
BRANCH  21  25
ATOM     25  C19 <0> d          -1.417 -12.794   2.492  0.00  0.00     0.230 C 
ATOM     26  C20 <0> d          -2.835 -12.688   3.056  0.00  0.00     0.034 C 
ENDBRANCH  21  25
ENDBRANCH  20  21
ENDBRANCH  19  20
ENDBRANCH  17  19
ENDBRANCH   5  15
BRANCH   1  27
ATOM     27  C4  <0> d           0.204  -2.043  -0.634  0.00  0.00     0.103 C 
BRANCH  27  28
ATOM     28  C3  <0> d           0.404  -0.528  -0.710  0.00  0.00     0.009 C 
BRANCH  28  29
ATOM     29  C2  <0> d           1.899  -0.208  -0.681  0.00  0.00    -0.004 C 
ATOM     30  C1  <0> d           2.098   1.307  -0.756  0.00  0.00     0.005 C 
ENDBRANCH  28  29
ENDBRANCH  27  28
ENDBRANCH   1  27
TORSDOF 9
