REMARK  2 active torsions:
REMARK  status: ('A' for Active; 'I' for Inactive)
REMARK    1  A    between atoms: C6_6  and  C12_15 
REMARK    2  A    between atoms: C12_15  and  N2_16 
ROOT
ATOM      1  C1  <0> d           2.471   3.924  -0.001  0.00  0.00     0.049 C 
ATOM      2  C2  <0> d           1.165   3.172   0.007  0.00  0.00    -0.055 A 
ATOM      3  C3  <0> d          -0.014   3.863   0.021  0.00  0.00     0.021 A 
ATOM      4  C4  <0> d          -1.226   3.165   0.030  0.00  0.00    -0.008 A 
ATOM      5  C5  <0> d          -2.507   3.874   0.045  0.00  0.00     0.028 A 
ATOM      6  C6  <0> d          -3.650   3.145   0.036  0.00  0.00     0.039 A 
ATOM      7  C7  <0> d          -3.594   1.735   0.029  0.00  0.00     0.254 A 
ATOM      8  O1  <0> d          -4.634   1.099   0.031  0.00  0.00    -0.268 OA
ATOM      9  N1  <0> d          -2.423   1.075   0.020  0.00  0.00    -0.322 N 
ATOM     10  H1  <0> d          -2.411  -0.025   0.014  0.00  0.00     0.169 HD
ATOM     11  C8  <0> d          -1.225   1.757   0.017  0.00  0.00     0.045 A 
ATOM     12  C9  <0> d          -0.013   1.076   0.008  0.00  0.00     0.037 A 
ATOM     13  C10 <0> d           1.170   1.784   0.001  0.00  0.00    -0.054 A 
ATOM     14  C11 <0> d           2.482   1.043  -0.015  0.00  0.00     0.049 C 
ENDROOT
BRANCH   6  15
ATOM     15  C12 <0> d          -4.986   3.843   0.047  0.00  0.00     0.316 C 
BRANCH  15  16
ATOM     16  N2  <0> d          -5.483   3.970  -1.329  0.00  0.00     0.096 N 
ATOM     17  C16 <0> d          -6.879   4.428  -1.345  0.00  0.00     0.300 C 
ATOM     18  C15 <0> d          -7.333   4.623  -2.793  0.00  0.00     0.262 C 
ATOM     19  N3  <0> d          -7.189   3.357  -3.524  0.00  0.00    -0.072 N 
ATOM     20  C14 <0> d          -5.793   2.899  -3.509  0.00  0.00     0.262 C 
ATOM     21  H17 <0> d          -7.514   3.509  -4.564  0.00  0.00     0.277 HD
ATOM     22  H22 <0> d          -7.829   2.599  -3.048  0.00  0.00     0.277 HD
ATOM     23  C13 <0> d          -5.339   2.703  -2.060  0.00  0.00     0.300 C 
ENDBRANCH  15  16
ENDBRANCH   6  15
TORSDOF 2
