REMARK  4 active torsions:
REMARK  status: ('A' for Active; 'I' for Inactive)
REMARK    1  A    between atoms: C4_5  and  C5_6 
REMARK    2  A    between atoms: C5_6  and  N1_7 
REMARK       I    between atoms: N2_10  and  C10_13 
REMARK    3  A    between atoms: C10_13  and  C11_15 
REMARK    4  A    between atoms: C11_15  and  N3_16 
ROOT
ATOM      1  N1  <0> d          -5.437   3.730   2.192  0.00  0.00     0.095 N 
ATOM      2  C6  <0> d          -4.653   3.043   3.227  0.00  0.00     0.292 C 
ATOM      3  C7  <0> d          -3.176   3.425   3.082  0.00  0.00     0.156 C 
ATOM      4  N2  <0> d          -2.756   3.151   1.700  0.00  0.00    -0.347 N 
ATOM      5  C8  <0> d          -3.570   3.698   0.604  0.00  0.00     0.156 C 
ATOM      6  C9  <0> d          -5.034   3.300   0.846  0.00  0.00     0.292 C 
ATOM      7  C10 <0> d          -1.651   2.422   1.444  0.00  0.00     0.238 C 
ATOM      8  O1  <0> d          -0.989   1.983   2.360  0.00  0.00    -0.272 OA
ENDROOT
BRANCH   7   9
ATOM      9  C11 <0> d          -1.239   2.153   0.020  0.00  0.00     0.239 C 
BRANCH   9  10
ATOM     10  N3  <0> d          -0.016   1.346   0.009  0.00  0.00    -0.259 N 
ATOM     11  C18 <0> d           1.222   1.856   0.000  0.00  0.00     0.326 A 
ATOM     12  N4  <0> d           2.171   0.899  -0.014  0.00  0.00    -0.324 N 
ATOM     13  O3  <0> d           1.463   3.047   0.004  0.00  0.00    -0.247 OA
ATOM     14  C13 <0> d           1.461  -0.382  -0.014  0.00  0.00     0.116 A 
ATOM     15  H24 <0> d           3.271   0.918  -0.024  0.00  0.00     0.165 HD
ATOM     16  C12 <0> d           0.002  -0.004   0.002  0.00  0.00     0.256 A 
ATOM     17  C17 <0> d           1.831  -1.226   1.208  0.00  0.00     0.041 C 
ATOM     18  C14 <0> d           1.804  -1.205  -1.263  0.00  0.00     0.041 C 
ATOM     19  O2  <0> d          -0.952  -0.753   0.007  0.00  0.00    -0.270 OA
ATOM     20  C16 <0> d           2.390  -2.558   0.661  0.00  0.00     0.003 C 
ATOM     21  C15 <0> d           2.878  -2.208  -0.767  0.00  0.00     0.003 C 
ENDBRANCH   9  10
ENDBRANCH   7   9
BRANCH   1  22
ATOM     22  C5  <0> d          -6.877   3.528   2.401  0.00  0.00     0.311 C 
BRANCH  22  23
ATOM     23  C4  <0> d          -7.634   4.031   1.199  0.00  0.00    -0.023 A 
ATOM     24  C1  <0> d          -8.070   5.341   1.143  0.00  0.00     0.016 A 
ATOM     25  C2  <0> d          -8.744   5.763   0.045  0.00  0.00     0.050 A 
ATOM     26  S1  <0> d          -8.791   4.282  -0.951  0.00  0.00    -0.113 SA
ATOM     27  C3  <0> d          -7.903   3.203   0.160  0.00  0.00     0.058 A 
ENDBRANCH  22  23
ENDBRANCH   1  22
TORSDOF 4
