REMARK  5 active torsions:
REMARK  status: ('A' for Active; 'I' for Inactive)
REMARK    1  A    between atoms: C4_4  and  N3_29 
REMARK    2  A    between atoms: C5_5  and  C7_7 
REMARK       I    between atoms: C7_7  and  N1_9 
REMARK    3  A    between atoms: N1_9  and  C8_10 
REMARK    4  A    between atoms: C9_11  and  C16_19 
REMARK       I    between atoms: C16_19  and  N2_21 
REMARK    5  A    between atoms: N2_21  and  C17_22 
ROOT
ATOM      1  C8  <0> d          -2.449  -2.796   0.256  0.00  0.00     0.093 A 
ATOM      2  C9  <0> d          -2.637  -4.166   0.382  0.00  0.00     0.073 A 
ATOM      3  C10 <0> d          -4.004  -4.657   0.402  0.00  0.00    -0.026 A 
ATOM      4  C11 <0> d          -4.959  -3.707   0.294  0.00  0.00    -0.008 A 
ATOM      5  S1  <0> d          -4.067  -2.182   0.175  0.00  0.00    -0.075 SA
ATOM      6  C12 <0> d          -6.442  -3.913   0.285  0.00  0.00     0.047 C 
ATOM      7  C13 <0> d          -6.721  -5.404   0.041  0.00  0.00     0.005 C 
ATOM      8  C14 <0> d          -5.835  -6.232   0.976  0.00  0.00     0.005 C 
ATOM      9  C15 <0> d          -4.374  -6.129   0.535  0.00  0.00     0.041 C 
ENDROOT
BRANCH   1  10
ATOM     10  N1  <0> d          -1.258  -2.091   0.212  0.00  0.00    -0.316 N 
ATOM     11  C7  <0> d          -1.273  -0.749   0.085  0.00  0.00     0.259 C 
ATOM     12  O1  <0> d          -2.332  -0.158   0.009  0.00  0.00    -0.267 OA
ATOM     13  H6  <0> d          -0.412  -2.563   0.273  0.00  0.00     0.169 HD
BRANCH  11  14
ATOM     14  C5  <0> d          -0.001   0.003   0.039  0.00  0.00     0.065 A 
ATOM     15  C4  <0> d           0.269   0.856  -1.032  0.00  0.00     0.118 A 
ATOM     16  C3  <0> d           1.458   1.555  -1.069  0.00  0.00     0.037 A 
ATOM     17  C2  <0> d           2.381   1.412  -0.049  0.00  0.00     0.002 A 
ATOM     18  C1  <0> d           2.119   0.567   1.016  0.00  0.00     0.001 A 
ATOM     19  C6  <0> d           0.934  -0.138   1.065  0.00  0.00     0.020 A 
BRANCH  15  20
ATOM     20  N3  <0> d          -0.714   1.006  -2.128  0.00  0.00    -0.115 N 
ATOM     21  O5  <0> d          -0.530   1.834  -3.002  0.00  0.00    -0.532 OA
ATOM     22  O6  <0> d          -1.708   0.302  -2.155  0.00  0.00    -0.532 OA
ENDBRANCH  15  20
ENDBRANCH  11  14
ENDBRANCH   1  10
BRANCH   2  23
ATOM     23  C16 <0> d          -1.498  -5.083   0.490  0.00  0.00     0.255 C 
ATOM     24  O2  <0> d          -1.045  -5.364   1.584  0.00  0.00    -0.268 OA
ATOM     25  N2  <0> d          -0.953  -5.614  -0.622  0.00  0.00    -0.351 N 
ATOM     26  H15 <0> d          -1.314  -5.390  -1.494  0.00  0.00     0.163 HD
BRANCH  25  27
ATOM     27  C17 <0> d           0.185  -6.530  -0.514  0.00  0.00     0.099 C 
ATOM     28  C20 <0> d           0.998  -6.498  -1.831  0.00  0.00     0.165 C 
ATOM     29  S2  <0> d           1.653  -8.213  -1.943  0.00  0.00     0.146 S 
ATOM     30  C19 <0> d           0.855  -8.943  -0.452  0.00  0.00     0.142 C 
ATOM     31  O3  <0> d           1.120  -8.836  -3.104  0.00  0.00    -0.228 OA
ATOM     32  O4  <0> d           3.060  -8.184  -1.748  0.00  0.00    -0.228 OA
ATOM     33  C18 <0> d          -0.330  -7.955  -0.250  0.00  0.00     0.041 C 
ENDBRANCH  25  27
ENDBRANCH   2  23
TORSDOF 5
