REMARK  6 active torsions:
REMARK  status: ('A' for Active; 'I' for Inactive)
REMARK    1  A    between atoms: O1_2  and  C2_3 
REMARK    2  A    between atoms: C2_3  and  C3_5 
REMARK    3  A    between atoms: C5_7  and  S2_19 
REMARK    4  A    between atoms: C6_8  and  N2_11 
REMARK    5  A    between atoms: N2_11  and  C8_12 
REMARK    6  A    between atoms: S2_19  and  N3_22 
ROOT
ATOM      1  C3  <0> d          -1.341  -1.977  -0.083  0.00  0.00     0.058 A 
ATOM      2  C4  <0> d          -2.552  -2.663  -0.260  0.00  0.00     0.048 A 
ATOM      3  C5  <0> d          -2.529  -4.031  -0.289  0.00  0.00     0.126 A 
ATOM      4  C6  <0> d          -1.314  -4.698  -0.143  0.00  0.00     0.147 A 
ATOM      5  N1  <0> d          -0.183  -4.026   0.023  0.00  0.00    -0.241 NA
ATOM      6  C7  <0> d          -0.160  -2.710   0.051  0.00  0.00     0.136 A 
ENDROOT
BRANCH   3   7
ATOM      7  S2  <0> d          -4.022  -4.941  -0.508  0.00  0.00     0.264 S 
ATOM      8  O5  <0> d          -4.011  -5.979   0.462  0.00  0.00    -0.200 OA
ATOM      9  O6  <0> d          -5.072  -3.986  -0.591  0.00  0.00    -0.200 OA
BRANCH   7  10
ATOM     10  N3  <0> d          -3.934  -5.677  -1.989  0.00  0.00    -0.303 N 
ATOM     11  C15 <0> d          -3.526  -7.085  -2.113  0.00  0.00     0.161 C 
ATOM     12  C14 <0> d          -2.419  -7.181  -3.163  0.00  0.00     0.188 C 
ATOM     13  O7  <0> d          -2.851  -6.537  -4.365  0.00  0.00    -0.388 OA
ATOM     14  C13 <0> d          -3.110  -5.139  -4.219  0.00  0.00     0.188 C 
ATOM     15  C12 <0> d          -4.257  -4.940  -3.221  0.00  0.00     0.161 C 
ENDBRANCH   7  10
ENDBRANCH   3   7
BRANCH   4  16
ATOM     16  N2  <0> d          -1.287  -6.082  -0.172  0.00  0.00    -0.368 N 
ATOM     17  H7  <0> d          -2.117  -6.582  -0.213  0.00  0.00     0.161 HD
BRANCH  16  18
ATOM     18  C8  <0> d          -0.005  -6.791  -0.140  0.00  0.00     0.098 C 
ATOM     19  C11 <0> d          -0.166  -8.175  -0.814  0.00  0.00     0.165 C 
ATOM     20  S1  <0> d           1.031  -9.218   0.112  0.00  0.00     0.146 S 
ATOM     21  C10 <0> d           1.623  -7.982   1.345  0.00  0.00     0.142 C 
ATOM     22  O3  <0> d           2.108  -9.563  -0.749  0.00  0.00    -0.228 OA
ATOM     23  O4  <0> d           0.322 -10.245   0.791  0.00  0.00    -0.228 OA
ATOM     24  C9  <0> d           0.443  -6.969   1.321  0.00  0.00     0.041 C 
ENDBRANCH  16  18
ENDBRANCH   4  16
BRANCH   1  25
ATOM     25  C2  <0> d          -1.314  -0.504  -0.045  0.00  0.00     0.294 C 
ATOM     26  O2  <0> d          -2.347   0.126  -0.162  0.00  0.00    -0.259 OA
BRANCH  25  27
ATOM     27  O1  <0> d          -0.145   0.146   0.120  0.00  0.00    -0.322 OA
ATOM     28  C1  <0> d          -0.194   1.573   0.148  0.00  0.00     0.213 C 
ENDBRANCH  25  27
ENDBRANCH   1  25
TORSDOF 6
