REMARK  6 active torsions:
REMARK  status: ('A' for Active; 'I' for Inactive)
REMARK    1  A    between atoms: O1_2  and  C2_3 
REMARK    2  A    between atoms: C2_3  and  C3_4 
REMARK    3  A    between atoms: C5_6  and  C10_12 
REMARK    4  A    between atoms: C8_9  and  O2_10 
REMARK    5  A    between atoms: C20_24  and  C21_25 
REMARK    6  A    between atoms: C21_25  and  O4_27 
ROOT
ATOM      1  C10 <0> d           1.239   2.188   0.002  0.00  0.00     0.270 C 
ATOM      2  C11 <0> d          -0.016   1.348   0.009  0.00  0.00     0.052 A 
ATOM      3  C12 <0> d           0.002  -0.004   0.002  0.00  0.00    -0.018 A 
ATOM      4  C13 <0> d          -1.373  -0.450   0.013  0.00  0.00    -0.001 A 
ATOM      5  C14 <0> d          -1.961  -1.719   0.013  0.00  0.00     0.014 A 
ATOM      6  C15 <0> d          -3.333  -1.768   0.026  0.00  0.00     0.001 A 
ATOM      7  C16 <0> d          -4.111  -0.621   0.036  0.00  0.00     0.002 A 
ATOM      8  C17 <0> d          -3.556   0.647   0.037  0.00  0.00     0.030 A 
ATOM      9  C18 <0> d          -2.165   0.728   0.026  0.00  0.00     0.043 A 
ATOM     10  N1  <0> d          -1.310   1.793   0.018  0.00  0.00    -0.356 N 
ATOM     11  H2  <0> d          -1.580   2.725   0.025  0.00  0.00     0.166 HD
ATOM     12  C19 <0> d           1.271  -0.819  -0.016  0.00  0.00     0.085 C 
ATOM     13  C20 <0> d           2.424   0.110  -0.422  0.00  0.00     0.290 C 
ATOM     14  N2  <0> d           2.383   1.338   0.398  0.00  0.00    -0.048 N 
ATOM     15  H24 <0> d           2.286   1.080   1.387  0.00  0.00     0.279 HD
ATOM     16  H25 <0> d           3.256   1.862   0.265  0.00  0.00     0.279 HD
ENDROOT
BRANCH   1  17
ATOM     17  C5  <0> d           1.098   3.319   0.989  0.00  0.00    -0.021 A 
ATOM     18  C4  <0> d           0.768   4.585   0.544  0.00  0.00     0.021 A 
ATOM     19  C3  <0> d           0.633   5.622   1.448  0.00  0.00    -0.001 A 
ATOM     20  C8  <0> d           0.838   5.393   2.800  0.00  0.00     0.076 A 
ATOM     21  C7  <0> d           1.174   4.122   3.243  0.00  0.00     0.038 A 
ATOM     22  C6  <0> d           1.303   3.088   2.337  0.00  0.00     0.012 A 
BRANCH  19  23
ATOM     23  C2  <0> d           0.267   7.002   0.963  0.00  0.00     0.208 C 
BRANCH  23  24
ATOM     24  O1  <0> d           0.110   6.982  -0.457  0.00  0.00    -0.391 OA
ATOM     25  C1  <0> d          -0.239   8.247  -1.021  0.00  0.00     0.201 C 
ENDBRANCH  23  24
ENDBRANCH  19  23
BRANCH  20  26
ATOM     26  O2  <0> d           0.711   6.413   3.690  0.00  0.00    -0.355 OA
ATOM     27  C9  <0> d           0.937   6.104   5.067  0.00  0.00     0.210 C 
ENDBRANCH  20  26
ENDBRANCH   1  17
BRANCH  13  28
ATOM     28  C21 <0> d           3.738  -0.591  -0.192  0.00  0.00     0.289 C 
ATOM     29  O3  <0> d           4.388  -0.349   0.797  0.00  0.00    -0.263 OA
BRANCH  28  30
ATOM     30  O4  <0> d           4.188  -1.485  -1.087  0.00  0.00    -0.325 OA
ATOM     31  C22 <0> d           5.461  -2.122  -0.801  0.00  0.00     0.213 C 
ENDBRANCH  28  30
ENDBRANCH  13  28
TORSDOF 6
