REMARK  9 active torsions:
REMARK  status: ('A' for Active; 'I' for Inactive)
REMARK    1  A    between atoms: C2_2  and  C3_3 
REMARK    2  A    between atoms: C3_3  and  N1_4 
REMARK    3  A    between atoms: N1_4  and  C4_5 
REMARK    4  A    between atoms: C4_5  and  C5_6 
REMARK    5  A    between atoms: C10_11  and  O1_12 
REMARK    6  A    between atoms: O1_12  and  C11_13 
REMARK    7  A    between atoms: C11_13  and  C12_14 
REMARK    8  A    between atoms: C12_14  and  C13_15 
REMARK    9  A    between atoms: C13_15  and  N2_16 
ROOT
ATOM      1  C5  <0> d           1.446  -3.947  -2.482  0.00  0.00     0.002 A 
ATOM      2  C6  <0> d           2.582  -4.625  -2.082  0.00  0.00     0.012 A 
ATOM      3  C7  <0> d           2.602  -6.007  -2.089  0.00  0.00     0.002 A 
ATOM      4  C8  <0> d           1.486  -6.715  -2.496  0.00  0.00     0.022 A 
ATOM      5  C9  <0> d           0.347  -6.042  -2.897  0.00  0.00     0.044 A 
ATOM      6  C10 <0> d           0.324  -4.654  -2.885  0.00  0.00     0.094 A 
ATOM      7 Br1  <0> d          -1.179  -7.010  -3.454  0.00  0.00    -0.048 Br
ENDROOT
BRANCH   6   8
ATOM      8  O1  <0> d          -0.796  -3.989  -3.274  0.00  0.00    -0.349 OA
BRANCH   8   9
ATOM      9  C11 <0> d          -0.907  -3.659  -4.660  0.00  0.00     0.177 C 
BRANCH   9  10
ATOM     10  C12 <0> d          -2.223  -2.919  -4.905  0.00  0.00     0.054 C 
BRANCH  10  11
ATOM     11  C13 <0> d          -2.342  -2.566  -6.389  0.00  0.00     0.237 C 
BRANCH  11  12
ATOM     12  N2  <0> d          -3.606  -1.855  -6.624  0.00  0.00    -0.071 N 
ATOM     13  C17 <0> d          -3.793  -1.612  -8.071  0.00  0.00     0.235 C 
ATOM     14  C16 <0> d          -4.484  -0.243  -8.213  0.00  0.00     0.029 C 
ATOM     15  C15 <0> d          -4.644   0.280  -6.768  0.00  0.00     0.029 C 
ATOM     16  C14 <0> d          -3.564  -0.513  -5.990  0.00  0.00     0.235 C 
ATOM     17  H29 <0> d          -4.379  -2.390  -6.258  0.00  0.00     0.279 HD
ENDBRANCH  11  12
ENDBRANCH  10  11
ENDBRANCH   9  10
ENDBRANCH   8   9
ENDBRANCH   6   8
BRANCH   1  18
ATOM     18  C4  <0> d           1.426  -2.440  -2.474  0.00  0.00     0.273 C 
BRANCH  18  19
ATOM     19  N1  <0> d           0.738  -1.966  -1.265  0.00  0.00    -0.071 N 
ATOM     20  H8  <0> d           1.226  -2.301  -0.447  0.00  0.00     0.277 HD
ATOM     21  H28 <0> d          -0.208  -2.316  -1.258  0.00  0.00     0.277 HD
BRANCH  19  22
ATOM     22  C3  <0> d           0.718  -0.497  -1.257  0.00  0.00     0.232 C 
BRANCH  22  23
ATOM     23  C2  <0> d           0.002  -0.004   0.002  0.00  0.00     0.023 C 
ATOM     24  C1  <0> d          -0.019   1.526   0.010  0.00  0.00     0.007 C 
ENDBRANCH  22  23
ENDBRANCH  19  22
ENDBRANCH  18  19
ENDBRANCH   1  18
TORSDOF 9
