REMARK  4 active torsions:
REMARK  status: ('A' for Active; 'I' for Inactive)
REMARK    1  A    between atoms: C3_3  and  C6_8 
REMARK    2  A    between atoms: C6_8  and  N3_10 
REMARK       I    between atoms: N3_10  and  C8_11 
REMARK    3  A    between atoms: C8_11  and  C9_13 
REMARK    4  A    between atoms: C11_16  and  C12_18 
ROOT
ATOM      1  N3  <0> d          -0.579  -1.372  -3.378  0.00  0.00    -0.348 N 
ATOM      2  C8  <0> d          -1.156  -1.045  -4.552  0.00  0.00     0.260 C 
ATOM      3  O1  <0> d          -1.201   0.119  -4.904  0.00  0.00    -0.267 OA
ATOM      4  H12 <0> d          -0.543  -2.300  -3.098  0.00  0.00     0.163 HD
ENDROOT
BRANCH   2   5
ATOM      5  C9  <0> d          -1.729  -2.090  -5.402  0.00  0.00     0.092 A 
ATOM      6  S1  <0> d          -1.806  -3.856  -5.145  0.00  0.00    -0.063 SA
ATOM      7  C11 <0> d          -2.606  -4.265  -6.568  0.00  0.00     0.111 A 
ATOM      8  N4  <0> d          -2.776  -3.100  -7.173  0.00  0.00    -0.251 NA
ATOM      9  C10 <0> d          -2.358  -1.984  -6.636  0.00  0.00     0.142 A 
BRANCH   7  10
ATOM     10  C12 <0> d          -3.016  -5.605  -7.033  0.00  0.00     0.036 A 
ATOM     11  C14 <0> d          -3.667  -5.898  -8.213  0.00  0.00     0.127 A 
ATOM     12  N6  <0> d          -3.849  -7.231  -8.252  0.00  0.00    -0.285 N 
ATOM     13  N5  <0> d          -3.318  -7.784  -7.082  0.00  0.00    -0.185 NA
ATOM     14  C15 <0> d          -4.500  -7.975  -9.333  0.00  0.00     0.179 C 
ATOM     15  C13 <0> d          -2.820  -6.825  -6.350  0.00  0.00     0.154 A 
ENDBRANCH   7  10
ENDBRANCH   2   5
BRANCH   1  16
ATOM     16  C6  <0> d          -0.006  -0.327  -2.527  0.00  0.00     0.117 C 
ATOM     17  C7  <0> d           1.425  -0.028  -2.980  0.00  0.00     0.037 C 
BRANCH  16  18
ATOM     18  C3  <0> d           0.008  -0.796  -1.095  0.00  0.00     0.007 A 
ATOM     19  C2  <0> d           0.002  -0.004   0.002  0.00  0.00     0.036 A 
ATOM     20  C1  <0> d          -0.018   1.503   0.010  0.00  0.00     0.070 C 
ATOM     21  N2  <0> d           0.024  -0.805   1.088  0.00  0.00    -0.278 N 
ATOM     22  N1  <0> d           0.035  -2.134   0.643  0.00  0.00    -0.184 NA
ATOM     23  C5  <0> d           0.031  -0.364   2.485  0.00  0.00     0.179 C 
ATOM     24  C4  <0> d           0.028  -2.127  -0.666  0.00  0.00     0.150 A 
ENDBRANCH  16  18
ENDBRANCH   1  16
TORSDOF 4
