REMARK  6 active torsions:
REMARK  status: ('A' for Active; 'I' for Inactive)
REMARK    1  A    between atoms: N3_18  and  C17_26 
REMARK    2  A    between atoms: C13_19  and  N4_25 
REMARK    3  A    between atoms: C14_20  and  C15_21 
REMARK    4  A    between atoms: C15_21  and  O4_23 
REMARK    5  A    between atoms: C17_26  and  C18_27 
REMARK    6  A    between atoms: C18_27  and  O6_29 
ROOT
ATOM      1  C1  <0> d          -0.754  -0.655   0.476  0.00  0.00     0.073 C 
ATOM      2  C2  <0> d           0.300   0.375   0.164  0.00  0.00     0.063 A 
ATOM      3  C3  <0> d           0.073   1.726  -0.087  0.00  0.00     0.049 A 
ATOM      4  C4  <0> d           1.270   2.327  -0.327  0.00  0.00     0.177 A 
ATOM      5  N1  <0> d           2.222   1.365  -0.225  0.00  0.00    -0.256 N 
ATOM      6  H1  <0> d           3.281   1.620  -0.382  0.00  0.00     0.191 HD
ATOM      7  N2  <0> d           1.588   0.155   0.082  0.00  0.00    -0.177 NA
ATOM      8  O1  <0> d           1.118   3.649  -0.578  0.00  0.00    -0.258 OA
ATOM      9  C5  <0> d          -0.161   4.045  -0.530  0.00  0.00     0.288 A 
ATOM     10  O2  <0> d          -0.583   5.163  -0.712  0.00  0.00    -0.263 OA
ATOM     11  C6  <0> d          -0.971   2.811  -0.199  0.00  0.00     0.147 A 
ATOM     12  C7  <0> d          -1.926   2.504  -1.316  0.00  0.00    -0.003 A 
ATOM     13  C8  <0> d          -1.512   2.644  -2.629  0.00  0.00     0.011 A 
ATOM     14  C9  <0> d          -2.380   2.364  -3.666  0.00  0.00     0.001 A 
ATOM     15  C10 <0> d          -3.669   1.941  -3.399  0.00  0.00     0.002 A 
ATOM     16  C11 <0> d          -4.091   1.799  -2.092  0.00  0.00     0.030 A 
ATOM     17  C12 <0> d          -3.220   2.082  -1.046  0.00  0.00     0.044 A 
ATOM     18  N3  <0> d          -3.655   1.945   0.275  0.00  0.00    -0.323 N 
ATOM     19  C13 <0> d          -2.970   2.554   1.292  0.00  0.00     0.116 C 
ATOM     20  C14 <0> d          -1.682   2.990   1.107  0.00  0.00     0.089 C 
ENDROOT
BRANCH  20  21
ATOM     21  C15 <0> d          -1.015   3.617   2.167  0.00  0.00     0.294 C 
ATOM     22  O3  <0> d          -1.612   3.871   3.198  0.00  0.00    -0.259 OA
BRANCH  21  23
ATOM     23  O4  <0> d           0.291   3.941   2.045  0.00  0.00    -0.323 OA
ATOM     24  C16 <0> d           0.908   4.580   3.165  0.00  0.00     0.213 C 
ENDBRANCH  21  23
ENDBRANCH  20  21
BRANCH  19  25
ATOM     25  N4  <0> d          -3.578   2.731   2.509  0.00  0.00    -0.385 N 
ATOM     26  H12 <0> d          -3.033   3.220   3.330  0.00  0.00     0.157 HD
ATOM     27  H13 <0> d          -4.610   2.383   2.663  0.00  0.00     0.157 HD
ENDBRANCH  19  25
BRANCH  18  28
ATOM     28  C17 <0> d          -4.846   1.146   0.572  0.00  0.00     0.241 C 
BRANCH  28  29
ATOM     29  C18 <0> d          -6.066   2.031   0.536  0.00  0.00     0.276 C 
ATOM     30  O5  <0> d          -5.961   3.192   0.216  0.00  0.00    -0.263 OA
BRANCH  29  31
ATOM     31  O6  <0> d          -7.268   1.531   0.860  0.00  0.00    -0.325 OA
ATOM     32  C19 <0> d          -8.398   2.441   0.803  0.00  0.00     0.213 C 
ENDBRANCH  29  31
ENDBRANCH  28  29
ENDBRANCH  18  28
TORSDOF 6
