REMARK  5 active torsions:
REMARK  status: ('A' for Active; 'I' for Inactive)
REMARK    1  A    between atoms: C3_3  and  C15_18 
REMARK    2  A    between atoms: C7_10  and  C8_11 
REMARK       I    between atoms: C15_18  and  N4_20 
REMARK    3  A    between atoms: N4_20  and  C16_21 
REMARK    4  A    between atoms: C16_21  and  C17_22 
REMARK    5  A    between atoms: C17_22  and  C18_23 
ROOT
ATOM      1  C1  <0> d          -0.054   1.552   0.051  0.00  0.00     0.040 C 
ATOM      2  C2  <0> d          -0.007   0.023   0.021  0.00  0.00     0.146 A 
ATOM      3  C3  <0> d          -1.433  -0.495   0.060  0.00  0.00     0.049 A 
ATOM      4  C4  <0> d          -1.770  -1.329   1.089  0.00  0.00     0.104 A 
ATOM      5  N1  <0> d          -0.893  -1.678   2.020  0.00  0.00    -0.350 N 
ATOM      6  C5  <0> d           0.362  -1.274   2.059  0.00  0.00     0.136 A 
ATOM      7  N2  <0> d           0.874  -0.429   1.107  0.00  0.00    -0.267 N 
ATOM      8  N3  <0> d           2.211  -0.184   1.420  0.00  0.00    -0.300 N 
ATOM      9  C6  <0> d           2.541  -0.861   2.555  0.00  0.00     0.037 A 
ATOM     10  C7  <0> d           1.460  -1.548   2.993  0.00  0.00     0.043 A 
ATOM     11  C14 <0> d           3.895  -0.852   3.215  0.00  0.00     0.070 C 
ATOM     12  H6  <0> d           2.812   0.380   0.909  0.00  0.00     0.187 HD
ATOM     13  H27 <0> d          -1.197  -2.273   2.723  0.00  0.00     0.166 HD
ENDROOT
BRANCH   3  14
ATOM     14  C15 <0> d          -2.371  -0.131  -0.923  0.00  0.00     0.251 C 
ATOM     15  O1  <0> d          -3.537  -0.465  -0.807  0.00  0.00    -0.268 OA
ATOM     16  N4  <0> d          -1.981   0.589  -1.994  0.00  0.00    -0.357 N 
ATOM     17  H15 <0> d          -1.041   0.792  -2.125  0.00  0.00     0.162 HD
BRANCH  16  18
ATOM     18  C16 <0> d          -2.974   1.063  -2.960  0.00  0.00     0.127 C 
BRANCH  18  19
ATOM     19  C17 <0> d          -2.272   1.847  -4.071  0.00  0.00     0.056 C 
BRANCH  19  20
ATOM     20  C18 <0> d          -3.295   2.336  -5.064  0.00  0.00    -0.048 A 
ATOM     21  C25 <0> d          -3.857   1.570  -6.241  0.00  0.00     0.155 A 
ATOM     22  N5  <0> d          -4.812   2.475  -6.891  0.00  0.00    -0.385 N 
ATOM     23  C24 <0> d          -4.829   3.608  -6.232  0.00  0.00     0.038 A 
ATOM     24  H26 <0> d          -5.340   2.270  -7.678  0.00  0.00     0.160 HD
ATOM     25  C19 <0> d          -3.892   3.549  -5.087  0.00  0.00    -0.006 A 
ATOM     26  C23 <0> d          -5.562   4.810  -6.433  0.00  0.00     0.030 A 
ATOM     27  C20 <0> d          -3.773   4.732  -4.226  0.00  0.00     0.014 A 
ATOM     28  C21 <0> d          -4.518   5.825  -4.507  0.00  0.00     0.001 A 
ATOM     29  C22 <0> d          -5.399   5.857  -5.597  0.00  0.00     0.002 A 
ENDBRANCH  19  20
ENDBRANCH  18  19
ENDBRANCH  16  18
ENDBRANCH   3  14
BRANCH  10  30
ATOM     30  C8  <0> d           1.396  -2.411   4.197  0.00  0.00    -0.020 A 
ATOM     31  C13 <0> d           1.560  -1.856   5.465  0.00  0.00     0.012 A 
ATOM     32  C12 <0> d           1.493  -2.663   6.582  0.00  0.00     0.001 A 
ATOM     33  C11 <0> d           1.277  -4.022   6.445  0.00  0.00     0.000 A 
ATOM     34  C10 <0> d           1.120  -4.580   5.189  0.00  0.00     0.001 A 
ATOM     35  C9  <0> d           1.178  -3.782   4.065  0.00  0.00     0.012 A 
ENDBRANCH  10  30
TORSDOF 5
