REMARK  4 active torsions:
REMARK  status: ('A' for Active; 'I' for Inactive)
REMARK    1  A    between atoms: C5_5  and  C8_8 
REMARK    2  A    between atoms: C8_8  and  O2_31 
REMARK       I    between atoms: N1_11  and  C12_13 
REMARK    3  A    between atoms: C12_13  and  C13_15 
REMARK    4  A    between atoms: C18_21  and  C19_24 
ROOT
ATOM      1  C13 <0> d          -3.964   0.439  -0.269  0.00  0.00     0.149 A 
ATOM      2  C14 <0> d          -4.310   1.795  -0.244  0.00  0.00     0.091 A 
ATOM      3  C15 <0> d          -3.139   2.524  -0.108  0.00  0.00     0.153 A 
ATOM      4  N2  <0> d          -2.900   3.841  -0.032  0.00  0.00    -0.241 NA
ATOM      5  C16 <0> d          -1.679   4.307   0.098  0.00  0.00     0.121 A 
ATOM      6  C17 <0> d          -0.592   3.432   0.166  0.00  0.00     0.052 A 
ATOM      7  C18 <0> d          -0.815   2.073   0.084  0.00  0.00     0.075 A 
ATOM      8  N3  <0> d          -2.106   1.622  -0.051  0.00  0.00    -0.214 N 
ATOM      9  N4  <0> d          -2.650   0.336  -0.153  0.00  0.00    -0.160 NA
ENDROOT
BRANCH   1  10
ATOM     10  C12 <0> d          -4.910  -0.690  -0.401  0.00  0.00     0.274 C 
ATOM     11  N1  <0> d          -4.450  -1.957  -0.411  0.00  0.00    -0.343 N 
ATOM     12  C10 <0> d          -3.035  -2.358  -0.298  0.00  0.00     0.129 C 
ATOM     13  C11 <0> d          -5.275  -3.167  -0.530  0.00  0.00     0.169 C 
ATOM     14  C9  <0> d          -2.965  -3.755  -0.964  0.00  0.00     0.064 C 
ATOM     15  C8  <0> d          -4.317  -4.378  -0.524  0.00  0.00     0.102 C 
ATOM     16  O1  <0> d          -6.102  -0.476  -0.501  0.00  0.00    -0.266 OA
BRANCH  15  17
ATOM     17  C5  <0> d          -4.766  -5.426  -1.509  0.00  0.00    -0.022 A 
ATOM     18  C4  <0> d          -4.939  -6.734  -1.095  0.00  0.00     0.011 A 
ATOM     19  C3  <0> d          -5.351  -7.696  -1.998  0.00  0.00     0.007 A 
ATOM     20  C2  <0> d          -5.590  -7.350  -3.315  0.00  0.00    -0.062 A 
ATOM     21  C1  <0> d          -6.039  -8.399  -4.300  0.00  0.00     0.048 C 
ATOM     22  C7  <0> d          -5.418  -6.043  -3.729  0.00  0.00     0.007 A 
ATOM     23  C6  <0> d          -5.010  -5.080  -2.825  0.00  0.00     0.011 A 
ENDBRANCH  15  17
BRANCH  15  24
ATOM     24  O2  <0> d          -4.216  -4.930   0.789  0.00  0.00    -0.383 OA
ATOM     25  H24 <0> d          -3.900  -4.296   1.630  0.00  0.00     0.211 HD
ENDBRANCH  15  24
ENDBRANCH   1  10
BRANCH   7  26
ATOM     26  C19 <0> d           0.312   1.121   0.148  0.00  0.00     0.036 A 
ATOM     27  C21 <0> d           1.491   1.200  -0.563  0.00  0.00     0.040 A 
ATOM     28  N6  <0> d           2.241   0.137  -0.218  0.00  0.00    -0.278 N 
ATOM     29  C22 <0> d           1.869   2.278  -1.546  0.00  0.00     0.071 C 
ATOM     30  N5  <0> d           1.530  -0.620   0.720  0.00  0.00    -0.184 NA
ATOM     31  C23 <0> d           3.575  -0.174  -0.736  0.00  0.00     0.179 C 
ATOM     32  C20 <0> d           0.381  -0.043   0.944  0.00  0.00     0.154 A 
ENDBRANCH   7  26
TORSDOF 4
