REMARK  2 active torsions:
REMARK  status: ('A' for Active; 'I' for Inactive)
REMARK    1  A    between atoms: C9_9  and  N2_12 
REMARK       I    between atoms: N2_12  and  C11_13 
REMARK    2  A    between atoms: C11_13  and  C12_15 
ROOT
ATOM      1  C1  <0> d          -0.008   1.487  -0.005  0.00  0.00     0.070 C 
ATOM      2  C2  <0> d           0.017  -0.019  -0.006  0.00  0.00     0.031 A 
ATOM      3  C3  <0> d           0.029  -0.696  -1.224  0.00  0.00     0.027 A 
ATOM      4  C4  <0> d           0.051  -2.062  -1.244  0.00  0.00     0.016 A 
ATOM      5  C5  <0> d           0.062  -2.744  -0.013  0.00  0.00    -0.005 A 
ATOM      6  C6  <0> d           0.085  -4.148   0.043  0.00  0.00     0.014 A 
ATOM      7  C7  <0> d           0.095  -4.779   1.249  0.00  0.00     0.003 A 
ATOM      8  C8  <0> d           0.082  -4.053   2.437  0.00  0.00     0.032 A 
ATOM      9  C9  <0> d           0.059  -2.676   2.424  0.00  0.00     0.064 A 
ATOM     10  C10 <0> d           0.048  -1.994   1.187  0.00  0.00     0.094 A 
ATOM     11  N1  <0> d           0.032  -0.659   1.138  0.00  0.00    -0.251 NA
ENDROOT
BRANCH   9  12
ATOM     12  N2  <0> d           0.045  -1.961   3.623  0.00  0.00    -0.323 N 
ATOM     13  C11 <0> d          -0.613  -2.450   4.693  0.00  0.00     0.254 C 
ATOM     14  O1  <0> d          -1.124  -3.549   4.639  0.00  0.00    -0.271 OA
ATOM     15  H10 <0> d           0.509  -1.111   3.686  0.00  0.00     0.169 HD
BRANCH  13  16
ATOM     16  C12 <0> d          -0.714  -1.633   5.955  0.00  0.00     0.287 C 
ATOM     17  N3  <0> d          -1.445  -2.397   6.967  0.00  0.00    -0.053 N 
ATOM     18  C14 <0> d          -2.185  -1.601   7.969  0.00  0.00     0.307 C 
ATOM     19  H15 <0> d          -2.103  -2.998   6.493  0.00  0.00     0.279 HD
ATOM     20  H16 <0> d          -0.785  -2.982   7.457  0.00  0.00     0.279 HD
ATOM     21  S1  <0> d          -1.992   0.126   7.357  0.00  0.00    -0.139 SA
ATOM     22  C13 <0> d          -1.444  -0.294   5.641  0.00  0.00     0.118 C 
ENDBRANCH  13  16
ENDBRANCH   9  12
TORSDOF 2
