REMARK  3 active torsions:
REMARK  status: ('A' for Active; 'I' for Inactive)
REMARK    1  A    between atoms: C6_7  and  N2_8 
REMARK       I    between atoms: N3_11  and  C11_14 
REMARK    2  A    between atoms: C11_14  and  C12_16 
REMARK    3  A    between atoms: C19_23  and  O2_25 
ROOT
ATOM      1  N2  <0> d          -0.105  -0.289   2.491  0.00  0.00    -0.364 N 
ATOM      2  C7  <0> d          -0.236   1.168   2.626  0.00  0.00     0.144 C 
ATOM      3  C8  <0> d          -1.379   1.469   3.604  0.00  0.00     0.145 C 
ATOM      4  N3  <0> d          -1.187   0.659   4.815  0.00  0.00    -0.348 N 
ATOM      5  C9  <0> d          -1.056  -0.798   4.679  0.00  0.00     0.145 C 
ATOM      6  C10 <0> d           0.081  -1.099   3.703  0.00  0.00     0.144 C 
ATOM      7  C11 <0> d          -1.131   1.243   6.029  0.00  0.00     0.229 C 
ATOM      8  O1  <0> d          -1.331   2.434   6.138  0.00  0.00    -0.272 OA
ENDROOT
BRANCH   7   9
ATOM      9  C12 <0> d          -0.819   0.416   7.249  0.00  0.00     0.051 C 
ATOM     10  C16 <0> d          -0.716   1.196   8.607  0.00  0.00    -0.022 C 
ATOM     11  C15 <0> d          -0.385  -0.057   9.493  0.00  0.00    -0.010 C 
ATOM     12  C17 <0> d           0.427   2.212   8.601  0.00  0.00     0.017 C 
ATOM     13  C18 <0> d          -2.047   1.841   9.000  0.00  0.00     0.017 C 
ATOM     14  C14 <0> d           0.840  -0.638   8.724  0.00  0.00     0.014 C 
ATOM     15  C19 <0> d          -1.568  -1.000   9.113  0.00  0.00     0.128 C 
ATOM     16  C21 <0> d          -0.174   0.207  10.986  0.00  0.00     0.018 C 
ATOM     17  C13 <0> d           0.553  -0.325   7.238  0.00  0.00     0.021 C 
ATOM     18  C20 <0> d          -1.870  -0.674   7.621  0.00  0.00     0.052 C 
BRANCH  15  19
ATOM     19  O2  <0> d          -1.185  -2.368   9.271  0.00  0.00    -0.395 OA
ATOM     20  H28 <0> d          -1.883  -2.999   9.048  0.00  0.00     0.210 HD
ENDBRANCH  15  19
ENDBRANCH   7   9
BRANCH   1  21
ATOM     21  C6  <0> d          -0.163  -0.892   1.239  0.00  0.00     0.109 A 
ATOM     22  C2  <0> d           1.014  -1.171   0.554  0.00  0.00    -0.018 A 
ATOM     23  C1  <0> d           2.350  -0.826   1.159  0.00  0.00     0.052 C 
ATOM     24  C3  <0> d           0.942  -1.776  -0.688  0.00  0.00     0.012 A 
ATOM     25  C4  <0> d          -0.310  -2.076  -1.207  0.00  0.00     0.018 A 
ATOM     26  C5  <0> d          -1.438  -1.766  -0.475  0.00  0.00     0.089 A 
ATOM     27  N1  <0> d          -1.339  -1.188   0.708  0.00  0.00    -0.352 N 
ATOM     28  H32 <0> d          -2.148  -0.980   1.202  0.00  0.00     0.166 HD
ENDBRANCH   1  21
TORSDOF 3
