REMARK  5 active torsions:
REMARK  status: ('A' for Active; 'I' for Inactive)
REMARK    1  A    between atoms: C2_2  and  C4_4 
REMARK    2  A    between atoms: C7_7  and  N1_10 
REMARK    3  A    between atoms: C11_13  and  C12_14 
REMARK    4  A    between atoms: N2_15  and  N3_16 
REMARK       I    between atoms: N3_16  and  C13_17 
REMARK    5  A    between atoms: C13_17  and  C14_19 
ROOT
ATOM      1  N1  <0> d          -5.329  -1.956   0.039  0.00  0.00    -0.239 N 
ATOM      2  C10 <0> d          -5.789  -2.644  -1.028  0.00  0.00     0.272 A 
ATOM      3  O1  <0> d          -5.091  -2.822  -2.009  0.00  0.00    -0.266 OA
ATOM      4  C11 <0> d          -7.162  -3.171  -0.966  0.00  0.00     0.119 A 
ATOM      5  C19 <0> d          -7.928  -2.902   0.268  0.00  0.00     0.287 A 
ATOM      6  N5  <0> d          -7.333  -2.201   1.248  0.00  0.00    -0.165 NA
ATOM      7  C20 <0> d          -6.105  -1.760   1.139  0.00  0.00     0.290 A 
ATOM      8  O3  <0> d          -5.582  -1.070   2.171  0.00  0.00    -0.148 OA
ATOM      9  O4  <0> d          -9.071  -3.306   0.395  0.00  0.00    -0.265 OA
ENDROOT
BRANCH   4  10
ATOM     10  C12 <0> d          -7.710  -3.886  -2.015  0.00  0.00     0.130 C 
ATOM     11  N2  <0> d          -9.011  -4.237  -1.985  0.00  0.00    -0.308 N 
ATOM     12  H13 <0> d          -9.582  -3.921  -1.267  0.00  0.00     0.186 HD
BRANCH  11  13
ATOM     13  N3  <0> d          -9.539  -5.059  -2.989  0.00  0.00    -0.266 N 
ATOM     14  C13 <0> d         -10.839  -5.410  -2.959  0.00  0.00     0.270 C 
ATOM     15  O2  <0> d         -11.555  -5.014  -2.060  0.00  0.00    -0.266 OA
ATOM     16  H14 <0> d          -8.968  -5.376  -3.707  0.00  0.00     0.190 HD
BRANCH  14  17
ATOM     17  C14 <0> d         -11.397  -6.279  -4.021  0.00  0.00     0.036 A 
ATOM     18  C18 <0> d         -12.744  -6.655  -4.008  0.00  0.00     0.036 A 
ATOM     19  C17 <0> d         -13.224  -7.462  -5.022  0.00  0.00     0.117 A 
ATOM     20  N4  <0> d         -12.428  -7.886  -5.984  0.00  0.00    -0.273 NA
ATOM     21  C16 <0> d         -11.152  -7.560  -6.030  0.00  0.00     0.117 A 
ATOM     22  C15 <0> d         -10.590  -6.752  -5.061  0.00  0.00     0.036 A 
ENDBRANCH  14  17
ENDBRANCH  11  13
ENDBRANCH   4  10
BRANCH   1  23
ATOM     23  C7  <0> d          -4.026  -1.440   0.015  0.00  0.00     0.046 A 
ATOM     24  C6  <0> d          -3.048  -1.982   0.838  0.00  0.00     0.031 A 
ATOM     25  C5  <0> d          -1.765  -1.471   0.812  0.00  0.00     0.010 A 
ATOM     26  C4  <0> d          -1.454  -0.422  -0.033  0.00  0.00    -0.055 A 
ATOM     27  C9  <0> d          -2.427   0.123  -0.850  0.00  0.00     0.010 A 
ATOM     28  C8  <0> d          -3.711  -0.386  -0.832  0.00  0.00     0.031 A 
BRANCH  26  29
ATOM     29  C2  <0> d          -0.053   0.133  -0.059  0.00  0.00     0.010 C 
ATOM     30  C1  <0> d           0.317   0.649   1.333  0.00  0.00     0.015 C 
ATOM     31  C3  <0> d           0.924  -0.970  -0.471  0.00  0.00     0.015 C 
ENDBRANCH  26  29
ENDBRANCH   1  23
TORSDOF 5
