REMARK  6 active torsions:
REMARK  status: ('A' for Active; 'I' for Inactive)
REMARK    1  A    between atoms: C2_2  and  C3_3 
REMARK    2  A    between atoms: C2_2  and  N4_9 
REMARK       I    between atoms: N4_9  and  C6_10 
REMARK    3  A    between atoms: C6_10  and  C7_12 
REMARK    4  A    between atoms: C10_15  and  O2_18 
REMARK    5  A    between atoms: O2_18  and  C12_19 
REMARK    6  A    between atoms: C12_19  and  C13_20 
ROOT
ATOM      1  C7  <0> d           0.697  -1.084  -3.573  0.00  0.00     0.049 A 
ATOM      2  C8  <0> d          -0.001  -1.220  -4.782  0.00  0.00     0.023 A 
ATOM      3  C9  <0> d           0.688  -1.668  -5.890  0.00  0.00     0.059 A 
ATOM      4  C10 <0> d           2.042  -1.969  -5.773  0.00  0.00     0.164 A 
ATOM      5  N5  <0> d           2.673  -1.831  -4.617  0.00  0.00    -0.236 NA
ATOM      6  C11 <0> d           2.055  -1.401  -3.537  0.00  0.00     0.136 A 
ENDROOT
BRANCH   1   7
ATOM      7  C6  <0> d           0.006  -0.608  -2.358  0.00  0.00     0.253 C 
ATOM      8  N4  <0> d           0.688  -0.476  -1.203  0.00  0.00    -0.346 N 
ATOM      9  H9  <0> d           1.632  -0.695  -1.170  0.00  0.00     0.163 HD
ATOM     10  O1  <0> d          -1.178  -0.335  -2.400  0.00  0.00    -0.268 OA
BRANCH   8  11
ATOM     11  C2  <0> d           0.002  -0.004   0.002  0.00  0.00     0.152 C 
ATOM     12  C1  <0> d          -0.019   1.526   0.010  0.00  0.00     0.040 C 
BRANCH  11  13
ATOM     13  C3  <0> d           0.731  -0.503   1.223  0.00  0.00     0.151 A 
ATOM     14  N3  <0> d           0.167  -1.051   2.327  0.00  0.00    -0.330 N 
ATOM     15  C4  <0> d           1.192  -1.353   3.160  0.00  0.00     0.235 A 
ATOM     16  C5  <0> d          -1.260  -1.275   2.568  0.00  0.00     0.158 C 
ATOM     17  N2  <0> d           2.296  -0.987   2.566  0.00  0.00    -0.143 NA
ATOM     18  N1  <0> d           2.022  -0.483   1.415  0.00  0.00    -0.133 NA
ENDBRANCH  11  13
ENDBRANCH   8  11
ENDBRANCH   1   7
BRANCH   4  19
ATOM     19  O2  <0> d           2.724  -2.411  -6.857  0.00  0.00    -0.326 OA
BRANCH  19  20
ATOM     20  C12 <0> d           4.111  -2.704  -6.676  0.00  0.00     0.294 C 
BRANCH  20  21
ATOM     21  C13 <0> d           4.707  -3.185  -8.001  0.00  0.00     0.408 C 
ATOM     22  F1  <0> d           4.565  -2.184  -8.968  0.00  0.00    -0.169 F 
ATOM     23  F2  <0> d           6.065  -3.472  -7.824  0.00  0.00    -0.169 F 
ATOM     24  F3  <0> d           4.038  -4.339  -8.421  0.00  0.00    -0.169 F 
ENDBRANCH  20  21
ENDBRANCH  19  20
ENDBRANCH   4  19
TORSDOF 6
