REMARK  6 active torsions:
REMARK  status: ('A' for Active; 'I' for Inactive)
REMARK    1  A    between atoms: C2_2  and  C4_4 
REMARK    2  A    between atoms: C8_11  and  C10_15 
REMARK    3  A    between atoms: C10_15  and  S2_16 
REMARK    4  A    between atoms: S2_16  and  C11_17 
REMARK    5  A    between atoms: C11_17  and  C12_18 
REMARK       I    between atoms: C12_18  and  N3_20 
REMARK    6  A    between atoms: N3_20  and  C13_21 
ROOT
ATOM      1  S2  <0> d          -7.776  -1.671   2.030  0.00  0.00    -0.152 SA
ENDROOT
BRANCH   1   2
ATOM      2  C10 <0> d          -7.422  -2.490   0.451  0.00  0.00     0.152 C 
BRANCH   2   3
ATOM      3  C8  <0> d          -5.998  -2.209   0.047  0.00  0.00     0.117 A 
ATOM      4  N1  <0> d          -5.518  -2.729  -1.112  0.00  0.00    -0.310 N 
ATOM      5  C7  <0> d          -4.252  -2.503  -1.510  0.00  0.00     0.260 A 
ATOM      6  H1  <0> d          -6.100  -3.275  -1.665  0.00  0.00     0.170 HD
ATOM      7  C6  <0> d          -3.401  -1.696  -0.688  0.00  0.00     0.069 A 
ATOM      8  O1  <0> d          -3.837  -2.978  -2.553  0.00  0.00    -0.267 OA
ATOM      9  C5  <0> d          -2.017  -1.312  -0.895  0.00  0.00     0.035 A 
ATOM     10  C9  <0> d          -3.985  -1.201   0.492  0.00  0.00     0.115 A 
ATOM     11  C4  <0> d          -1.407  -0.539   0.019  0.00  0.00    -0.011 A 
ATOM     12  S1  <0> d          -2.673  -0.276   1.247  0.00  0.00    -0.074 SA
ATOM     13  N2  <0> d          -5.247  -1.469   0.817  0.00  0.00    -0.226 NA
BRANCH  11  14
ATOM     14  C2  <0> d           0.009  -0.024   0.012  0.00  0.00     0.017 C 
ATOM     15  C1  <0> d          -0.005   1.506   0.031  0.00  0.00     0.015 C 
ATOM     16  C3  <0> d           0.747  -0.543   1.247  0.00  0.00     0.015 C 
ENDBRANCH  11  14
ENDBRANCH   2   3
ENDBRANCH   1   2
BRANCH   1  17
ATOM     17  C11 <0> d          -9.504  -2.102   2.371  0.00  0.00     0.177 C 
BRANCH  17  18
ATOM     18  C12 <0> d          -9.931  -1.476   3.674  0.00  0.00     0.231 C 
ATOM     19  O2  <0> d          -9.146  -0.805   4.310  0.00  0.00    -0.272 OA
ATOM     20  N3  <0> d         -11.184  -1.662   4.132  0.00  0.00    -0.326 N 
ATOM     21  H15 <0> d         -11.832  -2.142   3.592  0.00  0.00     0.169 HD
BRANCH  20  22
ATOM     22  C13 <0> d         -11.552  -1.162   5.387  0.00  0.00     0.036 A 
ATOM     23  C20 <0> d         -12.443  -1.870   6.174  0.00  0.00     0.059 A 
ATOM     24  C19 <0> d         -12.804  -1.375   7.423  0.00  0.00     0.044 A 
ATOM     25  C16 <0> d         -12.264  -0.154   7.864  0.00  0.00    -0.008 A 
ATOM     26  N4  <0> d         -13.640  -1.833   8.416  0.00  0.00    -0.365 N 
ATOM     27  C15 <0> d         -11.370   0.550   7.053  0.00  0.00     0.016 A 
ATOM     28  C17 <0> d         -12.838   0.086   9.191  0.00  0.00     0.030 A 
ATOM     29  C14 <0> d         -11.022   0.049   5.832  0.00  0.00     0.030 A 
ATOM     30  C18 <0> d         -13.648  -0.949   9.462  0.00  0.00     0.089 A 
ATOM     31  H2  <0> d         -14.149  -2.658   8.381  0.00  0.00     0.165 HD
ENDBRANCH  20  22
ENDBRANCH  17  18
ENDBRANCH   1  17
TORSDOF 6
