REMARK  4 active torsions:
REMARK  status: ('A' for Active; 'I' for Inactive)
REMARK    1  A    between atoms: C5_6  and  N1_10 
REMARK    2  A    between atoms: N1_10  and  C9_11 
REMARK    3  A    between atoms: N3_14  and  C12_16 
REMARK    4  A    between atoms: C12_16  and  C13_17 
ROOT
ATOM      1  C9  <0> d          -2.661   0.108   1.826  0.00  0.00     0.065 A 
ATOM      2  C10 <0> d          -3.071   1.233   1.096  0.00  0.00     0.169 A 
ATOM      3  N2  <0> d          -3.856   1.954   1.855  0.00  0.00    -0.183 NA
ATOM      4  N3  <0> d          -3.975   1.317   3.097  0.00  0.00    -0.277 N 
ATOM      5  C11 <0> d          -3.234   0.178   3.055  0.00  0.00     0.143 A 
ENDROOT
BRANCH   1   6
ATOM      6  N1  <0> d          -1.810  -0.914   1.365  0.00  0.00    -0.379 N 
ATOM      7  H11 <0> d          -1.587  -1.658   1.947  0.00  0.00     0.160 HD
BRANCH   6   8
ATOM      8  C5  <0> d          -1.264  -0.856   0.007  0.00  0.00     0.116 C 
ATOM      9  C4  <0> d           0.002  -0.004   0.002  0.00  0.00    -0.022 A 
ATOM     10  C1  <0> d          -0.017   1.391   0.010  0.00  0.00     0.017 A 
ATOM     11  C3  <0> d           1.227  -0.595  -0.012  0.00  0.00    -0.009 A 
ATOM     12  C2  <0> d           1.145   2.084   0.002  0.00  0.00     0.051 A 
ATOM     13  S1  <0> d           2.356   0.771  -0.016  0.00  0.00    -0.106 SA
ATOM     14  C8  <0> d           1.533  -2.058  -0.020  0.00  0.00     0.047 C 
ATOM     15  C7  <0> d           0.255  -2.821   0.358  0.00  0.00     0.007 C 
ATOM     16  C6  <0> d          -0.910  -2.267  -0.467  0.00  0.00     0.030 C 
ENDBRANCH   6   8
ENDBRANCH   1   6
BRANCH   4  17
ATOM     17  C12 <0> d          -4.763   1.792   4.237  0.00  0.00     0.182 C 
BRANCH  17  18
ATOM     18  C13 <0> d          -4.337   3.218   4.593  0.00  0.00     0.141 C 
ATOM     19  O1  <0> d          -2.998   3.224   5.112  0.00  0.00    -0.384 OA
ATOM     20  C16 <0> d          -2.884   4.198   6.158  0.00  0.00     0.168 C 
ATOM     21  C15 <0> d          -4.274   4.843   6.349  0.00  0.00     0.029 C 
ATOM     22  C14 <0> d          -5.220   3.773   5.739  0.00  0.00     0.036 C 
ENDBRANCH  17  18
ENDBRANCH   4  17
TORSDOF 4
