REMARK  4 active torsions:
REMARK  status: ('A' for Active; 'I' for Inactive)
REMARK    1  A    between atoms: C5_5  and  C7_8 
REMARK       I    between atoms: C7_8  and  N2_10 
REMARK    2  A    between atoms: N2_10  and  C8_11 
REMARK    3  A    between atoms: C11_14  and  S1_17 
REMARK    4  A    between atoms: S1_17  and  N3_20 
ROOT
ATOM      1  C8  <0> d          -2.542   4.123   0.127  0.00  0.00     0.035 A 
ATOM      2  C9  <0> d          -3.710   3.377   0.218  0.00  0.00     0.031 A 
ATOM      3  C10 <0> d          -4.930   4.016   0.322  0.00  0.00     0.027 A 
ATOM      4  C11 <0> d          -4.989   5.398   0.324  0.00  0.00     0.079 A 
ATOM      5  C12 <0> d          -3.829   6.144   0.227  0.00  0.00     0.027 A 
ATOM      6  C13 <0> d          -2.606   5.510   0.129  0.00  0.00     0.031 A 
ENDROOT
BRANCH   1   7
ATOM      7  N2  <0> d          -1.305   3.478   0.027  0.00  0.00    -0.323 N 
ATOM      8  C7  <0> d          -0.215   4.016   0.610  0.00  0.00     0.257 C 
ATOM      9  O1  <0> d          -0.290   5.103   1.150  0.00  0.00    -0.267 OA
ATOM     10  H9  <0> d          -1.221   2.531  -0.527  0.00  0.00     0.169 HD
BRANCH   8  11
ATOM     11  C5  <0> d           1.069   3.286   0.593  0.00  0.00     0.049 A 
ATOM     12  C4  <0> d           2.208   3.834   1.195  0.00  0.00     0.020 A 
ATOM     13  C3  <0> d           3.385   3.107   1.156  0.00  0.00     0.028 A 
ATOM     14  C2  <0> d           3.398   1.874   0.530  0.00  0.00     0.030 A 
ATOM     15  C1  <0> d           4.678   1.079   0.485  0.00  0.00     0.070 C 
ATOM     16  N1  <0> d           2.309   1.382  -0.030  0.00  0.00    -0.265 NA
ATOM     17  C6  <0> d           1.166   2.035  -0.019  0.00  0.00     0.134 A 
ENDBRANCH   8  11
ENDBRANCH   1   7
BRANCH   4  18
ATOM     18  S1  <0> d          -6.548   6.210   0.449  0.00  0.00     0.261 S 
ATOM     19  O2  <0> d          -7.434   5.293   1.076  0.00  0.00    -0.200 OA
ATOM     20  O3  <0> d          -6.291   7.504   0.978  0.00  0.00    -0.200 OA
BRANCH  18  21
ATOM     21  N3  <0> d          -7.110   6.432  -1.093  0.00  0.00    -0.302 N 
ATOM     22  C17 <0> d          -7.947   5.414  -1.748  0.00  0.00     0.167 C 
ATOM     23  C16 <0> d          -7.350   5.114  -3.128  0.00  0.00     0.136 C 
ATOM     24  O4  <0> d          -7.168   6.340  -3.840  0.00  0.00    -0.378 OA
ATOM     25  C18 <0> d          -8.302   4.206  -3.909  0.00  0.00     0.041 C 
ATOM     26  C15 <0> d          -6.248   7.244  -3.223  0.00  0.00     0.136 C 
ATOM     27  C14 <0> d          -6.793   7.656  -1.846  0.00  0.00     0.167 C 
ATOM     28  C19 <0> d          -4.892   6.556  -3.055  0.00  0.00     0.041 C 
ENDBRANCH  18  21
ENDBRANCH   4  18
TORSDOF 4
