REMARK  3 active torsions:
REMARK  status: ('A' for Active; 'I' for Inactive)
REMARK    1  A    between atoms: C4_4  and  C6_6 
REMARK    2  A    between atoms: N1_10  and  C10_11 
REMARK    3  A    between atoms: C10_11  and  C11_12 
ROOT
ATOM      1  C6  <0> d           1.127  -1.242  -1.876  0.00  0.00     0.192 C 
ATOM      2  C7  <0> d           2.484  -1.636  -2.495  0.00  0.00     0.035 C 
ATOM      3  C8  <0> d           2.707  -3.075  -1.962  0.00  0.00     0.030 C 
ATOM      4  C9  <0> d           1.262  -3.634  -1.956  0.00  0.00     0.235 C 
ATOM      5  N1  <0> d           0.414  -2.490  -1.547  0.00  0.00    -0.065 N 
ATOM      6  H27 <0> d           0.242  -2.532  -0.554  0.00  0.00     0.280 HD
ENDROOT
BRANCH   5   7
ATOM      7  C10 <0> d          -0.864  -2.534  -2.271  0.00  0.00     0.268 C 
BRANCH   7   8
ATOM      8  C11 <0> d          -1.655  -3.768  -1.833  0.00  0.00     0.211 C 
ATOM      9  N2  <0> d          -1.822  -3.764  -0.368  0.00  0.00    -0.069 N 
ATOM     10  C14 <0> d          -3.271  -3.703  -0.063  0.00  0.00     0.233 C 
ATOM     11  H26 <0> d          -1.426  -4.606   0.022  0.00  0.00     0.277 HD
ATOM     12  H28 <0> d          -1.358  -2.958   0.024  0.00  0.00     0.277 HD
ATOM     13  C13 <0> d          -3.965  -4.286  -1.319  0.00  0.00     0.029 C 
ATOM     14  C12 <0> d          -3.066  -3.736  -2.458  0.00  0.00     0.036 C 
ENDBRANCH   7   8
ENDBRANCH   5   7
BRANCH   1  15
ATOM     15  C4  <0> d           1.353  -0.422  -0.604  0.00  0.00     0.016 C 
ATOM     16  C3  <0> d           2.107   0.881  -0.942  0.00  0.00     0.007 C 
ATOM     17  C2  <0> d           1.477   1.939  -0.002  0.00  0.00     0.000 C 
ATOM     18  C1  <0> d          -0.019   1.538   0.011  0.00  0.00     0.000 C 
ATOM     19  C5  <0> d           0.002  -0.004   0.002  0.00  0.00     0.007 C 
ENDBRANCH   1  15
TORSDOF 3
