REMARK  6 active torsions:
REMARK  status: ('A' for Active; 'I' for Inactive)
REMARK    1  A    between atoms: C5_5  and  N1_9 
REMARK    2  A    between atoms: N1_9  and  C9_10 
REMARK    3  A    between atoms: C10_12  and  C12_17 
REMARK    4  A    between atoms: C11_14  and  N5_16 
REMARK    5  A    between atoms: C12_17  and  N7_33 
REMARK    6  A    between atoms: N6_20  and  C17_23 
ROOT
ATOM      1  C9  <0> d           1.127   2.000   0.005  0.00  0.00     0.744 A 
ATOM      2  N2  <0> d          -0.016   1.317   0.030  0.00  0.00    -0.044 NA
ATOM      3  C10 <0> d           0.002  -0.004   0.026  0.00  0.00     0.190 A 
ATOM      4  N3  <0> d           1.153  -0.653  -0.003  0.00  0.00    -0.045 NA
ATOM      5  C11 <0> d           2.299   0.023  -0.028  0.00  0.00     0.737 A 
ATOM      6  N4  <0> d           2.285   1.351  -0.024  0.00  0.00     0.130 NA
ENDROOT
BRANCH   3   7
ATOM      7  C12 <0> d          -1.294  -0.773   0.054  0.00  0.00     0.316 C 
BRANCH   7   8
ATOM      8  N7  <0> d          -1.727  -1.030  -1.336  0.00  0.00    -0.062 N 
ATOM      9  C13 <0> d          -2.106   0.239  -1.991  0.00  0.00     0.250 C 
ATOM     10  C14 <0> d          -2.496  -0.051  -3.442  0.00  0.00     0.123 C 
ATOM     11  N6  <0> d          -3.622  -0.995  -3.464  0.00  0.00    -0.278 NA
ATOM     12  C15 <0> d          -3.263  -2.253  -2.795  0.00  0.00     0.123 C 
ATOM     13  C16 <0> d          -2.873  -1.963  -1.344  0.00  0.00     0.250 C 
ATOM     14  H27 <0> d          -0.948  -1.454  -1.855  0.00  0.00     0.280 HD
BRANCH  11  15
ATOM     15  C17 <0> d          -4.054  -1.229  -4.774  0.00  0.00     0.049 A 
ATOM     16  C22 <0> d          -3.375  -0.657  -5.844  0.00  0.00     0.137 A 
ATOM     17  C21 <0> d          -3.805  -0.892  -7.137  0.00  0.00     0.044 A 
ATOM     18  F1  <0> d          -2.296   0.126  -5.621  0.00  0.00    -0.204 F 
ATOM     19  C20 <0> d          -4.908  -1.694  -7.366  0.00  0.00     0.003 A 
ATOM     20  C19 <0> d          -5.584  -2.264  -6.303  0.00  0.00     0.002 A 
ATOM     21  C18 <0> d          -5.157  -2.038  -5.008  0.00  0.00     0.027 A 
ENDBRANCH  11  15
ENDBRANCH   7   8
ENDBRANCH   3   7
BRANCH   1  22
ATOM     22  N1  <0> d           1.107   3.381   0.009  0.00  0.00    -0.187 N 
ATOM     23  H10 <0> d           0.263   3.855  -0.056  0.00  0.00     0.184 HD
BRANCH  22  24
ATOM     24  C5  <0> d           2.304   4.097   0.107  0.00  0.00     0.055 A 
ATOM     25  C4  <0> d           3.417   3.514   0.700  0.00  0.00     0.031 A 
ATOM     26  C3  <0> d           4.598   4.224   0.795  0.00  0.00     0.009 A 
ATOM     27  C2  <0> d           4.673   5.514   0.301  0.00  0.00    -0.061 A 
ATOM     28  C1  <0> d           5.963   6.285   0.407  0.00  0.00     0.048 C 
ATOM     29  C7  <0> d           3.567   6.097  -0.289  0.00  0.00     0.015 A 
ATOM     30  C6  <0> d           2.385   5.390  -0.393  0.00  0.00    -0.034 A 
ATOM     31  C8  <0> d           1.182   6.024  -1.043  0.00  0.00     0.050 C 
ENDBRANCH  22  24
ENDBRANCH   1  22
BRANCH   5  32
ATOM     32  N5  <0> d           3.501  -0.656  -0.057  0.00  0.00    -0.230 N 
ATOM     33  H11 <0> d           3.510  -1.626  -0.059  0.00  0.00     0.174 HD
ATOM     34  H12 <0> d           4.336  -0.163  -0.075  0.00  0.00     0.174 HD
ENDBRANCH   5  32
TORSDOF 6
