REMARK  5 active torsions:
REMARK  status: ('A' for Active; 'I' for Inactive)
REMARK    1  A    between atoms: C6_6  and  N1_9 
REMARK    2  A    between atoms: C10_11  and  C13_15 
REMARK       I    between atoms: C13_15  and  N2_17 
REMARK    3  A    between atoms: N2_17  and  C14_18 
REMARK    4  A    between atoms: N3_21  and  C19_24 
REMARK    5  A    between atoms: C19_24  and  C20_25 
REMARK       I    between atoms: C20_25  and  N4_27 
ROOT
ATOM      1  C13 <0> d          -1.429  -4.240   5.399  0.00  0.00     0.224 C 
ATOM      2  O2  <0> d          -2.292  -3.401   5.545  0.00  0.00    -0.273 OA
ATOM      3  N2  <0> d          -1.152  -5.102   6.397  0.00  0.00    -0.356 N 
ATOM      4  H15 <0> d          -0.461  -5.773   6.280  0.00  0.00     0.162 HD
ENDROOT
BRANCH   1   5
ATOM      5  C10 <0> d          -0.666  -4.318   4.102  0.00  0.00     0.105 C 
ATOM      6  C9  <0> d          -1.150  -3.238   3.109  0.00  0.00     0.146 C 
ATOM      7  N1  <0> d           0.052  -2.797   2.393  0.00  0.00    -0.317 N 
ATOM      8  C12 <0> d           1.170  -3.167   3.041  0.00  0.00     0.225 C 
ATOM      9  C11 <0> d           0.814  -3.919   4.304  0.00  0.00     0.119 C 
ATOM     10  O1  <0> d           2.300  -2.929   2.669  0.00  0.00    -0.273 OA
BRANCH   7  11
ATOM     11  C6  <0> d           0.037  -2.089   1.186  0.00  0.00     0.043 A 
ATOM     12  C5  <0> d           0.041  -2.773  -0.022  0.00  0.00     0.030 A 
ATOM     13  C4  <0> d           0.025  -2.071  -1.212  0.00  0.00     0.003 A 
ATOM     14  C3  <0> d           0.006  -0.688  -1.200  0.00  0.00     0.007 A 
ATOM     15  C2  <0> d           0.002  -0.004   0.002  0.00  0.00    -0.054 A 
ATOM     16  C1  <0> d          -0.018   1.503   0.010  0.00  0.00     0.049 C 
ATOM     17  C7  <0> d           0.023  -0.700   1.194  0.00  0.00    -0.029 A 
ATOM     18  C8  <0> d           0.025   0.046   2.504  0.00  0.00     0.051 C 
ENDBRANCH   7  11
ENDBRANCH   1   5
BRANCH   3  19
ATOM     19  C14 <0> d          -1.893  -5.026   7.658  0.00  0.00     0.087 C 
ATOM     20  C18 <0> d          -1.874  -6.394   8.347  0.00  0.00     0.053 C 
ATOM     21  C17 <0> d          -2.582  -6.287   9.700  0.00  0.00     0.237 C 
ATOM     22  N3  <0> d          -1.890  -5.304  10.542  0.00  0.00    -0.063 N 
ATOM     23  C16 <0> d          -1.966  -3.976   9.922  0.00  0.00     0.237 C 
ATOM     24  H29 <0> d          -0.922  -5.572  10.643  0.00  0.00     0.280 HD
ATOM     25  C15 <0> d          -1.235  -3.993   8.578  0.00  0.00     0.053 C 
BRANCH  22  26
ATOM     26  C19 <0> d          -2.525  -5.262  11.866  0.00  0.00     0.336 C 
BRANCH  26  27
ATOM     27  C20 <0> d          -2.340  -6.590  12.554  0.00  0.00     0.241 C 
ATOM     28  O3  <0> d          -1.738  -7.483  11.996  0.00  0.00    -0.272 OA
ATOM     29  N4  <0> d          -2.843  -6.785  13.789  0.00  0.00    -0.369 N 
ATOM     30  H27 <0> d          -3.324  -6.071  14.235  0.00  0.00     0.159 HD
ATOM     31  H28 <0> d          -2.724  -7.640  14.232  0.00  0.00     0.159 HD
ENDBRANCH  26  27
ENDBRANCH  22  26
ENDBRANCH   3  19
TORSDOF 5
