REMARK  4 active torsions:
REMARK  status: ('A' for Active; 'I' for Inactive)
REMARK    1  A    between atoms: C7_7  and  N1_8 
REMARK    2  A    between atoms: N1_8  and  C8_9 
REMARK       I    between atoms: N2_11  and  C9_12 
REMARK    3  A    between atoms: C9_12  and  C10_14 
REMARK    4  A    between atoms: C14_18  and  N3_20 
ROOT
ATOM      1  C8  <0> d          -7.497   1.425   0.740  0.00  0.00     0.179 C 
ATOM      2  S1  <0> d          -7.728   0.091   1.789  0.00  0.00    -0.040 SA
ATOM      3  N2  <0> d          -6.315   2.072   0.724  0.00  0.00    -0.299 N 
ATOM      4  C9  <0> d          -5.315   1.670   1.533  0.00  0.00     0.257 C 
ATOM      5  O1  <0> d          -5.479   0.723   2.277  0.00  0.00    -0.267 OA
ATOM      6  H8  <0> d          -6.184   2.828   0.130  0.00  0.00     0.171 HD
ENDROOT
BRANCH   1   7
ATOM      7  N1  <0> d          -8.497   1.827  -0.069  0.00  0.00    -0.332 N 
ATOM      8  H7  <0> d          -8.385   2.616  -0.622  0.00  0.00     0.168 HD
BRANCH   7   9
ATOM      9  C7  <0> d          -9.695   1.107  -0.110  0.00  0.00     0.046 A 
ATOM     10  C2  <0> d          -9.680  -0.256  -0.374  0.00  0.00    -0.035 A 
ATOM     11  C1  <0> d          -8.371  -0.962  -0.616  0.00  0.00     0.050 C 
ATOM     12  C3  <0> d         -10.864  -0.965  -0.408  0.00  0.00     0.009 A 
ATOM     13  C4  <0> d         -12.066  -0.317  -0.192  0.00  0.00     0.001 A 
ATOM     14  C5  <0> d         -12.086   1.042   0.065  0.00  0.00     0.009 A 
ATOM     15  C6  <0> d         -10.904   1.756   0.107  0.00  0.00    -0.035 A 
ATOM     16  C16 <0> d         -10.927   3.236   0.388  0.00  0.00     0.050 C 
ENDBRANCH   7   9
ENDBRANCH   1   7
BRANCH   4  17
ATOM     17  C10 <0> d          -4.019   2.380   1.515  0.00  0.00     0.034 A 
ATOM     18  C15 <0> d          -2.981   1.965   2.351  0.00  0.00     0.053 A 
ATOM     19  C14 <0> d          -1.773   2.633   2.330  0.00  0.00     0.103 A 
ATOM     20  C13 <0> d          -1.592   3.713   1.485  0.00  0.00     0.036 A 
ATOM     21  C12 <0> d          -2.615   4.126   0.649  0.00  0.00     0.003 A 
ATOM     22  C11 <0> d          -3.827   3.468   0.661  0.00  0.00     0.017 A 
BRANCH  19  23
ATOM     23  N3  <0> d          -0.672   2.195   3.216  0.00  0.00    -0.116 N 
ATOM     24  O2  <0> d          -0.832   1.247   3.964  0.00  0.00    -0.532 OA
ATOM     25  O3  <0> d           0.396   2.780   3.195  0.00  0.00    -0.532 OA
ENDBRANCH  19  23
ENDBRANCH   4  17
TORSDOF 4
