REMARK  5 active torsions:
REMARK  status: ('A' for Active; 'I' for Inactive)
REMARK    1  A    between atoms: N1_2  and  C2_3 
REMARK       I    between atoms: N1_2  and  C9_14 
REMARK    2  A    between atoms: C2_3  and  C3_4 
REMARK    3  A    between atoms: C9_14  and  C10_16 
REMARK    4  A    between atoms: C10_16  and  C11_17 
REMARK    5  A    between atoms: C11_17  and  C12_18 
ROOT
ATOM      1  C1  <0> d          -0.018   1.461   0.010  0.00  0.00     0.153 C 
ATOM      2  N1  <0> d           0.002  -0.004   0.002  0.00  0.00    -0.349 N 
ATOM      3  C9  <0> d           0.000  -0.672  -1.169  0.00  0.00     0.220 C 
ATOM      4  O2  <0> d           0.017  -1.884  -1.175  0.00  0.00    -0.273 OA
ENDROOT
BRANCH   3   5
ATOM      5  C10 <0> d          -0.023   0.089  -2.470  0.00  0.00     0.109 C 
BRANCH   5   6
ATOM      6  C11 <0> d          -0.020  -0.899  -3.638  0.00  0.00     0.068 C 
BRANCH   6   7
ATOM      7  C12 <0> d          -0.043  -0.139  -4.939  0.00  0.00     0.036 A 
ATOM      8  N5  <0> d          -1.141   0.167  -5.666  0.00  0.00    -0.281 N 
ATOM      9  N4  <0> d          -0.725   0.880  -6.800  0.00  0.00    -0.179 NA
ATOM     10  H2  <0> d          -2.056  -0.065  -5.442  0.00  0.00     0.189 HD
ATOM     11  C14 <0> d           0.571   0.991  -6.756  0.00  0.00     0.063 A 
ATOM     12  C13 <0> d           1.027   0.354  -5.590  0.00  0.00    -0.008 A 
ATOM     13  C15 <0> d           1.485   1.673  -7.744  0.00  0.00     0.062 C 
ATOM     14  C18 <0> d           2.481   0.271  -5.197  0.00  0.00     0.043 C 
ATOM     15  C17 <0> d           3.330   0.600  -6.432  0.00  0.00     0.005 C 
ATOM     16  C16 <0> d           2.840   1.904  -7.063  0.00  0.00     0.006 C 
ENDBRANCH   6   7
ENDBRANCH   5   6
ENDBRANCH   3   5
BRANCH   2  17
ATOM     17  C2  <0> d           0.024  -0.743   1.267  0.00  0.00     0.205 C 
BRANCH  17  18
ATOM     18  C3  <0> d          -1.389  -1.016   1.714  0.00  0.00     0.147 C 
ATOM     19  N3  <0> d          -1.576  -1.681   2.848  0.00  0.00    -0.234 NA
ATOM     20  C6  <0> d          -2.821  -2.040   3.161  0.00  0.00     0.060 C 
ATOM     21  C5  <0> d          -3.892  -2.108   2.079  0.00  0.00     0.197 C 
ATOM     22  C7  <0> d          -3.364  -2.159   4.415  0.00  0.00     0.036 C 
ATOM     23  C4  <0> d          -3.650  -0.977   1.129  0.00  0.00     0.265 C 
ATOM     24  S1  <0> d          -5.413  -1.928   3.068  0.00  0.00    -0.121 SA
ATOM     25  N2  <0> d          -2.379  -0.589   0.958  0.00  0.00    -0.196 NA
ATOM     26  O1  <0> d          -4.565  -0.435   0.540  0.00  0.00    -0.269 OA
ATOM     27  C8  <0> d          -4.709  -2.115   4.608  0.00  0.00     0.048 C 
ENDBRANCH  17  18
ENDBRANCH   2  17
TORSDOF 5
