REMARK  5 active torsions:
REMARK  status: ('A' for Active; 'I' for Inactive)
REMARK    1  A    between atoms: C2_2  and  N1_3 
REMARK    2  A    between atoms: C4_5  and  C6_8 
REMARK    3  A    between atoms: C6_8  and  S1_9 
REMARK    4  A    between atoms: S1_9  and  C7_11 
REMARK    5  A    between atoms: C8_12  and  N4_17 
ROOT
ATOM      1  S1  <0> d           2.606  -4.010  -3.338  0.00  0.00     0.075 S 
ATOM      2  O1  <0> d           1.633  -4.179  -4.359  0.00  0.00    -0.251 OA
ENDROOT
BRANCH   1   3
ATOM      3  C6  <0> d           3.174  -2.287  -3.325  0.00  0.00     0.157 C 
BRANCH   3   4
ATOM      4  C4  <0> d           2.062  -1.394  -2.838  0.00  0.00    -0.010 A 
ATOM      5  C3  <0> d           1.826  -1.047  -1.552  0.00  0.00     0.121 A 
ATOM      6  N1  <0> d           0.744  -0.239  -1.536  0.00  0.00    -0.281 N 
ATOM      7  N2  <0> d           0.298  -0.091  -2.855  0.00  0.00    -0.185 NA
ATOM      8  C5  <0> d           1.092  -0.779  -3.635  0.00  0.00     0.148 A 
BRANCH   6   9
ATOM      9  C2  <0> d           0.140   0.369  -0.348  0.00  0.00     0.146 C 
ATOM     10  C1  <0> d           0.053   1.885  -0.539  0.00  0.00     0.028 C 
ENDBRANCH   6   9
ENDBRANCH   3   4
ENDBRANCH   1   3
BRANCH   1  11
ATOM     11  C7  <0> d           4.000  -4.914  -3.923  0.00  0.00     0.149 A 
ATOM     12  N3  <0> d           4.200  -5.037  -5.219  0.00  0.00    -0.249 NA
ATOM     13  C11 <0> d           5.233  -5.700  -5.703  0.00  0.00     0.118 A 
ATOM     14  C10 <0> d           6.146  -6.306  -4.861  0.00  0.00     0.022 A 
ATOM     15  C9  <0> d           5.972  -6.207  -3.490  0.00  0.00     0.033 A 
ATOM     16  C8  <0> d           4.874  -5.495  -3.012  0.00  0.00     0.064 A 
BRANCH  16  17
ATOM     17  N4  <0> d           4.656  -5.366  -1.639  0.00  0.00    -0.397 N 
ATOM     18  H13 <0> d           3.844  -4.946  -1.314  0.00  0.00     0.156 HD
ATOM     19  H14 <0> d           5.316  -5.697  -1.009  0.00  0.00     0.156 HD
ENDBRANCH  16  17
ENDBRANCH   1  11
TORSDOF 5
