REMARK  5 active torsions:
REMARK  status: ('A' for Active; 'I' for Inactive)
REMARK    1  A    between atoms: C4_4  and  N3_19 
REMARK    2  A    between atoms: C5_5  and  S1_9 
REMARK    3  A    between atoms: S1_9  and  N1_12 
REMARK    4  A    between atoms: N1_12  and  C9_13 
REMARK    5  A    between atoms: C13_17  and  N2_18 
ROOT
ATOM      1  S1  <0> d          -0.072  -4.781  -0.062  0.00  0.00     0.261 S 
ATOM      2  O1  <0> d           1.004  -5.339  -0.804  0.00  0.00    -0.200 OA
ATOM      3  O2  <0> d          -0.196  -4.949   1.343  0.00  0.00    -0.200 OA
ENDROOT
BRANCH   1   4
ATOM      4  C5  <0> d          -0.043  -3.045  -0.362  0.00  0.00     0.113 A 
ATOM      5  C4  <0> d          -1.024  -2.234   0.178  0.00  0.00     0.126 A 
ATOM      6  C3  <0> d          -1.001  -0.872  -0.056  0.00  0.00     0.045 A 
ATOM      7  C2  <0> d           0.003  -0.321  -0.830  0.00  0.00    -0.054 A 
ATOM      8  C1  <0> d           0.029   1.164  -1.085  0.00  0.00     0.049 C 
ATOM      9  C7  <0> d           0.981  -1.132  -1.373  0.00  0.00    -0.054 A 
ATOM     10  C6  <0> d           0.961  -2.494  -1.136  0.00  0.00     0.035 A 
ATOM     11  C8  <0> d           2.073  -0.531  -2.221  0.00  0.00     0.049 C 
BRANCH   5  12
ATOM     12  N3  <0> d          -2.099  -2.825   1.006  0.00  0.00    -0.114 N 
ATOM     13  O3  <0> d          -2.882  -2.106   1.583  0.00  0.00    -0.532 OA
ATOM     14  O4  <0> d          -2.195  -4.026   1.107  0.00  0.00    -0.532 OA
ENDBRANCH   5  12
ENDBRANCH   1   4
BRANCH   1  15
ATOM     15  N1  <0> d          -1.466  -5.371  -0.734  0.00  0.00    -0.309 N 
ATOM     16  H11 <0> d          -2.151  -5.759  -0.168  0.00  0.00     0.172 HD
BRANCH  15  17
ATOM     17  C9  <0> d          -1.665  -5.306  -2.184  0.00  0.00     0.123 C 
ATOM     18  C13 <0> d          -2.381  -6.576  -2.675  0.00  0.00     0.206 C 
ATOM     19  C12 <0> d          -3.709  -6.114  -3.312  0.00  0.00     0.035 C 
ATOM     20  C11 <0> d          -3.446  -4.641  -3.712  0.00  0.00     0.004 C 
ATOM     21  C10 <0> d          -2.581  -4.117  -2.539  0.00  0.00     0.028 C 
BRANCH  18  22
ATOM     22  N2  <0> d          -2.650  -7.472  -1.543  0.00  0.00    -0.073 N 
ATOM     23  H18 <0> d          -3.237  -6.999  -0.872  0.00  0.00     0.274 HD
ATOM     24  H19 <0> d          -3.119  -8.302  -1.874  0.00  0.00     0.274 HD
ATOM     25  H20 <0> d          -1.779  -7.731  -1.104  0.00  0.00     0.274 HD
ENDBRANCH  18  22
ENDBRANCH  15  17
ENDBRANCH   1  15
TORSDOF 5
