REMARK  9 active torsions:
REMARK  status: ('A' for Active; 'I' for Inactive)
REMARK    1  A    between atoms: C2_2  and  C3_3 
REMARK    2  A    between atoms: C3_3  and  C4_4 
REMARK    3  A    between atoms: C4_4  and  C5_5 
REMARK    4  A    between atoms: C5_5  and  N1_6 
REMARK    5  A    between atoms: N1_6  and  S1_8 
REMARK    6  A    between atoms: S1_8  and  C7_11 
REMARK    7  A    between atoms: C9_13  and  C12_17 
REMARK    8  A    between atoms: C13_18  and  C14_19 
REMARK    9  A    between atoms: C14_19  and  N3_20 
ROOT
ATOM      1  C7  <0> d          -1.320  -5.115  -2.038  0.00  0.00     0.098 A 
ATOM      2  C8  <0> d          -0.741  -4.168  -2.865  0.00  0.00     0.048 A 
ATOM      3  C9  <0> d           0.559  -4.399  -3.327  0.00  0.00     0.036 A 
ATOM      4  C10 <0> d           1.216  -5.566  -2.938  0.00  0.00     0.136 A 
ATOM      5  N2  <0> d           0.623  -6.437  -2.148  0.00  0.00    -0.270 NA
ATOM      6  C11 <0> d          -0.600  -6.244  -1.693  0.00  0.00     0.141 A 
ENDROOT
BRANCH   1   7
ATOM      7  S1  <0> d          -2.955  -4.880  -1.425  0.00  0.00     0.262 S 
ATOM      8  O1  <0> d          -3.460  -6.170  -1.109  0.00  0.00    -0.200 OA
ATOM      9  O2  <0> d          -3.610  -4.008  -2.337  0.00  0.00    -0.200 OA
BRANCH   7  10
ATOM     10  N1  <0> d          -2.828  -4.058   0.007  0.00  0.00    -0.311 N 
ATOM     11  C6  <0> d          -2.696  -4.796   1.266  0.00  0.00     0.163 C 
BRANCH  10  12
ATOM     12  C5  <0> d          -2.848  -2.593   0.015  0.00  0.00     0.135 C 
BRANCH  12  13
ATOM     13  C4  <0> d          -1.413  -2.063   0.004  0.00  0.00     0.021 C 
BRANCH  13  14
ATOM     14  C3  <0> d          -1.433  -0.534   0.013  0.00  0.00     0.001 C 
BRANCH  14  15
ATOM     15  C2  <0> d           0.002  -0.004   0.002  0.00  0.00    -0.004 C 
ATOM     16  C1  <0> d          -0.019   1.526   0.010  0.00  0.00     0.005 C 
ENDBRANCH  14  15
ENDBRANCH  13  14
ENDBRANCH  12  13
ENDBRANCH  10  12
ENDBRANCH   7  10
ENDBRANCH   1   7
BRANCH   3  17
ATOM     17  C12 <0> d           1.205  -3.452  -4.186  0.00  0.00    -0.064 C 
ATOM     18  C13 <0> d           1.734  -2.676  -4.890  0.00  0.00    -0.074 C 
BRANCH  18  19
ATOM     19  C14 <0> d           2.398  -1.703  -5.773  0.00  0.00     0.323 C 
BRANCH  19  20
ATOM     20  N3  <0> d           3.745  -2.184  -6.107  0.00  0.00    -0.069 N 
ATOM     21  H20 <0> d           3.677  -3.074  -6.579  0.00  0.00     0.275 HD
ATOM     22  H21 <0> d           4.200  -1.517  -6.713  0.00  0.00     0.275 HD
ATOM     23  H22 <0> d           4.284  -2.292  -5.261  0.00  0.00     0.275 HD
ENDBRANCH  19  20
ENDBRANCH  18  19
ENDBRANCH   3  17
TORSDOF 9
