REMARK  6 active torsions:
REMARK  status: ('A' for Active; 'I' for Inactive)
REMARK    1  A    between atoms: C6_6  and  N1_8 
REMARK       I    between atoms: N1_8  and  C8_9 
REMARK    2  A    between atoms: C8_9  and  C9_11 
REMARK       I    between atoms: C9_11  and  N2_13 
REMARK    3  A    between atoms: N2_13  and  C10_14 
REMARK    4  A    between atoms: C10_14  and  C11_15 
REMARK    5  A    between atoms: C11_15  and  C12_16 
REMARK    6  A    between atoms: C11_15  and  N4_31 
ROOT
ATOM      1  C9  <0> d           0.998  -2.629  -1.651  0.00  0.00     0.309 C 
ATOM      2  O2  <0> d           1.508  -3.707  -1.422  0.00  0.00    -0.262 OA
ATOM      3  N2  <0> d           0.262  -2.017  -0.702  0.00  0.00    -0.351 N 
ATOM      4  H9  <0> d          -0.146  -1.156  -0.885  0.00  0.00     0.162 HD
ENDROOT
BRANCH   3   5
ATOM      5  C10 <0> d           0.077  -2.652   0.605  0.00  0.00     0.162 C 
BRANCH   5   6
ATOM      6  C11 <0> d          -0.657  -1.690   1.540  0.00  0.00     0.255 C 
BRANCH   6   7
ATOM      7  C12 <0> d          -0.889  -2.360   2.870  0.00  0.00     0.043 A 
ATOM      8  N3  <0> d          -1.505  -3.561   3.063  0.00  0.00    -0.363 N 
ATOM      9  C15 <0> d          -1.522  -3.834   4.399  0.00  0.00     0.090 A 
ATOM     10  C16 <0> d          -2.053  -4.418   2.010  0.00  0.00     0.155 C 
ATOM     11  C14 <0> d          -0.931  -2.810   5.047  0.00  0.00     0.019 A 
ATOM     12  C13 <0> d          -0.528  -1.872   4.075  0.00  0.00     0.029 A 
ENDBRANCH   6   7
BRANCH   6  13
ATOM     13  N4  <0> d           0.124  -0.462   1.776  0.00  0.00    -0.060 N 
ATOM     14  C17 <0> d           0.082   0.402   0.556  0.00  0.00     0.236 C 
ATOM     15  C18 <0> d           0.260   1.825   1.025  0.00  0.00     0.028 C 
ATOM     16  C19 <0> d           1.724   2.281   0.907  0.00  0.00     0.002 C 
ATOM     17  C20 <0> d           2.709   1.177   1.338  0.00  0.00     0.002 C 
ATOM     18  C21 <0> d           2.251   0.440   2.571  0.00  0.00     0.028 C 
ATOM     19  C22 <0> d           1.451  -0.809   2.143  0.00  0.00     0.236 C 
ATOM     20  H33 <0> d          -0.299   0.057   2.555  0.00  0.00     0.280 HD
ENDBRANCH   6  13
ENDBRANCH   5   6
ENDBRANCH   3   5
BRANCH   1  21
ATOM     21  C8  <0> d           1.186  -1.982  -2.983  0.00  0.00     0.313 C 
ATOM     22  N1  <0> d           1.922  -2.594  -3.932  0.00  0.00    -0.318 N 
ATOM     23  H8  <0> d           2.280  -3.481  -3.771  0.00  0.00     0.169 HD
ATOM     24  O1  <0> d           0.676  -0.904  -3.212  0.00  0.00    -0.262 OA
BRANCH  22  25
ATOM     25  C6  <0> d           2.170  -1.951  -5.147  0.00  0.00     0.041 A 
ATOM     26  C5  <0> d           3.313  -2.255  -5.876  0.00  0.00    -0.035 A 
ATOM     27  C4  <0> d           3.554  -1.618  -7.077  0.00  0.00     0.009 A 
ATOM     28  C23 <0> d           4.289  -3.279  -5.356  0.00  0.00     0.050 C 
ATOM     29  C3  <0> d           2.659  -0.678  -7.555  0.00  0.00     0.007 A 
ATOM     30  C2  <0> d           1.520  -0.373  -6.833  0.00  0.00    -0.060 A 
ATOM     31  C1  <0> d           0.547   0.651  -7.358  0.00  0.00     0.048 C 
ATOM     32  C7  <0> d           1.270  -1.010  -5.633  0.00  0.00     0.037 A 
ENDBRANCH  22  25
ENDBRANCH   1  21
TORSDOF 6
