REMARK  5 active torsions:
REMARK  status: ('A' for Active; 'I' for Inactive)
REMARK       I    between atoms: N2_11  and  C9_12 
REMARK    1  A    between atoms: C9_12  and  C10_14 
REMARK    2  A    between atoms: C10_14  and  O3_15 
REMARK    3  A    between atoms: O3_15  and  C11_16 
REMARK    4  A    between atoms: C11_16  and  C12_18 
REMARK    5  A    between atoms: C17_23  and  N3_24 
ROOT
ATOM      1  C1  <0> d          -1.125   1.644  -0.359  0.00  0.00     0.002 A 
ATOM      2  C2  <0> d           0.110   1.026  -0.439  0.00  0.00     0.002 A 
ATOM      3  C3  <0> d           1.270   1.772  -0.318  0.00  0.00     0.032 A 
ATOM      4  C4  <0> d           1.188   3.136  -0.107  0.00  0.00     0.065 A 
ATOM      5  C5  <0> d          -0.057   3.760  -0.013  0.00  0.00     0.062 A 
ATOM      6  C6  <0> d          -1.213   3.006  -0.142  0.00  0.00     0.032 A 
ATOM      7  N1  <0> d          -0.123   5.139   0.220  0.00  0.00    -0.323 N 
ATOM      8  C7  <0> d           0.957   5.920   0.015  0.00  0.00     0.251 C 
ATOM      9  O1  <0> d           0.880   7.115   0.203  0.00  0.00    -0.270 OA
ATOM     10  C8  <0> d           2.256   5.319  -0.445  0.00  0.00     0.121 C 
ATOM     11  N2  <0> d           2.345   3.925   0.006  0.00  0.00    -0.295 N 
ATOM     12  C9  <0> d           3.491   3.423   0.509  0.00  0.00     0.249 C 
ATOM     13  O2  <0> d           4.537   4.013   0.342  0.00  0.00    -0.271 OA
ATOM     14  C18 <0> d           2.349   5.375  -1.980  0.00  0.00     0.041 C 
ATOM     15  C19 <0> d           3.177   6.655  -2.261  0.00  0.00     0.003 C 
ATOM     16  C20 <0> d           4.222   6.646  -1.118  0.00  0.00     0.003 C 
ATOM     17  C21 <0> d           3.440   6.125   0.107  0.00  0.00     0.041 C 
ATOM     18  H5  <0> d          -0.952   5.535   0.531  0.00  0.00     0.169 HD
ENDROOT
BRANCH  12  19
ATOM     19  C10 <0> d           3.471   2.127   1.279  0.00  0.00     0.282 C 
BRANCH  19  20
ATOM     20  O3  <0> d           4.776   1.898   1.874  0.00  0.00    -0.308 OA
BRANCH  20  21
ATOM     21  C11 <0> d           4.927   0.774   2.602  0.00  0.00     0.296 C 
ATOM     22  O4  <0> d           3.995   0.006   2.735  0.00  0.00    -0.259 OA
BRANCH  21  23
ATOM     23  C12 <0> d           6.222   0.476   3.234  0.00  0.00     0.065 A 
ATOM     24  C17 <0> d           6.420  -0.746   3.898  0.00  0.00     0.045 A 
ATOM     25  C16 <0> d           7.647  -1.018   4.487  0.00  0.00     0.072 A 
ATOM     26  C15 <0> d           8.665  -0.085   4.428  0.00  0.00     0.118 A 
ATOM     27  C14 <0> d           8.470   1.127   3.776  0.00  0.00     0.043 A 
ATOM     28  F1  <0> d           9.856  -0.352   5.006  0.00  0.00    -0.206 F 
ATOM     29  C13 <0> d           7.262   1.411   3.183  0.00  0.00     0.023 A 
BRANCH  24  30
ATOM     30  N3  <0> d           5.394  -1.679   3.961  0.00  0.00    -0.398 N 
ATOM     31  H11 <0> d           4.698  -1.682   3.285  0.00  0.00     0.156 HD
ATOM     32  H12 <0> d           5.372  -2.329   4.681  0.00  0.00     0.156 HD
ENDBRANCH  24  30
ENDBRANCH  21  23
ENDBRANCH  20  21
ENDBRANCH  19  20
ENDBRANCH  12  19
TORSDOF 5
