REMARK  5 active torsions:
REMARK  status: ('A' for Active; 'I' for Inactive)
REMARK    1  A    between atoms: C7_7  and  N3_17 
REMARK    2  A    between atoms: N1_10  and  C9_11 
REMARK    3  A    between atoms: C9_11  and  C10_12 
REMARK    4  A    between atoms: C10_12  and  C11_13 
REMARK    5  A    between atoms: C11_13  and  C12_14 
ROOT
ATOM      1  C12 <0> d           4.069  -4.687   2.808  0.00  0.00     0.124 C 
ATOM      2  C13 <0> d           5.132  -5.704   2.791  0.00  0.00     0.059 C 
ATOM      3  N2  <0> d           5.953  -6.490   2.779  0.00  0.00    -0.197 NA
ENDROOT
BRANCH   1   4
ATOM      4  C11 <0> d           3.599  -4.417   1.377  0.00  0.00     0.016 C 
BRANCH   4   5
ATOM      5  C10 <0> d           2.494  -3.359   1.395  0.00  0.00     0.021 C 
BRANCH   5   6
ATOM      6  C9  <0> d           2.024  -3.089  -0.036  0.00  0.00     0.132 C 
BRANCH   6   7
ATOM      7  N1  <0> d           0.965  -2.076  -0.020  0.00  0.00    -0.314 N 
ATOM      8  C5  <0> d           1.204  -0.700  -0.002  0.00  0.00     0.063 A 
ATOM      9  C4  <0> d           2.400   0.017   0.004  0.00  0.00     0.041 A 
ATOM     10  C6  <0> d           0.002  -0.004   0.011  0.00  0.00     0.015 A 
ATOM     11  C3  <0> d           2.380   1.397   0.022  0.00  0.00     0.063 A 
ATOM     12 Br1  <0> d           4.052  -0.903  -0.012  0.00  0.00    -0.049 Br
ATOM     13  C2  <0> d           1.176   2.080   0.034  0.00  0.00     0.118 A 
ATOM     14  C1  <0> d          -0.017   1.372   0.028  0.00  0.00     0.054 A 
ATOM     15  F1  <0> d           1.162   3.430   0.051  0.00  0.00    -0.206 F 
ATOM     16  C7  <0> d          -1.093  -1.046  -0.001  0.00  0.00     0.344 A 
ATOM     17  C8  <0> d          -0.347  -2.364  -0.019  0.00  0.00     0.262 A 
ATOM     18  O1  <0> d          -0.842  -3.471  -0.033  0.00  0.00    -0.270 OA
BRANCH  16  19
ATOM     19  N3  <0> d          -1.919  -0.937   1.209  0.00  0.00     0.096 N 
ATOM     20  H12 <0> d          -2.653  -1.629   1.209  0.00  0.00     0.314 HD
ATOM     21  H13 <0> d          -1.354  -1.009   2.041  0.00  0.00     0.314 HD
ENDBRANCH  16  19
ENDBRANCH   6   7
ENDBRANCH   5   6
ENDBRANCH   4   5
ENDBRANCH   1   4
TORSDOF 5
