REMARK  9 active torsions:
REMARK  status: ('A' for Active; 'I' for Inactive)
REMARK    1  A    between atoms: O1_2  and  C2_3 
REMARK    2  A    between atoms: C4_5  and  C15_19 
REMARK    3  A    between atoms: C7_8  and  O2_9 
REMARK    4  A    between atoms: O2_9  and  C8_10 
REMARK    5  A    between atoms: C8_10  and  C9_11 
REMARK    6  A    between atoms: C9_11  and  C10_12 
REMARK    7  A    between atoms: C9_11  and  O3_18 
REMARK    8  A    between atoms: C10_12  and  N2_28 
REMARK    9  A    between atoms: C15_19  and  N3_30 
ROOT
ATOM      1  C2  <0> d          -4.037   0.069  -1.345  0.00  0.00     0.102 A 
ATOM      2  C3  <0> d          -2.706   0.421  -1.497  0.00  0.00     0.048 A 
ATOM      3  C4  <0> d          -2.240   1.608  -0.964  0.00  0.00    -0.030 A 
ATOM      4  C5  <0> d          -3.102   2.451  -0.287  0.00  0.00     0.012 A 
ATOM      5  C6  <0> d          -4.432   2.107  -0.136  0.00  0.00     0.040 A 
ATOM      6  C7  <0> d          -4.905   0.917  -0.664  0.00  0.00     0.102 A 
ENDROOT
BRANCH   6   7
ATOM      7  O2  <0> d          -6.213   0.578  -0.517  0.00  0.00    -0.346 OA
BRANCH   7   8
ATOM      8  C8  <0> d          -7.046   1.497   0.194  0.00  0.00     0.209 C 
BRANCH   8   9
ATOM      9  C9  <0> d          -8.473   0.949   0.257  0.00  0.00     0.168 C 
BRANCH   9  10
ATOM     10  C10 <0> d          -9.389   1.987   0.907  0.00  0.00     0.268 C 
BRANCH  10  11
ATOM     11  N2  <0> d         -10.749   1.425   0.986  0.00  0.00    -0.067 N 
ATOM     12  C11 <0> d         -11.300   1.247  -0.376  0.00  0.00     0.245 C 
ATOM     13  C12 <0> d         -12.501   0.296  -0.309  0.00  0.00     0.101 C 
ATOM     14  S1  <0> d         -13.787   1.070   0.721  0.00  0.00    -0.166 SA
ATOM     15  C13 <0> d         -12.869   1.546   2.218  0.00  0.00     0.101 C 
ATOM     16  C14 <0> d         -11.616   2.318   1.791  0.00  0.00     0.245 C 
ATOM     17  H30 <0> d         -10.705   0.508   1.445  0.00  0.00     0.280 HD
ENDBRANCH  10  11
ENDBRANCH   9  10
BRANCH   9  18
ATOM     18  O3  <0> d          -8.488  -0.252   1.032  0.00  0.00    -0.392 OA
ATOM     19  H20 <0> d          -8.186  -0.136   1.944  0.00  0.00     0.210 HD
ENDBRANCH   9  18
ENDBRANCH   8   9
ENDBRANCH   7   8
ENDBRANCH   6   7
BRANCH   1  20
ATOM     20  O1  <0> d          -4.496  -1.101  -1.865  0.00  0.00    -0.353 OA
ATOM     21  C1  <0> d          -3.549  -1.922  -2.552  0.00  0.00     0.210 C 
ENDBRANCH   1  20
BRANCH   3  22
ATOM     22  C15 <0> d          -0.790   1.987  -1.125  0.00  0.00     0.274 C 
BRANCH  22  23
ATOM     23  N3  <0> d          -0.025   1.470   0.032  0.00  0.00    -0.057 N 
ATOM     24  C16 <0> d           1.357   1.991  -0.000  0.00  0.00     0.255 C 
ATOM     25  C17 <0> d           2.014   1.675   1.345  0.00  0.00     0.150 C 
ATOM     26  N1  <0> d           1.841   0.261   1.666  0.00  0.00    -0.358 N 
ATOM     27  C18 <0> d           0.921  -0.511   1.077  0.00  0.00     0.243 C 
ATOM     28  H27 <0> d           2.419  -0.136   2.336  0.00  0.00     0.162 HD
ATOM     29  O4  <0> d           0.825  -1.669   1.426  0.00  0.00    -0.272 OA
ATOM     30  C19 <0> d           0.002  -0.004   0.002  0.00  0.00     0.337 C 
ATOM     31  H31 <0> d          -0.480   1.780   0.899  0.00  0.00     0.280 HD
ENDBRANCH  22  23
ENDBRANCH   3  22
TORSDOF 9
