REMARK  9 active torsions:
REMARK  status: ('A' for Active; 'I' for Inactive)
REMARK    1  A    between atoms: O1_2  and  C2_3 
REMARK    2  A    between atoms: C7_8  and  N1_9 
REMARK    3  A    between atoms: N1_9  and  C8_10 
REMARK    4  A    between atoms: C8_10  and  C9_11 
REMARK    5  A    between atoms: C10_14  and  S1_22 
REMARK    6  A    between atoms: N4_15  and  C11_16 
REMARK    7  A    between atoms: S1_22  and  C17_23 
REMARK    8  A    between atoms: C17_23  and  C18_24 
REMARK       I    between atoms: C18_24  and  N5_26 
REMARK    9  A    between atoms: N5_26  and  C19_27 
ROOT
ATOM      1  C9  <0> d          -0.742   1.585  -1.213  0.00  0.00     0.153 A 
ATOM      2  N2  <0> d          -0.521   2.706  -1.840  0.00  0.00    -0.132 NA
ATOM      3  N3  <0> d          -1.320   2.819  -2.840  0.00  0.00    -0.122 NA
ATOM      4  C10 <0> d          -2.103   1.767  -2.907  0.00  0.00     0.196 A 
ATOM      5  N4  <0> d          -1.755   0.942  -1.873  0.00  0.00    -0.274 N 
ENDROOT
BRANCH   4   6
ATOM      6  S1  <0> d          -3.360   1.471  -4.106  0.00  0.00    -0.081 SA
BRANCH   6   7
ATOM      7  C17 <0> d          -3.202   2.973  -5.104  0.00  0.00     0.185 C 
BRANCH   7   8
ATOM      8  C18 <0> d          -4.208   2.939  -6.225  0.00  0.00     0.227 C 
ATOM      9  O2  <0> d          -4.959   1.994  -6.338  0.00  0.00    -0.273 OA
ATOM     10  N5  <0> d          -4.275   3.961  -7.102  0.00  0.00    -0.352 N 
ATOM     11  H19 <0> d          -3.594   4.818  -7.000  0.00  0.00     0.163 HD
BRANCH  10  12
ATOM     12  C19 <0> d          -5.253   3.928  -8.192  0.00  0.00     0.118 C 
ATOM     13  C24 <0> d          -6.579   4.434  -7.684  0.00  0.00    -0.029 A 
ATOM     14  C23 <0> d          -7.376   5.286  -8.415  0.00  0.00    -0.050 A 
ATOM     15  C25 <0> d          -6.994   4.010  -6.429  0.00  0.00     0.010 A 
ATOM     16  C22 <0> d          -6.985   5.792  -9.779  0.00  0.00     0.039 C 
ATOM     17  C28 <0> d          -8.590   5.710  -7.892  0.00  0.00     0.007 A 
ATOM     18  C21 <0> d          -5.879   4.925 -10.377  0.00  0.00     0.007 C 
ATOM     19  C20 <0> d          -4.753   4.797  -9.344  0.00  0.00     0.030 C 
ATOM     20  C27 <0> d          -9.002   5.286  -6.645  0.00  0.00     0.001 A 
ATOM     21  C26 <0> d          -8.200   4.434  -5.910  0.00  0.00     0.001 A 
ENDBRANCH  10  12
ENDBRANCH   7   8
ENDBRANCH   6   7
ENDBRANCH   4   6
BRANCH   5  22
ATOM     22  C11 <0> d          -2.320  -0.301  -1.553  0.00  0.00     0.043 A 
ATOM     23  C16 <0> d          -3.647  -0.379  -1.151  0.00  0.00     0.030 A 
ATOM     24  C15 <0> d          -4.200  -1.605  -0.837  0.00  0.00     0.002 A 
ATOM     25  C14 <0> d          -3.435  -2.753  -0.923  0.00  0.00     0.000 A 
ATOM     26  C13 <0> d          -2.113  -2.679  -1.322  0.00  0.00     0.002 A 
ATOM     27  C12 <0> d          -1.556  -1.456  -1.643  0.00  0.00     0.030 A 
ENDBRANCH   5  22
BRANCH   1  28
ATOM     28  C8  <0> d          -0.013   1.086   0.008  0.00  0.00     0.201 C 
BRANCH  28  29
ATOM     29  N1  <0> d          -0.698   1.558   1.213  0.00  0.00    -0.380 N 
ATOM     30  H9  <0> d          -1.602   2.179   1.124  0.00  0.00     0.160 HD
BRANCH  29  31
ATOM     31  C7  <0> d          -0.204   1.220   2.478  0.00  0.00     0.062 A 
ATOM     32  C2  <0> d          -0.854   1.668   3.626  0.00  0.00     0.094 A 
ATOM     33  C3  <0> d          -0.360   1.330   4.875  0.00  0.00     0.039 A 
ATOM     34  C4  <0> d           0.776   0.549   4.981  0.00  0.00     0.003 A 
ATOM     35  C5  <0> d           1.422   0.104   3.843  0.00  0.00     0.002 A 
ATOM     36  C6  <0> d           0.933   0.432   2.592  0.00  0.00     0.032 A 
BRANCH  32  37
ATOM     37  O1  <0> d          -1.972   2.435   3.519  0.00  0.00    -0.354 OA
ATOM     38  C1  <0> d          -2.586   2.859   4.738  0.00  0.00     0.210 C 
ENDBRANCH  32  37
ENDBRANCH  29  31
ENDBRANCH  28  29
ENDBRANCH   1  28
TORSDOF 9
