REMARK  4 active torsions:
REMARK  status: ('A' for Active; 'I' for Inactive)
REMARK    1  A    between atoms: C5_5  and  S1_9 
REMARK    2  A    between atoms: S1_9  and  N1_12 
REMARK    3  A    between atoms: N1_12  and  C8_13 
REMARK    4  A    between atoms: C12_17  and  C15_20 
REMARK       I    between atoms: C15_20  and  N2_22 
ROOT
ATOM      1  N1  <0> d           3.491   1.367  -1.564  0.00  0.00    -0.280 N 
ATOM      2  H7  <0> d           3.501   0.724  -2.456  0.00  0.00     0.179 HD
ENDROOT
BRANCH   1   3
ATOM      3  S1  <0> d           3.037   0.744  -0.099  0.00  0.00     0.264 S 
ATOM      4  O1  <0> d           2.683  -0.613  -0.327  0.00  0.00    -0.200 OA
ATOM      5  O2  <0> d           2.137   1.679   0.479  0.00  0.00    -0.200 OA
BRANCH   3   6
ATOM      6  C5  <0> d           4.470   0.725   0.926  0.00  0.00     0.097 A 
ATOM      7  C4  <0> d           4.504   1.483   2.082  0.00  0.00     0.027 A 
ATOM      8  C3  <0> d           5.630   1.472   2.883  0.00  0.00     0.008 A 
ATOM      9  C2  <0> d           6.719   0.695   2.535  0.00  0.00    -0.061 A 
ATOM     10  C1  <0> d           7.945   0.680   3.412  0.00  0.00     0.048 C 
ATOM     11  C7  <0> d           6.686  -0.064   1.380  0.00  0.00     0.027 A 
ATOM     12  C6  <0> d           5.561  -0.049   0.575  0.00  0.00     0.034 A 
ATOM     13 Br1  <0> d           5.515  -1.087  -1.005  0.00  0.00    -0.049 Br
ENDBRANCH   3   6
ENDBRANCH   1   3
BRANCH   1  14
ATOM     14  C8  <0> d           3.862   2.711  -1.666  0.00  0.00     0.049 A 
ATOM     15  C13 <0> d           3.643   3.402  -2.848  0.00  0.00    -0.019 A 
ATOM     16  C12 <0> d           4.009   4.745  -2.943  0.00  0.00     0.040 A 
ATOM     17  C14 <0> d           3.004   2.708  -4.023  0.00  0.00     0.052 C 
ATOM     18  C11 <0> d           4.606   5.379  -1.852  0.00  0.00     0.018 A 
ATOM     19  C10 <0> d           4.826   4.680  -0.683  0.00  0.00     0.003 A 
ATOM     20  C9  <0> d           4.457   3.352  -0.586  0.00  0.00     0.031 A 
BRANCH  16  21
ATOM     21  C15 <0> d           3.771   5.491  -4.197  0.00  0.00     0.251 C 
ATOM     22  O3  <0> d           3.318   4.919  -5.168  0.00  0.00    -0.268 OA
ATOM     23  N2  <0> d           4.058   6.807  -4.263  0.00  0.00    -0.361 N 
ATOM     24  C16 <0> d           3.823   7.546  -5.505  0.00  0.00     0.149 C 
ATOM     25  H14 <0> d           4.469   7.325  -3.383  0.00  0.00     0.162 HD
ENDBRANCH  16  21
ENDBRANCH   1  14
TORSDOF 4
