REMARK  4 active torsions:
REMARK  status: ('A' for Active; 'I' for Inactive)
REMARK    1  A    between atoms: C5_5  and  C21_25 
REMARK    2  A    between atoms: C7_7  and  N1_8 
REMARK       I    between atoms: N1_8  and  C8_9 
REMARK    3  A    between atoms: C8_9  and  C9_11 
REMARK    4  A    between atoms: C9_11  and  C10_12 
REMARK       I    between atoms: N2_21  and  C19_22 
REMARK       I    between atoms: C21_25  and  N3_27 
ROOT
ATOM      1  N1  <0> d           0.025  -0.007   2.417  0.00  0.00    -0.327 N 
ATOM      2  C8  <0> d          -0.057  -0.683   3.581  0.00  0.00     0.224 C 
ATOM      3  O1  <0> d          -0.040  -1.895   3.580  0.00  0.00    -0.273 OA
ATOM      4  H8  <0> d           0.078   0.961   2.421  0.00  0.00     0.169 HD
ENDROOT
BRANCH   2   5
ATOM      5  C9  <0> d          -0.168   0.069   4.882  0.00  0.00     0.134 C 
BRANCH   5   6
ATOM      6  C10 <0> d          -0.245  -0.926   6.041  0.00  0.00     0.134 C 
ATOM      7  N2  <0> d          -1.486  -1.703   5.940  0.00  0.00    -0.319 N 
ATOM      8  C18 <0> d          -2.694  -1.123   6.313  0.00  0.00     0.095 C 
ATOM      9  C19 <0> d          -1.453  -2.973   5.489  0.00  0.00     0.220 C 
ATOM     10  C17 <0> d          -2.717  -0.210   7.290  0.00  0.00     0.029 C 
ATOM     11  C16 <0> d          -1.452   0.188   7.937  0.00  0.00    -0.026 A 
ATOM     12  C11 <0> d          -0.237  -0.178   7.351  0.00  0.00    -0.024 A 
ATOM     13  C15 <0> d          -1.456   0.902   9.134  0.00  0.00     0.012 A 
ATOM     14  C12 <0> d           0.950   0.148   7.968  0.00  0.00     0.010 A 
ATOM     15  C13 <0> d           0.939   0.849   9.161  0.00  0.00     0.001 A 
ATOM     16  C14 <0> d          -0.260   1.228   9.740  0.00  0.00     0.001 A 
ATOM     17  O2  <0> d          -0.397  -3.475   5.166  0.00  0.00    -0.273 OA
ATOM     18  C20 <0> d          -2.729  -3.769   5.385  0.00  0.00     0.117 C 
ENDBRANCH   5   6
ENDBRANCH   2   5
BRANCH   1  19
ATOM     19  C7  <0> d           0.033  -0.704   1.203  0.00  0.00     0.041 A 
ATOM     20  C2  <0> d          -0.585  -0.158   0.085  0.00  0.00    -0.035 A 
ATOM     21  C1  <0> d          -1.264   1.184   0.183  0.00  0.00     0.050 C 
ATOM     22  C3  <0> d          -0.575  -0.839  -1.118  0.00  0.00     0.010 A 
ATOM     23  C4  <0> d           0.045  -2.068  -1.215  0.00  0.00     0.017 A 
ATOM     24  C5  <0> d           0.665  -2.627  -0.096  0.00  0.00     0.034 A 
ATOM     25  C6  <0> d           0.655  -1.940   1.117  0.00  0.00     0.047 A 
BRANCH  24  26
ATOM     26  C21 <0> d           1.329  -3.944  -0.197  0.00  0.00     0.251 C 
ATOM     27  O3  <0> d           1.868  -4.429   0.778  0.00  0.00    -0.268 OA
ATOM     28  N3  <0> d           1.337  -4.607  -1.371  0.00  0.00    -0.361 N 
ATOM     29  C22 <0> d           1.996  -5.912  -1.471  0.00  0.00     0.149 C 
ATOM     30  H20 <0> d           0.907  -4.220  -2.149  0.00  0.00     0.162 HD
ENDBRANCH  24  26
ENDBRANCH   1  19
TORSDOF 4
