REMARK  6 active torsions:
REMARK  status: ('A' for Active; 'I' for Inactive)
REMARK    1  A    between atoms: C2_2  and  C3_3 
REMARK    2  A    between atoms: C2_2  and  N3_9 
REMARK    3  A    between atoms: C3_3  and  N1_4 
REMARK       I    between atoms: N3_9  and  C7_10 
REMARK       I    between atoms: C7_10  and  N4_12 
REMARK    4  A    between atoms: C10_15  and  N5_18 
REMARK       I    between atoms: N5_18  and  C13_19 
REMARK    5  A    between atoms: C13_19  and  C14_21 
REMARK    6  A    between atoms: C14_21  and  C15_22 
ROOT
ATOM      1  N3  <0> d          -1.370  -0.515   0.012  0.00  0.00    -0.337 N 
ATOM      2  C7  <0> d          -2.051  -0.643  -1.145  0.00  0.00     0.318 C 
ATOM      3  O1  <0> d          -1.559  -0.252  -2.186  0.00  0.00    -0.247 OA
ATOM      4  N4  <0> d          -3.277  -1.203  -1.147  0.00  0.00    -0.334 N 
ATOM      5  C8  <0> d          -3.935  -1.569   0.115  0.00  0.00     0.129 C 
ATOM      6  C9  <0> d          -5.322  -0.920   0.154  0.00  0.00     0.045 C 
ATOM      7  C10 <0> d          -6.103  -1.317  -1.101  0.00  0.00     0.087 C 
ATOM      8  C11 <0> d          -5.367  -0.810  -2.344  0.00  0.00     0.045 C 
ATOM      9  C12 <0> d          -3.983  -1.453  -2.411  0.00  0.00     0.129 C 
ATOM     10  H10 <0> d          -1.790  -0.760   0.851  0.00  0.00     0.164 HD
ENDROOT
BRANCH   1  11
ATOM     11  C2  <0> d           0.004  -0.008   0.001  0.00  0.00     0.100 C 
ATOM     12  C1  <0> d          -0.018   1.522   0.015  0.00  0.00     0.034 C 
BRANCH  11  13
ATOM     13  C3  <0> d           0.746  -0.519   1.237  0.00  0.00     0.153 C 
BRANCH  13  14
ATOM     14  N1  <0> d           0.871  -1.977   1.163  0.00  0.00    -0.350 N 
ATOM     15  C6  <0> d           1.886  -2.667   0.599  0.00  0.00     0.182 A 
ATOM     16  N2  <0> d           1.647  -3.943   0.730  0.00  0.00    -0.361 N 
ATOM     17  C5  <0> d           0.480  -4.112   1.368  0.00  0.00     0.106 A 
ATOM     18  H34 <0> d           2.222  -4.657   0.412  0.00  0.00     0.166 HD
ATOM     19  C4  <0> d          -0.022  -2.894   1.648  0.00  0.00     0.108 A 
ENDBRANCH  13  14
ENDBRANCH  11  13
ENDBRANCH   1  11
BRANCH   7  20
ATOM     20  N5  <0> d          -7.441  -0.725  -1.051  0.00  0.00    -0.356 N 
ATOM     21  C13 <0> d          -8.457  -1.296  -1.728  0.00  0.00     0.218 C 
ATOM     22  O2  <0> d          -8.262  -2.301  -2.379  0.00  0.00    -0.274 OA
ATOM     23  H20 <0> d          -7.597   0.078  -0.530  0.00  0.00     0.162 HD
BRANCH  21  24
ATOM     24  C14 <0> d          -9.834  -0.687  -1.677  0.00  0.00     0.107 C 
BRANCH  24  25
ATOM     25  C15 <0> d         -10.794  -1.524  -2.525  0.00  0.00    -0.006 C 
ATOM     26  C20 <0> d         -12.216  -0.979  -2.373  0.00  0.00     0.005 C 
ATOM     27  C19 <0> d         -13.176  -1.815  -3.222  0.00  0.00     0.000 C 
ATOM     28  C18 <0> d         -12.755  -1.741  -4.691  0.00  0.00     0.000 C 
ATOM     29  C17 <0> d         -11.333  -2.286  -4.842  0.00  0.00     0.000 C 
ATOM     30  C16 <0> d         -10.373  -1.449  -3.994  0.00  0.00     0.005 C 
ENDBRANCH  24  25
ENDBRANCH  21  24
ENDBRANCH   7  20
TORSDOF 6
