REMARK  5 active torsions:
REMARK  status: ('A' for Active; 'I' for Inactive)
REMARK    1  A    between atoms: C5_5  and  C11_12 
REMARK       I    between atoms: C11_12  and  N1_14 
REMARK    2  A    between atoms: N1_14  and  C12_15 
REMARK    3  A    between atoms: C12_15  and  C13_16 
REMARK    4  A    between atoms: C13_16  and  N2_17 
REMARK       I    between atoms: N2_17  and  C14_18 
REMARK    5  A    between atoms: C14_18  and  C15_20 
ROOT
ATOM      1  C12 <0> d           1.341  -5.618   2.136  0.00  0.00     0.142 C 
ENDROOT
BRANCH   1   2
ATOM      2  N1  <0> d           0.811  -4.553   1.282  0.00  0.00    -0.359 N 
ATOM      3  C11 <0> d           1.010  -3.261   1.613  0.00  0.00     0.227 C 
ATOM      4  O2  <0> d           1.627  -2.982   2.619  0.00  0.00    -0.273 OA
ATOM      5  H16 <0> d           0.317  -4.776   0.477  0.00  0.00     0.162 HD
BRANCH   3   6
ATOM      6  C5  <0> d           0.465  -2.165   0.735  0.00  0.00     0.055 C 
ATOM      7  C4  <0> d          -1.085  -2.137   0.556  0.00  0.00     0.022 C 
ATOM      8  C3  <0> d          -1.390  -0.703   0.064  0.00  0.00     0.019 C 
ATOM      9  C2  <0> d           0.002  -0.004   0.002  0.00  0.00     0.025 C 
ATOM     10  C1  <0> d          -0.019   1.526   0.010  0.00  0.00     0.024 C 
ATOM     11  C6  <0> d           0.727  -0.692   1.212  0.00  0.00    -0.017 C 
ATOM     12  C10 <0> d           0.731  -0.657  -1.181  0.00  0.00     0.137 C 
ATOM     13  C7  <0> d           0.040  -0.388   2.544  0.00  0.00     0.017 C 
ATOM     14  C8  <0> d           2.220  -0.359   1.253  0.00  0.00     0.017 C 
ATOM     15  C9  <0> d           1.022  -2.089  -0.720  0.00  0.00     0.099 C 
ATOM     16  O1  <0> d           0.996  -0.153  -2.246  0.00  0.00    -0.297 OA
ENDBRANCH   3   6
ENDBRANCH   1   2
BRANCH   1  17
ATOM     17  C13 <0> d           0.979  -6.979   1.538  0.00  0.00     0.142 C 
BRANCH  17  18
ATOM     18  N2  <0> d           1.509  -8.045   2.392  0.00  0.00    -0.359 N 
ATOM     19  C14 <0> d           1.311  -9.336   2.060  0.00  0.00     0.227 C 
ATOM     20  O3  <0> d           0.693  -9.615   1.054  0.00  0.00    -0.273 OA
ATOM     21  H21 <0> d           2.003  -7.821   3.196  0.00  0.00     0.162 HD
BRANCH  19  22
ATOM     22  C15 <0> d           1.856 -10.432   2.938  0.00  0.00     0.055 C 
ATOM     23  C19 <0> d           1.576 -11.905   2.472  0.00  0.00    -0.017 C 
ATOM     24  C18 <0> d           2.308 -12.593   3.678  0.00  0.00     0.025 C 
ATOM     25  C20 <0> d           2.263 -12.229   1.144  0.00  0.00     0.017 C 
ATOM     26  C21 <0> d           0.079 -12.220   2.430  0.00  0.00     0.017 C 
ATOM     27  C17 <0> d           3.705 -11.906   3.598  0.00  0.00     0.019 C 
ATOM     28  C22 <0> d           1.611 -11.914   4.865  0.00  0.00     0.137 C 
ATOM     29  C24 <0> d           2.316 -14.123   3.677  0.00  0.00     0.024 C 
ATOM     30  C16 <0> d           3.407 -10.473   3.102  0.00  0.00     0.022 C 
ATOM     31  O4  <0> d           1.354 -12.400   5.940  0.00  0.00    -0.297 OA
ATOM     32  C23 <0> d           1.294 -10.490   4.392  0.00  0.00     0.099 C 
ENDBRANCH  19  22
ENDBRANCH  17  18
ENDBRANCH   1  17
TORSDOF 5
