REMARK  4 active torsions:
REMARK  status: ('A' for Active; 'I' for Inactive)
REMARK    1  A    between atoms: C7_9  and  C9_11 
REMARK    2  A    between atoms: C9_11  and  C10_12 
REMARK       I    between atoms: C10_12  and  N3_14 
REMARK    3  A    between atoms: N3_14  and  C11_15 
REMARK    4  A    between atoms: C13_17  and  N4_22 
ROOT
ATOM      1  C10 <0> d          -1.347  -1.550   5.288  0.00  0.00     0.227 C 
ATOM      2  O1  <0> d          -2.272  -1.657   4.511  0.00  0.00    -0.273 OA
ATOM      3  N3  <0> d          -1.578  -1.561   6.616  0.00  0.00    -0.326 N 
ATOM      4  H10 <0> d          -0.833  -1.557   7.238  0.00  0.00     0.169 HD
ENDROOT
BRANCH   3   5
ATOM      5  C11 <0> d          -2.891  -1.578   7.098  0.00  0.00     0.042 A 
ATOM      6  C16 <0> d          -3.163  -2.100   8.357  0.00  0.00    -0.035 A 
ATOM      7  C15 <0> d          -4.459  -2.112   8.835  0.00  0.00     0.011 A 
ATOM      8  C17 <0> d          -2.042  -2.646   9.203  0.00  0.00     0.050 C 
ATOM      9  C14 <0> d          -5.490  -1.617   8.060  0.00  0.00     0.031 A 
ATOM     10  C13 <0> d          -5.225  -1.099   6.799  0.00  0.00     0.047 A 
ATOM     11  C12 <0> d          -3.924  -1.080   6.317  0.00  0.00     0.060 A 
BRANCH  10  12
ATOM     12  N4  <0> d          -6.271  -0.597   6.013  0.00  0.00    -0.252 N 
ATOM     13  C21 <0> d          -6.270   0.645   5.513  0.00  0.00     0.231 A 
ATOM     14  C20 <0> d          -7.537   0.862   4.715  0.00  0.00     0.113 A 
ATOM     15  O3  <0> d          -5.391   1.465   5.672  0.00  0.00    -0.273 OA
ATOM     16  C19 <0> d          -8.284  -0.480   4.850  0.00  0.00     0.113 A 
ATOM     17  C18 <0> d          -7.357  -1.317   5.705  0.00  0.00     0.231 A 
ATOM     18  O2  <0> d          -7.566  -2.458   6.057  0.00  0.00    -0.273 OA
ENDBRANCH  10  12
ENDBRANCH   3   5
BRANCH   1  19
ATOM     19  C9  <0> d           0.060  -1.404   4.769  0.00  0.00     0.161 C 
BRANCH  19  20
ATOM     20  C7  <0> d           0.043  -1.421   3.262  0.00  0.00     0.035 A 
ATOM     21  N2  <0> d           0.013  -0.345   2.471  0.00  0.00    -0.343 N 
ATOM     22  C6  <0> d           0.007  -0.737   1.205  0.00  0.00     0.117 A 
ATOM     23  H21 <0> d          -0.001   0.576   2.775  0.00  0.00     0.167 HD
ATOM     24  C2  <0> d          -0.021  -0.022  -0.009  0.00  0.00    -0.017 A 
ATOM     25  N1  <0> d           0.028  -2.107   1.184  0.00  0.00    -0.317 N 
ATOM     26  C1  <0> d          -0.051   1.485  -0.005  0.00  0.00     0.052 C 
ATOM     27  C3  <0> d          -0.015  -0.706  -1.185  0.00  0.00     0.012 A 
ATOM     28  C4  <0> d           0.013  -2.110  -1.174  0.00  0.00     0.018 A 
ATOM     29  C5  <0> d           0.034  -2.781  -0.003  0.00  0.00     0.098 A 
ATOM     30  C8  <0> d           0.043  -2.527   2.486  0.00  0.00     0.123 A 
ENDBRANCH  19  20
ENDBRANCH   1  19
TORSDOF 4
