REMARK  3 active torsions:
REMARK  status: ('A' for Active; 'I' for Inactive)
REMARK    1  A    between atoms: C4_4  and  C12_18 
REMARK    2  A    between atoms: C6_8  and  N1_9 
REMARK       I    between atoms: N1_9  and  C7_10 
REMARK    3  A    between atoms: C7_10  and  C8_12 
ROOT
ATOM      1  C1  <0> d           4.806  -4.181   0.769  0.00  0.00     0.050 C 
ATOM      2  C2  <0> d           3.531  -4.912   0.436  0.00  0.00    -0.026 A 
ATOM      3  C3  <0> d           3.470  -6.305   0.516  0.00  0.00     0.048 A 
ATOM      4  C4  <0> d           2.297  -6.958   0.201  0.00  0.00     0.097 A 
ATOM      5  O1  <0> d           1.204  -6.267  -0.178  0.00  0.00    -0.272 OA
ATOM      6  C5  <0> d           1.225  -4.926  -0.261  0.00  0.00     0.316 A 
ATOM      7  O2  <0> d           0.222  -4.323  -0.606  0.00  0.00    -0.257 OA
ATOM      8  C6  <0> d           2.400  -4.214   0.050  0.00  0.00     0.117 A 
ENDROOT
BRANCH   8   9
ATOM      9  N1  <0> d           2.426  -2.816  -0.036  0.00  0.00    -0.316 N 
ATOM     10  C7  <0> d           2.674  -2.218  -1.218  0.00  0.00     0.276 C 
ATOM     11  O3  <0> d           2.963  -2.889  -2.189  0.00  0.00    -0.266 OA
ATOM     12  H5  <0> d           2.264  -2.279   0.755  0.00  0.00     0.169 HD
BRANCH  10  13
ATOM     13  C8  <0> d           2.595  -0.744  -1.333  0.00  0.00     0.141 A 
ATOM     14  N3  <0> d           2.278  -0.008  -0.271  0.00  0.00    -0.253 NA
ATOM     15  C11 <0> d           2.208   1.304  -0.377  0.00  0.00     0.136 A 
ATOM     16  C10 <0> d           2.464   1.919  -1.594  0.00  0.00     0.135 A 
ATOM     17  N2  <0> d           2.779   1.193  -2.652  0.00  0.00    -0.269 NA
ATOM     18  C9  <0> d           2.852  -0.122  -2.555  0.00  0.00     0.153 A 
ENDBRANCH  10  13
ENDBRANCH   8   9
BRANCH   4  19
ATOM     19  C12 <0> d           2.238  -8.420   0.281  0.00  0.00     0.038 A 
ATOM     20  S1  <0> d           3.517  -9.575   0.749  0.00  0.00    -0.099 SA
ATOM     21  C15 <0> d           2.579 -11.082   0.563  0.00  0.00     0.050 A 
ATOM     22  C14 <0> d           1.364 -10.620   0.161  0.00  0.00     0.008 A 
ATOM     23  C13 <0> d           1.173  -9.267   0.018  0.00  0.00     0.022 A 
ENDBRANCH   4  19
TORSDOF 3
