REMARK  3 active torsions:
REMARK  status: ('A' for Active; 'I' for Inactive)
REMARK    1  A    between atoms: C2_2  and  C4_4 
REMARK    2  A    between atoms: C2_2  and  N3_12 
REMARK       I    between atoms: C4_4  and  N1_6 
REMARK    3  A    between atoms: N3_12  and  C10_14 
ROOT
ATOM      1  C1  <0> d          -0.987   1.323  -0.328  0.00  0.00     0.057 C 
ATOM      2  C2  <0> d          -0.854   1.675   1.155  0.00  0.00     0.200 C 
ATOM      3  C3  <0> d           0.306   0.886   1.766  0.00  0.00     0.057 C 
ENDROOT
BRANCH   2   4
ATOM      4  C4  <0> d          -0.587   3.152   1.298  0.00  0.00     0.255 C 
ATOM      5  O1  <0> d           0.523   3.541   1.593  0.00  0.00    -0.271 OA
ATOM      6  N1  <0> d          -1.582   4.039   1.099  0.00  0.00    -0.347 N 
ATOM      7  C8  <0> d          -1.321   5.486   1.137  0.00  0.00     0.155 C 
ATOM      8  C5  <0> d          -2.955   3.586   0.831  0.00  0.00     0.155 C 
ATOM      9  C7  <0> d          -1.900   6.119  -0.133  0.00  0.00     0.289 C 
ATOM     10  N2  <0> d          -3.315   5.745  -0.261  0.00  0.00     0.086 N 
ATOM     11  C6  <0> d          -3.470   4.293  -0.422  0.00  0.00     0.289 C 
ATOM     12  H12 <0> d          -3.734   6.258  -1.139  0.00  0.00     0.316 HD
ENDBRANCH   2   4
BRANCH   2  13
ATOM     13  N3  <0> d          -2.100   1.333   1.853  0.00  0.00    -0.053 N 
ATOM     14  C9  <0> d          -2.236  -0.121   2.005  0.00  0.00     0.271 C 
ATOM     15  H26 <0> d          -2.941   1.689   1.239  0.00  0.00     0.281 HD
BRANCH  13  16
ATOM     16  C10 <0> d          -2.176   2.008   3.156  0.00  0.00     0.204 C 
ATOM     17  C13 <0> d          -1.104   1.419   4.116  0.00  0.00     0.173 C 
ATOM     18  S1  <0> d          -1.787   1.942   5.746  0.00  0.00     0.146 S 
ATOM     19  C12 <0> d          -3.546   2.198   5.271  0.00  0.00     0.142 C 
ATOM     20  O2  <0> d          -1.219   3.193   6.106  0.00  0.00    -0.228 OA
ATOM     21  O3  <0> d          -1.708   0.850   6.652  0.00  0.00    -0.228 OA
ATOM     22  C11 <0> d          -3.561   1.773   3.782  0.00  0.00     0.049 C 
ENDBRANCH  13  16
ENDBRANCH   2  13
TORSDOF 3
