REMARK  3 active torsions:
REMARK  status: ('A' for Active; 'I' for Inactive)
REMARK    1  A    between atoms: C4_4  and  C7_7 
REMARK    2  A    between atoms: C8_9  and  C10_12 
REMARK    3  A    between atoms: C10_12  and  N2_13 
ROOT
ATOM      1  N2  <0> d           4.459   7.468  -1.375  0.00  0.00    -0.262 N 
ATOM      2  C11 <0> d           5.520   7.316  -2.193  0.00  0.00     0.257 A 
ATOM      3  O2  <0> d           6.565   6.756  -1.939  0.00  0.00    -0.270 OA
ATOM      4  C12 <0> d           5.133   7.987  -3.495  0.00  0.00     0.125 A 
ATOM      5  C13 <0> d           6.081   9.139  -3.792  0.00  0.00     0.052 C 
ATOM      6  C14 <0> d           6.795   9.024  -5.158  0.00  0.00     0.077 C 
ATOM      7  S1  <0> d           5.649   7.900  -6.070  0.00  0.00    -0.166 SA
ATOM      8  C15 <0> d           5.067   6.925  -4.615  0.00  0.00     0.115 C 
ATOM      9  N3  <0> d           3.776   8.495  -3.234  0.00  0.00    -0.324 N 
ATOM     10  C16 <0> d           3.470   8.143  -1.972  0.00  0.00     0.326 A 
ATOM     11  O3  <0> d           2.413   8.409  -1.434  0.00  0.00    -0.247 OA
ATOM     12  H15 <0> d           3.233   9.042  -4.019  0.00  0.00     0.165 HD
ENDROOT
BRANCH   1  13
ATOM     13  C10 <0> d           4.399   6.963  -0.002  0.00  0.00     0.198 C 
BRANCH  13  14
ATOM     14  C8  <0> d           3.830   5.568  -0.004  0.00  0.00     0.078 A 
ATOM     15  N1  <0> d           2.528   5.245   0.001  0.00  0.00    -0.225 NA
ATOM     16  C7  <0> d           2.420   3.937   0.000  0.00  0.00     0.179 A 
ATOM     17  O1  <0> d           3.655   3.406  -0.014  0.00  0.00    -0.301 OA
ATOM     18  C9  <0> d           4.538   4.424  -0.017  0.00  0.00     0.173 A 
BRANCH  16  19
ATOM     19  C4  <0> d           1.153   3.176   0.008  0.00  0.00     0.017 A 
ATOM     20  C3  <0> d           1.174   1.780   0.000  0.00  0.00     0.016 A 
ATOM     21  C2  <0> d          -0.013   1.076   0.008  0.00  0.00     0.001 A 
ATOM     22  C1  <0> d          -1.221   1.750   0.017  0.00  0.00     0.000 A 
ATOM     23  C6  <0> d          -1.248   3.133   0.030  0.00  0.00     0.001 A 
ATOM     24  C5  <0> d          -0.070   3.849   0.022  0.00  0.00     0.016 A 
ENDBRANCH  16  19
ENDBRANCH  13  14
ENDBRANCH   1  13
TORSDOF 3
