REMARK  4 active torsions:
REMARK  status: ('A' for Active; 'I' for Inactive)
REMARK    1  A    between atoms: C5_5  and  C8_8 
REMARK    2  A    between atoms: N1_15  and  C14_18 
REMARK    3  A    between atoms: C14_18  and  C15_19 
REMARK       I    between atoms: C15_19  and  N3_21 
REMARK       I    between atoms: N3_21  and  C16_22 
REMARK       I    between atoms: C16_22  and  N4_24 
REMARK    4  A    between atoms: N4_24  and  C17_25 
ROOT
ATOM      1  C8  <0> d           4.724  -0.874  -2.278  0.00  0.00    -0.001 A 
ATOM      2  C9  <0> d           5.747  -1.728  -2.031  0.00  0.00     0.065 A 
ATOM      3  S1  <0> d           5.810  -1.792  -0.251  0.00  0.00    -0.080 SA
ATOM      4  C10 <0> d           4.475  -0.683   0.116  0.00  0.00     0.115 A 
ATOM      5  C11 <0> d           4.011  -0.288  -1.149  0.00  0.00     0.080 A 
ATOM      6  C12 <0> d           2.911   0.627  -1.149  0.00  0.00     0.263 A 
ATOM      7  O1  <0> d           2.439   1.028  -2.199  0.00  0.00    -0.267 OA
ATOM      8  N1  <0> d           2.406   1.040   0.029  0.00  0.00    -0.299 N 
ATOM      9  C13 <0> d           2.923   0.608   1.208  0.00  0.00     0.214 A 
ATOM     10  N2  <0> d           3.923  -0.231   1.240  0.00  0.00    -0.235 NA
ENDROOT
BRANCH   8  11
ATOM     11  C14 <0> d           1.280   1.977   0.038  0.00  0.00     0.236 C 
BRANCH  11  12
ATOM     12  C15 <0> d          -0.015   1.206   0.034  0.00  0.00     0.243 C 
ATOM     13  O2  <0> d           0.001  -0.006   0.024  0.00  0.00    -0.271 OA
ATOM     14  N3  <0> d          -1.191   1.865   0.036  0.00  0.00    -0.278 N 
ATOM     15  C16 <0> d          -2.349   1.176   0.027  0.00  0.00     0.327 C 
ATOM     16  H12 <0> d          -1.205   2.965   0.045  0.00  0.00     0.173 HD
ATOM     17  O3  <0> d          -2.333  -0.039   0.017  0.00  0.00    -0.247 OA
ATOM     18  N4  <0> d          -3.525   1.834   0.029  0.00  0.00    -0.306 N 
ATOM     19  H13 <0> d          -3.541   2.931   0.112  0.00  0.00     0.171 HD
BRANCH  18  20
ATOM     20  C17 <0> d          -4.726   1.122  -0.075  0.00  0.00     0.075 A 
ATOM     21  C22 <0> d          -5.801   1.667  -0.769  0.00  0.00     0.143 A 
ATOM     22  C21 <0> d          -6.986   0.960  -0.870  0.00  0.00     0.044 A 
ATOM     23  F1  <0> d          -5.689   2.884  -1.345  0.00  0.00    -0.204 F 
ATOM     24  C20 <0> d          -7.101  -0.286  -0.281  0.00  0.00     0.003 A 
ATOM     25  C19 <0> d          -6.033  -0.829   0.410  0.00  0.00     0.002 A 
ATOM     26  C18 <0> d          -4.845  -0.131   0.510  0.00  0.00     0.033 A 
ENDBRANCH  18  20
ENDBRANCH  11  12
ENDBRANCH   8  11
BRANCH   1  27
ATOM     27  C5  <0> d           4.337  -0.542  -3.670  0.00  0.00    -0.024 A 
ATOM     28  C4  <0> d           5.305  -0.140  -4.589  0.00  0.00     0.013 A 
ATOM     29  C3  <0> d           4.939   0.168  -5.883  0.00  0.00     0.007 A 
ATOM     30  C2  <0> d           3.614   0.079  -6.270  0.00  0.00    -0.062 A 
ATOM     31  C1  <0> d           3.220   0.416  -7.685  0.00  0.00     0.048 C 
ATOM     32  C7  <0> d           2.648  -0.319  -5.362  0.00  0.00     0.007 A 
ATOM     33  C6  <0> d           3.003  -0.635  -4.067  0.00  0.00     0.013 A 
ENDBRANCH   1  27
TORSDOF 4
