REMARK  5 active torsions:
REMARK  status: ('A' for Active; 'I' for Inactive)
REMARK    1  A    between atoms: C5_5  and  S1_9 
REMARK    2  A    between atoms: S1_9  and  N1_12 
REMARK    3  A    between atoms: N1_12  and  C9_13 
REMARK    4  A    between atoms: C13_17  and  C15_19 
REMARK    5  A    between atoms: C15_19  and  N2_21 
ROOT
ATOM      1  N1  <0> d          -3.715   0.686   1.545  0.00  0.00    -0.281 N 
ATOM      2  H11 <0> d          -3.793  -0.258   2.104  0.00  0.00     0.179 HD
ENDROOT
BRANCH   1   3
ATOM      3  S1  <0> d          -2.832   0.750   0.145  0.00  0.00     0.263 S 
ATOM      4  O1  <0> d          -2.400  -0.577  -0.123  0.00  0.00    -0.200 OA
ATOM      5  O2  <0> d          -1.923   1.833   0.288  0.00  0.00    -0.200 OA
BRANCH   3   6
ATOM      6  C5  <0> d          -3.941   1.191  -1.151  0.00  0.00     0.085 A 
ATOM      7  C4  <0> d          -3.781   2.390  -1.819  0.00  0.00     0.026 A 
ATOM      8  C3  <0> d          -4.648   2.733  -2.840  0.00  0.00     0.008 A 
ATOM      9  C2  <0> d          -5.678   1.879  -3.189  0.00  0.00    -0.061 A 
ATOM     10  C1  <0> d          -6.622   2.253  -4.302  0.00  0.00     0.048 C 
ATOM     11  C7  <0> d          -5.841   0.683  -2.517  0.00  0.00     0.015 A 
ATOM     12  C6  <0> d          -4.974   0.339  -1.496  0.00  0.00    -0.038 A 
ATOM     13  C8  <0> d          -5.151  -0.966  -0.764  0.00  0.00     0.050 C 
ENDBRANCH   3   6
ENDBRANCH   1   3
BRANCH   1  14
ATOM     14  C9  <0> d          -4.361   1.832   2.016  0.00  0.00     0.043 A 
ATOM     15  C14 <0> d          -5.681   1.761   2.443  0.00  0.00     0.039 A 
ATOM     16  C13 <0> d          -6.316   2.895   2.909  0.00  0.00    -0.026 A 
ATOM     17  C12 <0> d          -5.640   4.101   2.950  0.00  0.00     0.009 A 
ATOM     18  C11 <0> d          -4.326   4.175   2.526  0.00  0.00     0.003 A 
ATOM     19  C10 <0> d          -3.683   3.043   2.063  0.00  0.00     0.030 A 
BRANCH  16  20
ATOM     20  C15 <0> d          -7.748   2.819   3.372  0.00  0.00     0.212 C 
ATOM     21  C16 <0> d          -7.787   2.745   4.900  0.00  0.00     0.045 C 
BRANCH  20  22
ATOM     22  N2  <0> d          -8.473   4.015   2.921  0.00  0.00    -0.071 N 
ATOM     23  H19 <0> d          -9.518   3.959   3.260  0.00  0.00     0.275 HD
ATOM     24  H20 <0> d          -8.446   4.068   1.823  0.00  0.00     0.275 HD
ATOM     25  H21 <0> d          -7.998   4.912   3.344  0.00  0.00     0.275 HD
ENDBRANCH  20  22
ENDBRANCH  16  20
ENDBRANCH   1  14
TORSDOF 5
