REMARK  3 active torsions:
REMARK  status: ('A' for Active; 'I' for Inactive)
REMARK    1  A    between atoms: C5_6  and  N3_16 
REMARK    2  A    between atoms: C6_8  and  C7_10 
REMARK    3  A    between atoms: C7_10  and  C8_11 
ROOT
ATOM      1  C1  <0> d          -0.018   1.448   0.010  0.00  0.00     0.025 A 
ATOM      2  C2  <0> d           1.144   2.119   0.003  0.00  0.00     0.053 A 
ATOM      3  S1  <0> d           2.371   0.826  -0.016  0.00  0.00    -0.081 SA
ATOM      4  C3  <0> d           1.291  -0.580  -0.013  0.00  0.00     0.113 A 
ATOM      5  C4  <0> d           0.002  -0.004   0.002  0.00  0.00     0.046 A 
ATOM      6  C5  <0> d          -1.078  -0.928   0.007  0.00  0.00     0.136 A 
ATOM      7  N1  <0> d          -0.818  -2.226  -0.003  0.00  0.00    -0.215 NA
ATOM      8  C6  <0> d           0.417  -2.695  -0.017  0.00  0.00     0.132 A 
ATOM      9  N2  <0> d           1.460  -1.888  -0.022  0.00  0.00    -0.225 NA
ENDROOT
BRANCH   8  10
ATOM     10  C7  <0> d           0.639  -4.186  -0.028  0.00  0.00     0.112 C 
BRANCH  10  11
ATOM     11  C8  <0> d           0.700  -4.682  -1.474  0.00  0.00     0.128 C 
ATOM     12  O1  <0> d          -0.586  -4.551  -2.101  0.00  0.00    -0.385 OA
ATOM     13  C11 <0> d          -0.814  -5.660  -2.982  0.00  0.00     0.168 C 
ATOM     14  C10 <0> d           0.411  -6.595  -2.882  0.00  0.00     0.029 C 
ATOM     15  C9  <0> d           1.018  -6.198  -1.509  0.00  0.00     0.034 C 
ENDBRANCH  10  11
ENDBRANCH   8  10
BRANCH   6  16
ATOM     16  N3  <0> d          -2.386  -0.477   0.022  0.00  0.00    -0.383 N 
ATOM     17  H12 <0> d          -2.570   0.475   0.030  0.00  0.00     0.157 HD
ATOM     18  H13 <0> d          -3.118  -1.113   0.025  0.00  0.00     0.157 HD
ENDBRANCH   6  16
TORSDOF 3
