REMARK  5 active torsions:
REMARK  status: ('A' for Active; 'I' for Inactive)
REMARK    1  A    between atoms: C3_3  and  C6_9 
REMARK    2  A    between atoms: C6_9  and  C7_10 
REMARK       I    between atoms: C7_10  and  N3_12 
REMARK    3  A    between atoms: N3_12  and  C9_14 
REMARK    4  A    between atoms: C9_14  and  C10_15 
REMARK    5  A    between atoms: C10_15  and  O2_16 
ROOT
ATOM      1  C6  <0> d          -0.006  -0.327  -2.527  0.00  0.00     0.145 C 
ENDROOT
BRANCH   1   2
ATOM      2  C3  <0> d           0.008  -0.796  -1.095  0.00  0.00     0.000 A 
ATOM      3  C2  <0> d           0.002  -0.004   0.002  0.00  0.00     0.033 A 
ATOM      4  C1  <0> d          -0.018   1.503   0.010  0.00  0.00     0.070 C 
ATOM      5  N2  <0> d           0.024  -0.805   1.088  0.00  0.00    -0.282 N 
ATOM      6  N1  <0> d           0.035  -2.134   0.643  0.00  0.00    -0.179 NA
ATOM      7  H1  <0> d           0.029  -0.513   2.013  0.00  0.00     0.189 HD
ATOM      8  C4  <0> d           0.028  -2.127  -0.666  0.00  0.00     0.059 A 
ATOM      9  C5  <0> d           0.040  -3.343  -1.556  0.00  0.00     0.073 C 
ENDBRANCH   1   2
BRANCH   1  10
ATOM     10  C7  <0> d           1.410  -0.150  -3.012  0.00  0.00     0.223 C 
ATOM     11  O1  <0> d           2.339  -0.382  -2.267  0.00  0.00    -0.273 OA
ATOM     12  N3  <0> d           1.645   0.266  -4.272  0.00  0.00    -0.354 N 
ATOM     13  C8  <0> d           0.522   0.547  -5.171  0.00  0.00     0.152 C 
BRANCH  12  14
ATOM     14  C9  <0> d           3.021   0.438  -4.743  0.00  0.00     0.151 C 
BRANCH  14  15
ATOM     15  C10 <0> d           3.518  -0.873  -5.356  0.00  0.00     0.183 C 
BRANCH  15  16
ATOM     16  O2  <0> d           2.753  -1.172  -6.526  0.00  0.00    -0.399 OA
ATOM     17  H17 <0> d           3.013  -1.991  -6.967  0.00  0.00     0.209 HD
ENDBRANCH  15  16
ENDBRANCH  14  15
ENDBRANCH  12  14
ENDBRANCH   1  10
TORSDOF 5
