REMARK  4 active torsions:
REMARK  status: ('A' for Active; 'I' for Inactive)
REMARK    1  A    between atoms: C7_8  and  C9_11 
REMARK    2  A    between atoms: N3_13  and  C13_17 
REMARK    3  A    between atoms: C13_17  and  C14_18 
REMARK    4  A    between atoms: C14_18  and  O1_19 
ROOT
ATOM      1  C1  <0> d           1.577  -5.597   1.813  0.00  0.00     0.050 C 
ATOM      2  C2  <0> d           2.155  -4.570   2.752  0.00  0.00    -0.033 A 
ATOM      3  C3  <0> d           3.363  -4.769   3.315  0.00  0.00     0.009 A 
ATOM      4  C4  <0> d           3.950  -3.845   4.198  0.00  0.00     0.003 A 
ATOM      5  C5  <0> d           3.348  -2.691   4.548  0.00  0.00     0.031 A 
ATOM      6  C6  <0> d           2.025  -2.367   3.995  0.00  0.00     0.057 A 
ATOM      7  N1  <0> d           1.225  -1.352   4.151  0.00  0.00    -0.363 N 
ATOM      8  C7  <0> d           0.034  -1.600   3.330  0.00  0.00     0.215 A 
ATOM      9  N2  <0> d           0.245  -2.896   2.674  0.00  0.00    -0.363 N 
ATOM     10  C8  <0> d           1.407  -3.342   3.056  0.00  0.00     0.062 A 
ATOM     11  H21 <0> d          -0.368  -3.338   2.066  0.00  0.00     0.162 HD
ATOM     12  H22 <0> d           1.387  -0.574   4.707  0.00  0.00     0.162 HD
ENDROOT
BRANCH   8  13
ATOM     13  C9  <0> d          -1.194  -1.654   4.203  0.00  0.00     0.004 A 
ATOM     14  C11 <0> d          -1.514  -2.704   5.245  0.00  0.00     0.107 A 
ATOM     15  N4  <0> d          -2.816  -2.283   5.798  0.00  0.00    -0.230 NA
ATOM     16  C12 <0> d          -0.447  -2.713   6.342  0.00  0.00     0.033 C 
ATOM     17  N3  <0> d          -3.162  -1.144   5.128  0.00  0.00    -0.314 N 
ATOM     18  H9  <0> d          -3.511  -3.003   5.670  0.00  0.00     0.147 HD
ATOM     19  C10 <0> d          -2.197  -0.800   4.203  0.00  0.00     0.027 A 
ATOM     20  C15 <0> d          -2.280   0.405   3.302  0.00  0.00     0.070 C 
BRANCH  17  21
ATOM     21  C13 <0> d          -4.395  -0.388   5.361  0.00  0.00     0.169 C 
BRANCH  21  22
ATOM     22  C14 <0> d          -5.499  -0.916   4.443  0.00  0.00     0.185 C 
BRANCH  22  23
ATOM     23  O1  <0> d          -5.810  -2.265   4.800  0.00  0.00    -0.399 OA
ATOM     24  H17 <0> d          -6.504  -2.665   4.258  0.00  0.00     0.209 HD
ENDBRANCH  22  23
ENDBRANCH  21  22
ENDBRANCH  17  21
ENDBRANCH   8  13
TORSDOF 4
