REMARK  3 active torsions:
REMARK  status: ('A' for Active; 'I' for Inactive)
REMARK    1  A    between atoms: C6_6  and  C7_7 
REMARK    2  A    between atoms: C7_7  and  C8_8 
REMARK    3  A    between atoms: C7_7  and  O3_19 
ROOT
ATOM      1  C8  <0> d          -1.647  -1.146   1.428  0.00  0.00    -0.023 A 
ATOM      2  C9  <0> d          -1.032  -2.227   2.031  0.00  0.00     0.013 A 
ATOM      3  C10 <0> d          -1.351  -2.574   3.332  0.00  0.00     0.040 A 
ATOM      4  C11 <0> d          -2.289  -1.835   4.032  0.00  0.00     0.096 A 
ATOM      5  C12 <0> d          -2.910  -0.746   3.423  0.00  0.00     0.069 A 
ATOM      6  C13 <0> d          -2.582  -0.401   2.122  0.00  0.00     0.042 A 
ATOM      7  N1  <0> d          -3.861  -0.008   4.142  0.00  0.00    -0.323 N 
ATOM      8  C14 <0> d          -3.928  -0.159   5.483  0.00  0.00     0.246 C 
ATOM      9  O1  <0> d          -4.763   0.446   6.122  0.00  0.00    -0.271 OA
ATOM     10  C15 <0> d          -2.962  -1.081   6.181  0.00  0.00     0.278 C 
ATOM     11  O2  <0> d          -2.614  -2.161   5.312  0.00  0.00    -0.340 OA
ATOM     12  H9  <0> d          -4.461   0.601   3.684  0.00  0.00     0.169 HD
ENDROOT
BRANCH   1  13
ATOM     13  C7  <0> d          -1.293  -0.775   0.011  0.00  0.00     0.184 C 
BRANCH  13  14
ATOM     14  C6  <0> d           0.002  -0.004   0.002  0.00  0.00    -0.025 A 
ATOM     15  C1  <0> d          -0.017   1.378   0.010  0.00  0.00     0.012 A 
ATOM     16  C2  <0> d           1.171   2.086   0.002  0.00  0.00     0.024 A 
ATOM     17  C3  <0> d           2.378   1.410  -0.013  0.00  0.00     0.034 A 
ATOM     18  C4  <0> d           2.396   0.027  -0.021  0.00  0.00     0.024 A 
ATOM     19 Cl1  <0> d           3.870   2.298  -0.023  0.00  0.00    -0.084 Cl
ATOM     20  C5  <0> d           1.208  -0.679  -0.013  0.00  0.00     0.012 A 
ENDBRANCH  13  14
BRANCH  13  21
ATOM     21  O3  <0> d          -1.145  -1.963  -0.770  0.00  0.00    -0.386 OA
ATOM     22  H12 <0> d          -0.455  -2.560  -0.450  0.00  0.00     0.210 HD
ENDBRANCH  13  21
ENDBRANCH   1  13
TORSDOF 3
