REMARK  6 active torsions:
REMARK  status: ('A' for Active; 'I' for Inactive)
REMARK    1  A    between atoms: C2_2  and  S1_4 
REMARK    2  A    between atoms: S1_4  and  C4_7 
REMARK    3  A    between atoms: P1_14  and  C20_29 
REMARK    4  A    between atoms: C13_21  and  C14_22 
REMARK    5  A    between atoms: C19_27  and  O5_28 
REMARK    6  A    between atoms: C20_29  and  C21_30 
ROOT
ATOM      1  C4  <0> d          -1.536  -2.381   0.152  0.00  0.00     0.067 C 
ATOM      2  C5  <0> d          -1.983  -3.010   1.232  0.00  0.00     0.003 C 
ATOM      3  C6  <0> d          -1.852  -4.505   1.342  0.00  0.00     0.021 C 
ATOM      4  C7  <0> d          -2.910  -5.062   2.283  0.00  0.00     0.047 C 
ATOM      5  C8  <0> d          -3.241  -6.522   1.944  0.00  0.00     0.238 C 
ATOM      6  C9  <0> d          -3.688  -7.163   3.266  0.00  0.00     0.213 C 
ATOM      7  O3  <0> d          -4.052  -8.537   3.058  0.00  0.00    -0.316 OA
ATOM      8  P1  <0> d          -2.985  -9.480   2.270  0.00  0.00     0.315 P 
ATOM      9  O4  <0> d          -3.667 -10.661   1.696  0.00  0.00    -0.265 OA
ATOM     10  N1  <0> d          -2.384  -8.525   1.069  0.00  0.00    -0.175 N 
ATOM     11  N2  <0> d          -2.091  -7.210   1.369  0.00  0.00     0.018 N 
ATOM     12  C10 <0> d          -1.689  -6.638   0.075  0.00  0.00     0.272 C 
ATOM     13  C11 <0> d          -2.039  -5.146  -0.031  0.00  0.00     0.045 C 
ATOM     14  C12 <0> d          -1.138  -4.474  -1.033  0.00  0.00    -0.006 C 
ATOM     15  C13 <0> d          -0.905  -3.156  -0.938  0.00  0.00    -0.005 C 
ATOM     16  H16 <0> d          -2.236  -8.883   0.179  0.00  0.00     0.197 HD
ATOM     17  H32 <0> d          -1.316  -7.166   2.013  0.00  0.00     0.309 HD
ENDROOT
BRANCH   8  18
ATOM     18  C20 <0> d          -1.650 -10.004   3.396  0.00  0.00     0.164 C 
BRANCH  18  19
ATOM     19  C21 <0> d          -2.238 -10.782   4.544  0.00  0.00    -0.048 A 
ATOM     20  C26 <0> d          -2.382 -12.154   4.449  0.00  0.00     0.007 A 
ATOM     21  C25 <0> d          -2.918 -12.868   5.504  0.00  0.00     0.001 A 
ATOM     22  C24 <0> d          -3.318 -12.210   6.652  0.00  0.00     0.000 A 
ATOM     23  C23 <0> d          -3.179 -10.837   6.745  0.00  0.00     0.001 A 
ATOM     24  C22 <0> d          -2.640 -10.124   5.692  0.00  0.00     0.007 A 
ENDBRANCH  18  19
ENDBRANCH   8  18
BRANCH  15  25
ATOM     25  C14 <0> d          -0.016  -2.484  -1.915  0.00  0.00     0.008 A 
ATOM     26  C19 <0> d           1.370  -2.656  -1.839  0.00  0.00     0.076 A 
ATOM     27  C18 <0> d           2.193  -2.029  -2.760  0.00  0.00     0.037 A 
ATOM     28  C17 <0> d           1.646  -1.227  -3.744  0.00  0.00     0.003 A 
ATOM     29  C16 <0> d           0.275  -1.050  -3.819  0.00  0.00     0.001 A 
ATOM     30  C15 <0> d          -0.557  -1.674  -2.912  0.00  0.00     0.015 A 
BRANCH  26  31
ATOM     31  O5  <0> d           1.907  -3.440  -0.868  0.00  0.00    -0.360 OA
ATOM     32  H24 <0> d           2.005  -4.368  -1.121  0.00  0.00     0.217 HD
ENDBRANCH  26  31
ENDBRANCH  15  25
BRANCH   1  33
ATOM     33  S1  <0> d          -1.700  -0.632   0.015  0.00  0.00     0.179 S 
ATOM     34  O1  <0> d          -2.359  -0.234   1.209  0.00  0.00    -0.222 OA
ATOM     35  O2  <0> d          -2.308  -0.423  -1.252  0.00  0.00    -0.222 OA
BRANCH  33  36
ATOM     36  C2  <0> d           0.002  -0.004   0.002  0.00  0.00     0.105 C 
ATOM     37  C1  <0> d          -0.019   1.526   0.010  0.00  0.00     0.026 C 
ATOM     38  C3  <0> d           0.742  -0.511   1.242  0.00  0.00     0.026 C 
ENDBRANCH  33  36
ENDBRANCH   1  33
TORSDOF 6
