REMARK  4 active torsions:
REMARK  status: ('A' for Active; 'I' for Inactive)
REMARK    1  A    between atoms: C2_2  and  N1_3 
REMARK    2  A    between atoms: C3_4  and  C7_10 
REMARK       I    between atoms: C7_10  and  N3_12 
REMARK    3  A    between atoms: C9_14  and  C16_22 
REMARK       I    between atoms: C16_22  and  N5_24 
REMARK    4  A    between atoms: N5_24  and  C17_25 
ROOT
ATOM      1  C7  <0> d          -1.787  -0.488   2.705  0.00  0.00     0.273 C 
ATOM      2  O1  <0> d          -2.573  -0.827   3.569  0.00  0.00    -0.266 OA
ATOM      3  N3  <0> d          -0.618   0.089   3.046  0.00  0.00    -0.345 N 
ATOM      4  C8  <0> d           0.500   0.474   2.153  0.00  0.00     0.141 C 
ATOM      5  C9  <0> d           0.999   1.825   2.712  0.00  0.00     0.106 C 
ATOM      6  C10 <0> d           0.564   1.825   4.187  0.00  0.00    -0.007 C 
ATOM      7  C11 <0> d          -0.163   0.489   4.399  0.00  0.00     0.136 C 
ATOM      8  C12 <0> d          -0.388   2.985   4.458  0.00  0.00     0.039 C 
ATOM      9  C13 <0> d          -0.761   2.997   5.943  0.00  0.00     0.233 C 
ATOM     10  N4  <0> d           0.455   3.136   6.754  0.00  0.00    -0.075 N 
ATOM     11  C14 <0> d           1.324   1.969   6.557  0.00  0.00     0.233 C 
ATOM     12  C15 <0> d           1.785   1.913   5.098  0.00  0.00     0.039 C 
ATOM     13  H19 <0> d           0.949   3.971   6.477  0.00  0.00     0.277 HD
ATOM     14  H29 <0> d           0.202   3.204   7.728  0.00  0.00     0.277 HD
ENDROOT
BRANCH   1  15
ATOM     15  C3  <0> d          -2.112  -0.708   1.288  0.00  0.00     0.140 A 
ATOM     16  N1  <0> d          -2.613   0.211   0.408  0.00  0.00    -0.263 N 
ATOM     17  N2  <0> d          -2.777  -0.337  -0.742  0.00  0.00    -0.176 NA
ATOM     18  C5  <0> d          -2.410  -1.593  -0.719  0.00  0.00     0.070 A 
ATOM     19  C4  <0> d          -1.973  -1.888   0.576  0.00  0.00     0.070 A 
ATOM     20  C6  <0> d          -2.456  -2.552  -1.880  0.00  0.00     0.074 C 
ATOM     21 Br1  <0> d          -1.328  -3.546   1.218  0.00  0.00    -0.046 Br
BRANCH  16  22
ATOM     22  C2  <0> d          -2.921   1.607   0.730  0.00  0.00     0.147 C 
ATOM     23  C1  <0> d          -4.329   1.695   1.321  0.00  0.00     0.028 C 
ENDBRANCH  16  22
ENDBRANCH   1  15
BRANCH   5  24
ATOM     24  C16 <0> d           2.499   1.916   2.604  0.00  0.00     0.225 C 
ATOM     25  O2  <0> d           3.168   0.904   2.592  0.00  0.00    -0.273 OA
ATOM     26  N5  <0> d           3.098   3.121   2.523  0.00  0.00    -0.347 N 
ATOM     27  H24 <0> d           2.571   3.931   2.609  0.00  0.00     0.163 HD
BRANCH  26  28
ATOM     28  C17 <0> d           4.544   3.207   2.303  0.00  0.00     0.186 C 
ATOM     29  C20 <0> d           4.857   3.209   0.819  0.00  0.00     0.281 C 
ATOM     30  O3  <0> d           5.404   4.399   0.492  0.00  0.00    -0.320 OA
ATOM     31  O4  <0> d           4.651   2.294   0.057  0.00  0.00    -0.263 OA
ATOM     32  C19 <0> d           6.072   4.926   1.658  0.00  0.00     0.181 C 
ATOM     33  C18 <0> d           5.089   4.568   2.805  0.00  0.00     0.062 C 
ENDBRANCH  26  28
ENDBRANCH   5  24
TORSDOF 4
