REMARK  1 active torsions:
REMARK  status: ('A' for Active; 'I' for Inactive)
REMARK       I    between atoms: C2_2  and  N1_4 
REMARK    1  A    between atoms: N1_4  and  C3_5 
ROOT
ATOM      1  C3  <0> d          -1.136  -2.159   0.001  0.00  0.00     0.212 A 
ATOM      2  C4  <0> d          -2.425  -2.709   0.566  0.00  0.00     0.002 A 
ATOM      3  C5  <0> d          -3.030  -2.598   1.798  0.00  0.00     0.012 A 
ATOM      4  C6  <0> d          -4.240  -3.228   2.033  0.00  0.00     0.002 A 
ATOM      5  C7  <0> d          -4.838  -3.965   1.027  0.00  0.00     0.026 A 
ATOM      6  C8  <0> d          -4.234  -4.078  -0.209  0.00  0.00     0.061 A 
ATOM      7  C9  <0> d          -3.015  -3.446  -0.452  0.00  0.00     0.065 A 
ATOM      8  N2  <0> d          -2.218  -3.410  -1.598  0.00  0.00    -0.323 N 
ATOM      9  C10 <0> d          -1.100  -2.681  -1.419  0.00  0.00     0.249 A 
ATOM     10  O2  <0> d          -0.230  -2.478  -2.240  0.00  0.00    -0.270 OA
ATOM     11 Cl1  <0> d          -4.994  -5.008  -1.463  0.00  0.00    -0.082 Cl
ATOM     12  H9  <0> d          -2.443  -3.860  -2.427  0.00  0.00     0.169 HD
ENDROOT
BRANCH   1  13
ATOM     13  N1  <0> d          -1.156  -0.694   0.009  0.00  0.00    -0.344 N 
ATOM     14  C2  <0> d           0.002  -0.004   0.002  0.00  0.00     0.214 C 
ATOM     15  C1  <0> d          -0.018   1.503   0.010  0.00  0.00     0.117 C 
ATOM     16  O1  <0> d           1.060  -0.596  -0.011  0.00  0.00    -0.274 OA
ATOM     17  H5  <0> d          -2.002  -0.220   0.020  0.00  0.00     0.163 HD
ENDBRANCH   1  13
TORSDOF 1
