REMARK  2 active torsions:
REMARK  status: ('A' for Active; 'I' for Inactive)
REMARK    1  A    between atoms: C4_5  and  C5_6 
REMARK    2  A    between atoms: C9_14  and  O1_17 
ROOT
ATOM      1  C5  <0> d          -1.286  -0.786   0.011  0.00  0.00     0.119 C 
ATOM      2  C6  <0> d          -1.361  -1.608  -1.241  0.00  0.00     0.027 A 
ATOM      3  C7  <0> d          -0.715  -1.254  -2.386  0.00  0.00     0.122 A 
ATOM      4  N1  <0> d          -0.984  -2.179  -3.325  0.00  0.00    -0.287 N 
ATOM      5  H2  <0> d          -0.655  -2.178  -4.238  0.00  0.00     0.188 HD
ATOM      6  N2  <0> d          -1.819  -3.141  -2.755  0.00  0.00    -0.154 NA
ATOM      7  C8  <0> d          -2.049  -2.804  -1.485  0.00  0.00     0.180 A 
ATOM      8  N3  <0> d          -2.817  -3.576  -0.683  0.00  0.00    -0.206 NA
ATOM      9  C9  <0> d          -3.207  -3.535   0.504  0.00  0.00     0.149 C 
ATOM     10  C10 <0> d          -2.992  -2.509   1.543  0.00  0.00     0.161 C 
ATOM     11  S2  <0> d          -1.346  -1.787   1.501  0.00  0.00    -0.146 SA
ENDROOT
BRANCH   1  12
ATOM     12  C4  <0> d           0.002  -0.004   0.002  0.00  0.00    -0.033 A 
ATOM     13  C1  <0> d          -0.017   1.378   0.010  0.00  0.00     0.016 A 
ATOM     14  C2  <0> d           1.160   2.051   0.002  0.00  0.00     0.050 A 
ATOM     15  S1  <0> d           2.348   0.719  -0.017  0.00  0.00    -0.113 SA
ATOM     16  C3  <0> d           1.196  -0.645  -0.013  0.00  0.00     0.058 A 
ENDBRANCH   1  12
BRANCH   9  17
ATOM     17  O1  <0> d          -3.940  -4.597   0.897  0.00  0.00    -0.347 OA
ATOM     18  H9  <0> d          -4.073  -5.261   0.207  0.00  0.00     0.219 HD
ENDBRANCH   9  17
TORSDOF 2
