REMARK  5 active torsions:
REMARK  status: ('A' for Active; 'I' for Inactive)
REMARK    1  A    between atoms: N1_10  and  C10_14 
REMARK    2  A    between atoms: C10_14  and  N4_32 
REMARK    3  A    between atoms: C12_16  and  C13_17 
REMARK    4  A    between atoms: C12_16  and  N4_32 
REMARK    5  A    between atoms: C16_20  and  N3_23 
ROOT
ATOM      1  C10 <0> d          -0.512  -2.210   2.939  0.00  0.00     0.371 C 
ENDROOT
BRANCH   1   2
ATOM      2  N1  <0> d          -0.567  -1.373   1.738  0.00  0.00    -0.242 N 
ATOM      3  C8  <0> d           0.423  -0.541   1.348  0.00  0.00     0.257 C 
ATOM      4  C6  <0> d           0.002  -0.004   0.002  0.00  0.00     0.117 C 
ATOM      5  O1  <0> d           1.424  -0.278   1.981  0.00  0.00    -0.270 OA
ATOM      6  C5  <0> d           0.831  -0.580  -1.128  0.00  0.00     0.050 C 
ATOM      7  N2  <0> d          -1.387  -0.496  -0.138  0.00  0.00    -0.324 N 
ATOM      8  C7  <0> d          -0.019   1.518   0.010  0.00  0.00     0.045 C 
ATOM      9  C4  <0> d           2.176   0.086  -1.359  0.00  0.00    -0.045 C 
ATOM     10  C3  <0> d           2.095   1.607  -1.290  0.00  0.00     0.013 C 
ATOM     11  C23 <0> d           3.218  -0.432  -0.364  0.00  0.00     0.015 C 
ATOM     12  C24 <0> d           2.661  -0.294  -2.776  0.00  0.00     0.015 C 
ATOM     13  C2  <0> d           1.412   2.059  -0.000  0.00  0.00    -0.015 C 
ATOM     14  C1  <0> d           1.373   3.590   0.043  0.00  0.00     0.010 C 
ATOM     15  C9  <0> d          -1.601  -1.335   0.891  0.00  0.00     0.327 C 
ATOM     16  H11 <0> d          -2.009  -0.253  -0.839  0.00  0.00     0.165 HD
ATOM     17  O2  <0> d          -2.618  -1.986   1.035  0.00  0.00    -0.247 OA
ENDBRANCH   1   2
BRANCH   1  18
ATOM     18  N4  <0> d           0.096  -3.509   2.581  0.00  0.00    -0.055 N 
ATOM     19  C11 <0> d          -0.926  -4.401   1.996  0.00  0.00     0.272 C 
ATOM     20  H37 <0> d           0.837  -3.351   1.889  0.00  0.00     0.281 HD
BRANCH  18  21
ATOM     21  C12 <0> d           0.687  -4.137   3.781  0.00  0.00     0.274 C 
BRANCH  21  22
ATOM     22  C13 <0> d           1.486  -5.342   3.356  0.00  0.00    -0.032 A 
ATOM     23  C18 <0> d           2.821  -5.202   3.024  0.00  0.00     0.010 A 
ATOM     24  C17 <0> d           3.557  -6.303   2.634  0.00  0.00     0.024 A 
ATOM     25  C16 <0> d           2.954  -7.553   2.574  0.00  0.00     0.010 A 
ATOM     26  C15 <0> d           1.612  -7.691   2.908  0.00  0.00     0.024 A 
ATOM     27  C14 <0> d           0.884  -6.586   3.303  0.00  0.00     0.010 A 
BRANCH  25  28
ATOM     28  N3  <0> d           3.695  -8.670   2.180  0.00  0.00    -0.279 NA
ATOM     29  C22 <0> d           2.864  -9.883   2.188  0.00  0.00     0.122 C 
ATOM     30  C21 <0> d           3.728 -11.089   1.809  0.00  0.00     0.182 C 
ATOM     31  O3  <0> d           4.332 -10.854   0.534  0.00  0.00    -0.389 OA
ATOM     32  C20 <0> d           5.148  -9.681   0.491  0.00  0.00     0.182 C 
ATOM     33  C19 <0> d           4.299  -8.461   0.857  0.00  0.00     0.122 C 
ENDBRANCH  25  28
ENDBRANCH  21  22
ENDBRANCH  18  21
ENDBRANCH   1  18
TORSDOF 5
