REMARK  7 active torsions:
REMARK  status: ('A' for Active; 'I' for Inactive)
REMARK    1  A    between atoms: C2_2  and  C4_4 
REMARK    2  A    between atoms: C4_4  and  C5_5 
REMARK    3  A    between atoms: C4_4  and  N1_10 
REMARK       I    between atoms: N1_10  and  C9_11 
REMARK       I    between atoms: C9_11  and  N2_13 
REMARK    4  A    between atoms: N2_13  and  C10_14 
REMARK    5  A    between atoms: C10_14  and  C11_15 
REMARK    6  A    between atoms: C11_15  and  C12_16 
REMARK    7  A    between atoms: C11_15  and  N3_21 
ROOT
ATOM      1  N1  <0> d           0.680  -1.959  -1.171  0.00  0.00    -0.334 N 
ATOM      2  C9  <0> d           1.576  -2.630  -0.419  0.00  0.00     0.316 C 
ATOM      3  O1  <0> d           2.278  -2.030   0.371  0.00  0.00    -0.247 OA
ATOM      4  N2  <0> d           1.693  -3.967  -0.544  0.00  0.00    -0.341 N 
ATOM      5  H13 <0> d           0.120  -2.438  -1.801  0.00  0.00     0.165 HD
ATOM      6  H14 <0> d           1.133  -4.446  -1.175  0.00  0.00     0.164 HD
ENDROOT
BRANCH   4   7
ATOM      7  C10 <0> d           2.666  -4.697   0.273  0.00  0.00     0.164 C 
BRANCH   7   8
ATOM      8  C11 <0> d           2.505  -6.200   0.037  0.00  0.00     0.262 C 
BRANCH   8   9
ATOM      9  C12 <0> d           1.159  -6.646   0.546  0.00  0.00     0.085 A 
ATOM     10  O2  <0> d           0.848  -6.899   1.828  0.00  0.00    -0.325 OA
ATOM     11  C15 <0> d          -0.440  -7.270   1.912  0.00  0.00     0.142 A 
ATOM     12  C14 <0> d          -0.965  -7.267   0.673  0.00  0.00     0.027 A 
ATOM     13  C13 <0> d           0.066  -6.865  -0.207  0.00  0.00     0.037 A 
ENDBRANCH   8   9
BRANCH   8  14
ATOM     14  N3  <0> d           3.564  -6.924   0.753  0.00  0.00    -0.059 N 
ATOM     15  C19 <0> d           4.889  -6.557   0.210  0.00  0.00     0.236 C 
ATOM     16  C18 <0> d           5.765  -7.823   0.260  0.00  0.00     0.029 C 
ATOM     17  C17 <0> d           4.846  -8.926   0.832  0.00  0.00     0.029 C 
ATOM     18  C16 <0> d           3.425  -8.386   0.529  0.00  0.00     0.236 C 
ATOM     19  H28 <0> d           3.522  -6.716   1.739  0.00  0.00     0.280 HD
ENDBRANCH   8  14
ENDBRANCH   7   8
ENDBRANCH   4   7
BRANCH   1  20
ATOM     20  C4  <0> d           0.553  -0.506  -1.035  0.00  0.00     0.129 C 
BRANCH  20  21
ATOM     21  C2  <0> d          -0.395  -0.183   0.121  0.00  0.00     0.005 C 
ATOM     22  C1  <0> d          -0.528   1.335   0.263  0.00  0.00     0.012 C 
ATOM     23  C3  <0> d          -1.770  -0.791  -0.162  0.00  0.00     0.012 C 
ENDBRANCH  20  21
BRANCH  20  24
ATOM     24  C5  <0> d           0.002   0.071  -2.313  0.00  0.00     0.005 A 
ATOM     25  S1  <0> d          -1.278  -0.574  -3.378  0.00  0.00    -0.104 SA
ATOM     26  C8  <0> d          -1.265   0.725  -4.603  0.00  0.00     0.050 A 
ATOM     27  C7  <0> d          -0.297   1.547  -4.129  0.00  0.00     0.008 A 
ATOM     28  C6  <0> d           0.352   1.212  -2.956  0.00  0.00     0.017 A 
ENDBRANCH  20  24
ENDBRANCH   1  20
TORSDOF 7
