REMARK  5 active torsions:
REMARK  status: ('A' for Active; 'I' for Inactive)
REMARK    1  A    between atoms: C4_4  and  S1_7 
REMARK    2  A    between atoms: S1_7  and  C7_10 
REMARK    3  A    between atoms: C7_10  and  C8_11 
REMARK    4  A    between atoms: C8_11  and  N1_12 
REMARK       I    between atoms: N1_12  and  C9_13 
REMARK    5  A    between atoms: C9_13  and  C10_15 
ROOT
ATOM      1  N1  <0> d           6.035  -2.004   3.223  0.00  0.00    -0.355 N 
ATOM      2  C9  <0> d           7.174  -2.641   3.559  0.00  0.00     0.272 C 
ATOM      3  O3  <0> d           7.917  -3.057   2.691  0.00  0.00    -0.266 OA
ATOM      4  H11 <0> d           5.442  -1.672   3.915  0.00  0.00     0.162 HD
ENDROOT
BRANCH   1   5
ATOM      5  C8  <0> d           5.691  -1.813   1.812  0.00  0.00     0.138 C 
BRANCH   5   6
ATOM      6  C7  <0> d           4.359  -1.068   1.707  0.00  0.00     0.165 C 
BRANCH   6   7
ATOM      7  S1  <0> d           3.934  -0.832  -0.041  0.00  0.00     0.177 S 
ATOM      8  O1  <0> d           3.641  -2.083  -0.647  0.00  0.00    -0.223 OA
ATOM      9  O2  <0> d           4.846   0.072  -0.648  0.00  0.00    -0.223 OA
BRANCH   7  10
ATOM     10  C4  <0> d           2.396   0.029  -0.020  0.00  0.00     0.059 A 
ATOM     11  C3  <0> d           2.377   1.411  -0.013  0.00  0.00     0.023 A 
ATOM     12  C2  <0> d           1.171   2.086   0.002  0.00  0.00     0.002 A 
ATOM     13  C1  <0> d          -0.017   1.378   0.010  0.00  0.00     0.000 A 
ATOM     14  C6  <0> d           0.002  -0.004   0.002  0.00  0.00     0.002 A 
ATOM     15  C5  <0> d           1.208  -0.679  -0.012  0.00  0.00     0.023 A 
ENDBRANCH   7  10
ENDBRANCH   6   7
ENDBRANCH   5   6
ENDBRANCH   1   5
BRANCH   2  16
ATOM     16  C10 <0> d           7.519  -2.833   4.979  0.00  0.00     0.157 A 
ATOM     17  N3  <0> d           6.819  -2.440   6.021  0.00  0.00    -0.168 NA
ATOM     18  N2  <0> d           7.384  -2.760   7.128  0.00  0.00    -0.277 N 
ATOM     19  C16 <0> d           8.569  -3.414   6.910  0.00  0.00     0.062 A 
ATOM     20  H1  <0> d           7.023  -2.560   8.006  0.00  0.00     0.189 HD
ATOM     21  C11 <0> d           8.717  -3.495   5.512  0.00  0.00     0.028 A 
ATOM     22  C15 <0> d           9.552  -3.959   7.730  0.00  0.00     0.032 A 
ATOM     23  C12 <0> d           9.837  -4.114   4.964  0.00  0.00     0.016 A 
ATOM     24  C13 <0> d          10.788  -4.641   5.793  0.00  0.00     0.001 A 
ATOM     25  C14 <0> d          10.644  -4.563   7.172  0.00  0.00     0.002 A 
ENDBRANCH   2  16
TORSDOF 5
