REMARK  6 active torsions:
REMARK  status: ('A' for Active; 'I' for Inactive)
REMARK    1  A    between atoms: C2_2  and  N1_3 
REMARK    2  A    between atoms: N1_3  and  C3_4 
REMARK    3  A    between atoms: N1_3  and  C5_6 
REMARK    4  A    between atoms: C8_9  and  C11_12 
REMARK    5  A    between atoms: C12_13  and  N4_22 
REMARK    6  A    between atoms: C14_17  and  O2_21 
ROOT
ATOM      1  C11 <0> d          -2.481   1.136   0.045  0.00  0.00     0.099 C 
ATOM      2  C12 <0> d          -3.381   1.432  -1.156  0.00  0.00     0.194 C 
ATOM      3  C13 <0> d          -4.056   2.764  -0.962  0.00  0.00     0.247 C 
ATOM      4  O1  <0> d          -4.281   3.470  -1.922  0.00  0.00    -0.271 OA
ATOM      5  N2  <0> d          -4.412   3.175   0.269  0.00  0.00    -0.305 N 
ATOM      6  C14 <0> d          -4.162   2.391   1.373  0.00  0.00     0.160 C 
ATOM      7  C15 <0> d          -3.242   1.396   1.319  0.00  0.00     0.084 C 
ATOM      8  C16 <0> d          -2.995   0.590   2.476  0.00  0.00     0.100 C 
ATOM      9  N3  <0> d          -2.798  -0.050   3.394  0.00  0.00    -0.191 NA
ATOM     10  H17 <0> d          -4.849   4.034   0.380  0.00  0.00     0.171 HD
ENDROOT
BRANCH   1  11
ATOM     11  C8  <0> d          -1.267   2.028  -0.006  0.00  0.00    -0.046 A 
ATOM     12  C7  <0> d          -0.029   1.491  -0.307  0.00  0.00     0.010 A 
ATOM     13  C6  <0> d           1.085   2.306  -0.361  0.00  0.00     0.030 A 
ATOM     14  C5  <0> d           0.961   3.666  -0.105  0.00  0.00     0.030 A 
ATOM     15  C10 <0> d          -0.283   4.201   0.203  0.00  0.00     0.030 A 
ATOM     16  C9  <0> d          -1.393   3.380   0.255  0.00  0.00     0.010 A 
BRANCH  14  17
ATOM     17  N1  <0> d           2.085   4.494  -0.158  0.00  0.00    -0.382 N 
BRANCH  17  18
ATOM     18  C2  <0> d           1.952   5.927   0.112  0.00  0.00     0.118 C 
ATOM     19  C1  <0> d           2.149   6.185   1.607  0.00  0.00     0.026 C 
ENDBRANCH  17  18
BRANCH  17  20
ATOM     20  C3  <0> d           3.397   3.928  -0.483  0.00  0.00     0.118 C 
ATOM     21  C4  <0> d           3.610   3.971  -1.997  0.00  0.00     0.026 C 
ENDBRANCH  17  20
ENDBRANCH  14  17
ENDBRANCH   1  11
BRANCH   6  22
ATOM     22  O2  <0> d          -4.839   2.615   2.520  0.00  0.00    -0.345 OA
ATOM     23  H18 <0> d          -5.473   3.344   2.466  0.00  0.00     0.219 HD
ENDBRANCH   6  22
BRANCH   2  24
ATOM     24  N4  <0> d          -2.571   1.467  -2.376  0.00  0.00    -0.352 N 
ATOM     25  C21 <0> d          -2.576   0.422  -3.180  0.00  0.00     0.091 A 
ATOM     26  C20 <0> d          -1.824   0.419  -4.340  0.00  0.00     0.017 A 
ATOM     27  C19 <0> d          -1.061   1.534  -4.654  0.00  0.00     0.003 A 
ATOM     28  C18 <0> d          -1.083   2.614  -3.784  0.00  0.00     0.017 A 
ATOM     29  C17 <0> d          -1.862   2.546  -2.645  0.00  0.00     0.091 A 
ENDBRANCH   2  24
TORSDOF 6
