REMARK  2 active torsions:
REMARK  status: ('A' for Active; 'I' for Inactive)
REMARK    1  A    between atoms: N1_10  and  C11_14 
REMARK    2  A    between atoms: C11_14  and  C12_15 
ROOT
ATOM      1  C1  <0> d          -0.019   1.526   0.010  0.00  0.00     0.000 C 
ATOM      2  C2  <0> d           1.417   2.056  -0.000  0.00  0.00     0.001 C 
ATOM      3  C3  <0> d           2.156   1.550   1.240  0.00  0.00     0.010 C 
ATOM      4  C4  <0> d           2.174   0.021   1.236  0.00  0.00    -0.024 C 
ATOM      5  C5  <0> d           0.741  -0.511   1.242  0.00  0.00     0.010 C 
ATOM      6  C6  <0> d           0.002  -0.004   0.002  0.00  0.00     0.001 C 
ATOM      7  C7  <0> d           2.902  -0.479  -0.015  0.00  0.00     0.113 C 
ATOM      8  C8  <0> d           4.344  -0.048   0.046  0.00  0.00     0.227 C 
ATOM      9  O1  <0> d           4.951   0.145  -0.986  0.00  0.00    -0.273 OA
ATOM     10  N1  <0> d           4.969   0.129   1.220  0.00  0.00    -0.282 N 
ATOM     11  C9  <0> d           4.357  -0.054   2.400  0.00  0.00     0.227 C 
ATOM     12  O2  <0> d           4.976   0.132   3.425  0.00  0.00    -0.273 OA
ATOM     13  C10 <0> d           2.917  -0.487   2.475  0.00  0.00     0.113 C 
ENDROOT
BRANCH  10  14
ATOM     14  C11 <0> d           6.376   0.537   1.213  0.00  0.00     0.204 C 
BRANCH  14  15
ATOM     15  C12 <0> d           6.462   2.042   1.217  0.00  0.00     0.089 C 
ATOM     16  S1  <0> d           5.125   2.919   1.227  0.00  0.00    -0.064 SA
ATOM     17  N2  <0> d           7.666   2.648   1.212  0.00  0.00    -0.392 N 
ATOM     18  H17 <0> d           8.477   2.115   1.205  0.00  0.00     0.156 HD
ATOM     19  H18 <0> d           7.721   3.616   1.214  0.00  0.00     0.156 HD
ENDBRANCH  14  15
ENDBRANCH  10  14
TORSDOF 2
