REMARK  6 active torsions:
REMARK  status: ('A' for Active; 'I' for Inactive)
REMARK    1  A    between atoms: C5_5  and  N1_10 
REMARK    2  A    between atoms: C6_6  and  O1_8 
REMARK       I    between atoms: N1_10  and  C9_11 
REMARK       I    between atoms: C9_11  and  N2_13 
REMARK    3  A    between atoms: N2_13  and  C10_14 
REMARK    4  A    between atoms: C10_14  and  C12_16 
REMARK    5  A    between atoms: C15_19  and  S1_22 
REMARK    6  A    between atoms: S1_22  and  N3_25 
ROOT
ATOM      1  N1  <0> d           0.058  -4.175  -0.031  0.00  0.00    -0.306 N 
ATOM      2  C9  <0> d          -0.041  -4.841  -1.198  0.00  0.00     0.321 C 
ATOM      3  O2  <0> d          -0.054  -4.228  -2.248  0.00  0.00    -0.247 OA
ATOM      4  N2  <0> d          -0.124  -6.186  -1.202  0.00  0.00    -0.335 N 
ATOM      5  H11 <0> d           0.151  -4.666   0.801  0.00  0.00     0.171 HD
ATOM      6  H12 <0> d          -0.114  -6.675  -0.364  0.00  0.00     0.165 HD
ENDROOT
BRANCH   4   7
ATOM      7  C10 <0> d          -0.232  -6.910  -2.471  0.00  0.00     0.115 C 
ATOM      8  C11 <0> d           1.167  -7.142  -3.046  0.00  0.00     0.037 C 
BRANCH   7   9
ATOM      9  C12 <0> d          -0.905  -8.238  -2.237  0.00  0.00    -0.036 A 
ATOM     10  C17 <0> d          -1.826  -8.716  -3.150  0.00  0.00     0.011 A 
ATOM     11  C16 <0> d          -2.440  -9.936  -2.938  0.00  0.00     0.026 A 
ATOM     12  C15 <0> d          -2.140 -10.673  -1.807  0.00  0.00     0.079 A 
ATOM     13  C14 <0> d          -1.223 -10.192  -0.891  0.00  0.00     0.026 A 
ATOM     14  C13 <0> d          -0.606  -8.974  -1.106  0.00  0.00     0.011 A 
BRANCH  12  15
ATOM     15  S1  <0> d          -2.927 -12.226  -1.534  0.00  0.00     0.258 S 
ATOM     16  O3  <0> d          -3.335 -12.704  -2.808  0.00  0.00    -0.201 OA
ATOM     17  O4  <0> d          -2.069 -12.971  -0.680  0.00  0.00    -0.201 OA
BRANCH  15  18
ATOM     18  N3  <0> d          -4.310 -11.930  -0.674  0.00  0.00    -0.320 N 
ATOM     19  C18 <0> d          -5.395 -11.151  -1.277  0.00  0.00     0.159 C 
ATOM     20  H20 <0> d          -4.403 -12.272   0.229  0.00  0.00     0.171 HD
ENDBRANCH  15  18
ENDBRANCH  12  15
ENDBRANCH   7   9
ENDBRANCH   4   7
BRANCH   1  21
ATOM     21  C5  <0> d           0.026  -2.774  -0.018  0.00  0.00     0.069 A 
ATOM     22  C4  <0> d          -0.597  -2.083  -1.047  0.00  0.00     0.033 A 
ATOM     23  C3  <0> d          -0.627  -0.702  -1.032  0.00  0.00     0.009 A 
ATOM     24  C2  <0> d          -0.038  -0.005   0.006  0.00  0.00    -0.059 A 
ATOM     25  C1  <0> d          -0.075   1.502   0.017  0.00  0.00     0.048 C 
ATOM     26  C7  <0> d           0.589  -0.686   1.033  0.00  0.00     0.046 A 
ATOM     27  C6  <0> d           0.619  -2.071   1.028  0.00  0.00     0.095 A 
BRANCH  27  28
ATOM     28  O1  <0> d           1.231  -2.743   2.040  0.00  0.00    -0.354 OA
ATOM     29  C8  <0> d           1.817  -1.957   3.079  0.00  0.00     0.210 C 
ENDBRANCH  27  28
ENDBRANCH   1  21
TORSDOF 6
