REMARK  3 active torsions:
REMARK  status: ('A' for Active; 'I' for Inactive)
REMARK    1  A    between atoms: C3_3  and  S1_8 
REMARK    2  A    between atoms: S1_8  and  N3_11 
REMARK    3  A    between atoms: C7_14  and  C10_17 
ROOT
ATOM      1  N3  <0> d          -1.454   0.520  -3.020  0.00  0.00    -0.307 N 
ATOM      2  C5  <0> d          -2.630  -0.230  -3.481  0.00  0.00     0.136 C 
ATOM      3  C6  <0> d          -3.188   0.450  -4.735  0.00  0.00     0.027 C 
ATOM      4  C7  <0> d          -3.463   1.925  -4.431  0.00  0.00     0.019 C 
ATOM      5  C8  <0> d          -2.156   2.620  -4.045  0.00  0.00     0.027 C 
ATOM      6  C9  <0> d          -1.587   1.963  -2.778  0.00  0.00     0.136 C 
ENDROOT
BRANCH   1   7
ATOM      7  S1  <0> d          -0.008  -0.247  -2.770  0.00  0.00     0.264 S 
ATOM      8  O1  <0> d           1.003   0.745  -2.881  0.00  0.00    -0.200 OA
ATOM      9  O2  <0> d          -0.023  -1.415  -3.579  0.00  0.00    -0.200 OA
BRANCH   7  10
ATOM     10  C3  <0> d           0.008  -0.796  -1.095  0.00  0.00     0.122 A 
ATOM     11  C2  <0> d           0.002  -0.004   0.002  0.00  0.00     0.048 A 
ATOM     12  C1  <0> d          -0.018   1.503   0.010  0.00  0.00     0.071 C 
ATOM     13  N2  <0> d           0.024  -0.805   1.088  0.00  0.00    -0.281 N 
ATOM     14  N1  <0> d           0.035  -2.134   0.643  0.00  0.00    -0.185 NA
ATOM     15  H1  <0> d           0.029  -0.513   2.013  0.00  0.00     0.189 HD
ATOM     16  C4  <0> d           0.028  -2.127  -0.666  0.00  0.00     0.165 A 
ENDBRANCH   7  10
ENDBRANCH   1   7
BRANCH   4  17
ATOM     17  C10 <0> d          -4.053   2.599  -5.671  0.00  0.00     0.190 C 
ATOM     18  N4  <0> d          -4.362   4.017  -5.387  0.00  0.00    -0.070 N 
ATOM     19  C13 <0> d          -5.609   4.374  -6.091  0.00  0.00     0.233 C 
ATOM     20  H22 <0> d          -4.484   4.146  -4.394  0.00  0.00     0.277 HD
ATOM     21  H23 <0> d          -3.607   4.601  -5.714  0.00  0.00     0.277 HD
ATOM     22  C12 <0> d          -6.100   3.108  -6.824  0.00  0.00     0.029 C 
ATOM     23  C11 <0> d          -5.417   1.960  -6.035  0.00  0.00     0.035 C 
ENDBRANCH   4  17
TORSDOF 3
