REMARK  6 active torsions:
REMARK  status: ('A' for Active; 'I' for Inactive)
REMARK    1  A    between atoms: C4_4  and  N1_7 
REMARK    2  A    between atoms: C8_9  and  C10_12 
REMARK    3  A    between atoms: C10_12  and  N3_13 
REMARK    4  A    between atoms: N3_13  and  C11_14 
REMARK    5  A    between atoms: C11_14  and  C12_15 
REMARK    6  A    between atoms: C14_20  and  C15_21 
ROOT
ATOM      1  C11 <0> d           6.580  -5.371  -1.491  0.00  0.00     0.275 C 
ENDROOT
BRANCH   1   2
ATOM      2  N3  <0> d           5.954  -4.042  -1.474  0.00  0.00    -0.067 N 
ATOM      3  H11 <0> d           5.062  -4.084  -1.942  0.00  0.00     0.277 HD
ATOM      4  H20 <0> d           6.552  -3.382  -1.948  0.00  0.00     0.277 HD
BRANCH   2   5
ATOM      5  C10 <0> d           5.757  -3.612  -0.083  0.00  0.00     0.274 C 
BRANCH   5   6
ATOM      6  C8  <0> d           5.115  -2.248  -0.065  0.00  0.00     0.004 A 
ATOM      7  C7  <0> d           3.786  -1.994  -0.052  0.00  0.00     0.129 A 
ATOM      8  N1  <0> d           3.624  -0.652  -0.037  0.00  0.00    -0.245 N 
ATOM      9  N2  <0> d           4.895  -0.065  -0.048  0.00  0.00    -0.180 NA
ATOM     10  C9  <0> d           5.788  -1.022  -0.059  0.00  0.00     0.149 A 
BRANCH   8  11
ATOM     11  C4  <0> d           2.399   0.031  -0.021  0.00  0.00     0.058 A 
ATOM     12  C3  <0> d           2.377   1.419  -0.013  0.00  0.00     0.031 A 
ATOM     13  C2  <0> d           1.170   2.089   0.002  0.00  0.00     0.002 A 
ATOM     14  C1  <0> d          -0.017   1.379   0.010  0.00  0.00     0.000 A 
ATOM     15  C6  <0> d           0.002  -0.004   0.002  0.00  0.00     0.002 A 
ATOM     16  C5  <0> d           1.207  -0.680  -0.013  0.00  0.00     0.031 A 
ENDBRANCH   8  11
ENDBRANCH   5   6
ENDBRANCH   2   5
ENDBRANCH   1   2
BRANCH   1  17
ATOM     17  C12 <0> d           6.782  -5.812  -2.918  0.00  0.00     0.018 A 
ATOM     18  C14 <0> d           7.829  -5.407  -3.772  0.00  0.00     0.120 A 
ATOM     19  N5  <0> d           7.661  -6.011  -4.932  0.00  0.00    -0.172 NA
ATOM     20  N4  <0> d           6.507  -6.800  -4.848  0.00  0.00    -0.288 N 
ATOM     21  C13 <0> d           5.990  -6.660  -3.608  0.00  0.00     0.120 A 
ATOM     22  H1  <0> d           6.142  -7.352  -5.557  0.00  0.00     0.188 HD
BRANCH  18  23
ATOM     23  C15 <0> d           8.923  -4.475  -3.426  0.00  0.00     0.108 A 
ATOM     24  O1  <0> d           8.802  -3.405  -2.616  0.00  0.00    -0.307 OA
ATOM     25  C22 <0> d           9.979  -2.757  -2.496  0.00  0.00     0.086 A 
ATOM     26  C17 <0> d          10.921  -3.441  -3.285  0.00  0.00     0.001 A 
ATOM     27  C21 <0> d          10.377  -1.627  -1.793  0.00  0.00     0.038 A 
ATOM     28  C16 <0> d          10.195  -4.565  -3.882  0.00  0.00     0.054 A 
ATOM     29  C18 <0> d          12.238  -2.985  -3.356  0.00  0.00     0.014 A 
ATOM     30  C19 <0> d          12.608  -1.871  -2.655  0.00  0.00     0.001 A 
ATOM     31  C20 <0> d          11.682  -1.192  -1.875  0.00  0.00     0.003 A 
ENDBRANCH  18  23
ENDBRANCH   1  17
TORSDOF 6
