REMARK  5 active torsions:
REMARK  status: ('A' for Active; 'I' for Inactive)
REMARK    1  A    between atoms: C4_4  and  C7_7 
REMARK    2  A    between atoms: C7_7  and  C8_8 
REMARK    3  A    between atoms: C8_8  and  C21_27 
REMARK    4  A    between atoms: N1_11  and  C11_15 
REMARK    5  A    between atoms: C11_15  and  C12_16 
ROOT
ATOM      1  C8  <0> d           4.171  -0.963   1.399  0.00  0.00     0.147 A 
ATOM      2  C9  <0> d           4.229   0.335   2.180  0.00  0.00     0.261 A 
ATOM      3  O1  <0> d           4.923   1.301   1.944  0.00  0.00    -0.270 OA
ATOM      4  N1  <0> d           3.349   0.192   3.191  0.00  0.00    -0.263 N 
ATOM      5  C10 <0> d           2.750  -1.004   3.157  0.00  0.00     0.326 A 
ATOM      6  O2  <0> d           1.917  -1.365   3.966  0.00  0.00    -0.247 OA
ATOM      7  N2  <0> d           3.172  -1.762   2.129  0.00  0.00    -0.320 N 
ATOM      8  H8  <0> d           2.875  -2.659   1.910  0.00  0.00     0.166 HD
ENDROOT
BRANCH   1   9
ATOM      9  C7  <0> d           3.711  -0.707  -0.038  0.00  0.00     0.085 C 
BRANCH   9  10
ATOM     10  C4  <0> d           2.396   0.029  -0.020  0.00  0.00    -0.055 A 
ATOM     11  C3  <0> d           2.377   1.411  -0.013  0.00  0.00     0.007 A 
ATOM     12  C2  <0> d           1.171   2.086   0.002  0.00  0.00     0.001 A 
ATOM     13  C1  <0> d          -0.017   1.378   0.010  0.00  0.00     0.000 A 
ATOM     14  C6  <0> d           0.002  -0.004   0.002  0.00  0.00     0.001 A 
ATOM     15  C5  <0> d           1.208  -0.679  -0.012  0.00  0.00     0.007 A 
ENDBRANCH   9  10
ENDBRANCH   1   9
BRANCH   1  16
ATOM     16  C21 <0> d           5.511  -1.653   1.410  0.00  0.00    -0.020 A 
ATOM     17  C26 <0> d           5.840  -2.509   2.444  0.00  0.00     0.010 A 
ATOM     18  C25 <0> d           7.067  -3.145   2.452  0.00  0.00     0.001 A 
ATOM     19  C24 <0> d           7.970  -2.917   1.430  0.00  0.00     0.000 A 
ATOM     20  C23 <0> d           7.643  -2.057   0.398  0.00  0.00     0.001 A 
ATOM     21  C22 <0> d           6.414  -1.425   0.388  0.00  0.00     0.010 A 
ENDBRANCH   1  16
BRANCH   4  22
ATOM     22  C11 <0> d           3.083   1.218   4.201  0.00  0.00     0.178 C 
BRANCH  22  23
ATOM     23  C12 <0> d           1.964   2.109   3.729  0.00  0.00    -0.007 A 
ATOM     24  C17 <0> d           0.628   1.690   3.855  0.00  0.00     0.074 A 
ATOM     25  C16 <0> d          -0.409   2.548   3.410  0.00  0.00    -0.004 A 
ATOM     26  N3  <0> d           0.325   0.504   4.391  0.00  0.00    -0.260 NA
ATOM     27  C15 <0> d          -0.086   3.791   2.843  0.00  0.00     0.056 A 
ATOM     28  C20 <0> d          -1.746   2.128   3.543  0.00  0.00     0.015 A 
ATOM     29  C14 <0> d           1.222   4.161   2.732  0.00  0.00     0.117 A 
ATOM     30  C13 <0> d           2.243   3.320   3.175  0.00  0.00     0.053 A 
ATOM     31  F1  <0> d           1.532   5.358   2.186  0.00  0.00    -0.206 F 
ATOM     32  C19 <0> d          -1.985   0.899   4.088  0.00  0.00     0.020 A 
ATOM     33  C18 <0> d          -0.919   0.107   4.511  0.00  0.00     0.117 A 
ENDBRANCH  22  23
ENDBRANCH   4  22
TORSDOF 5
