REMARK  5 active torsions:
REMARK  status: ('A' for Active; 'I' for Inactive)
REMARK    1  A    between atoms: C2_2  and  N1_4 
REMARK    2  A    between atoms: C4_5  and  C6_10 
REMARK    3  A    between atoms: C6_10  and  C7_11 
REMARK    4  A    between atoms: C7_11  and  N4_12 
REMARK       I    between atoms: N4_12  and  C8_13 
REMARK    5  A    between atoms: C8_13  and  C9_15 
ROOT
ATOM      1  N4  <0> d          -1.552  -3.175  -4.200  0.00  0.00    -0.356 N 
ATOM      2  C8  <0> d          -2.226  -3.943  -5.080  0.00  0.00     0.252 C 
ATOM      3  O1  <0> d          -3.388  -4.230  -4.870  0.00  0.00    -0.268 OA
ATOM      4  H13 <0> d          -0.625  -2.946  -4.367  0.00  0.00     0.162 HD
ENDROOT
BRANCH   1   5
ATOM      5  C7  <0> d          -2.221  -2.687  -2.992  0.00  0.00     0.130 C 
BRANCH   5   6
ATOM      6  C6  <0> d          -1.241  -1.846  -2.171  0.00  0.00     0.100 C 
BRANCH   6   7
ATOM      7  C4  <0> d          -1.929  -1.343  -0.928  0.00  0.00     0.130 A 
ATOM      8  N1  <0> d          -1.355  -0.557   0.040  0.00  0.00    -0.305 N 
ATOM      9  C5  <0> d          -2.278  -0.318   0.994  0.00  0.00     0.196 A 
ATOM     10  N3  <0> d          -3.416  -0.940   0.620  0.00  0.00    -0.251 N 
ATOM     11  S1  <0> d          -2.049   0.607   2.417  0.00  0.00    -0.039 SA
ATOM     12  N2  <0> d          -3.158  -1.581  -0.599  0.00  0.00    -0.159 NA
ATOM     13  H8  <0> d          -4.255  -0.945   1.107  0.00  0.00     0.191 HD
BRANCH   8  14
ATOM     14  C2  <0> d           0.025  -0.068   0.041  0.00  0.00     0.085 C 
ATOM     15  C1  <0> d           0.024   1.462   0.059  0.00  0.00     0.032 C 
ATOM     16  C3  <0> d           0.752  -0.592   1.280  0.00  0.00     0.032 C 
ENDBRANCH   8  14
ENDBRANCH   6   7
ENDBRANCH   5   6
ENDBRANCH   1   5
BRANCH   2  17
ATOM     17  C9  <0> d          -1.551  -4.436  -6.300  0.00  0.00     0.045 A 
ATOM     18  C13 <0> d          -2.193  -5.348  -7.175  0.00  0.00     0.008 A 
ATOM     19  C12 <0> d          -1.504  -5.787  -8.333  0.00  0.00     0.067 A 
ATOM     20  C14 <0> d          -3.489  -5.816  -6.918  0.00  0.00     0.015 A 
ATOM     21  N5  <0> d          -0.267  -5.349  -8.581  0.00  0.00    -0.260 NA
ATOM     22  C17 <0> d          -2.142  -6.688  -9.206  0.00  0.00     0.032 A 
ATOM     23  C11 <0> d           0.342  -4.510  -7.780  0.00  0.00     0.118 A 
ATOM     24  C10 <0> d          -0.264  -4.025  -6.624  0.00  0.00     0.037 A 
ATOM     25  C16 <0> d          -3.397  -7.130  -8.921  0.00  0.00     0.002 A 
ATOM     26  C15 <0> d          -4.072  -6.692  -7.783  0.00  0.00     0.001 A 
ENDBRANCH   2  17
TORSDOF 5
