REMARK  7 active torsions:
REMARK  status: ('A' for Active; 'I' for Inactive)
REMARK    1  A    between atoms: C4_5  and  C5_6 
REMARK    2  A    between atoms: C5_6  and  C6_7 
REMARK    3  A    between atoms: C5_6  and  N2_9 
REMARK    4  A    between atoms: C6_7  and  N1_8 
REMARK    5  A    between atoms: N2_9  and  C7_10 
REMARK    6  A    between atoms: N2_9  and  C12_16 
REMARK    7  A    between atoms: C7_10  and  C8_11 
ROOT
ATOM      1  C5  <0> d          -0.701  -0.719   0.508  0.00  0.00     0.305 C 
ENDROOT
BRANCH   1   2
ATOM      2  C4  <0> d          -2.047  -0.238   0.986  0.00  0.00     0.089 A 
ATOM      3  C1  <0> d          -3.011   0.294   0.215  0.00  0.00     0.038 A 
ATOM      4  C2  <0> d          -4.096   0.602   1.069  0.00  0.00     0.048 A 
ATOM      5  C3  <0> d          -3.729   0.238   2.312  0.00  0.00     0.121 A 
ATOM      6  O1  <0> d          -2.487  -0.271   2.255  0.00  0.00    -0.305 OA
ATOM      7 Br1  <0> d          -4.782   0.413   3.873  0.00  0.00    -0.023 Br
ENDBRANCH   1   2
BRANCH   1   8
ATOM      8  C6  <0> d           0.359   0.340   0.819  0.00  0.00     0.272 C 
BRANCH   8   9
ATOM      9  N1  <0> d           1.680  -0.154   0.408  0.00  0.00    -0.077 N 
ATOM     10  H6  <0> d           1.913  -0.977   0.944  0.00  0.00     0.274 HD
ATOM     11  H7  <0> d           1.662  -0.385  -0.574  0.00  0.00     0.274 HD
ATOM     12  H18 <0> d           2.372   0.562   0.573  0.00  0.00     0.274 HD
ENDBRANCH   8   9
ENDBRANCH   1   8
BRANCH   1  13
ATOM     13  N2  <0> d          -0.357  -1.972   1.192  0.00  0.00     0.110 N 
BRANCH  13  14
ATOM     14  C7  <0> d          -1.379  -3.000   0.954  0.00  0.00     0.313 C 
BRANCH  14  15
ATOM     15  C8  <0> d          -1.228  -3.545  -0.443  0.00  0.00    -0.023 A 
ATOM     16  C11 <0> d          -0.350  -4.546  -0.699  0.00  0.00     0.058 A 
ATOM     17  S1  <0> d          -0.575  -4.795  -2.452  0.00  0.00    -0.113 SA
ATOM     18  C10 <0> d          -1.817  -3.542  -2.727  0.00  0.00     0.050 A 
ATOM     19  C9  <0> d          -1.978  -3.029  -1.483  0.00  0.00     0.016 A 
ENDBRANCH  14  15
ENDBRANCH  13  14
BRANCH  13  20
ATOM     20  C12 <0> d          -0.159  -1.750   2.630  0.00  0.00     0.224 A 
ATOM     21  C14 <0> d           0.067  -2.980   3.511  0.00  0.00     0.038 A 
ATOM     22  C13 <0> d           1.230  -2.035   3.205  0.00  0.00     0.038 A 
ENDBRANCH  13  20
ENDBRANCH   1  13
TORSDOF 7
