REMARK  4 active torsions:
REMARK  status: ('A' for Active; 'I' for Inactive)
REMARK    1  A    between atoms: C3_3  and  C7_10 
REMARK    2  A    between atoms: C5_5  and  N1_7 
REMARK    3  A    between atoms: C7_10  and  C8_12 
REMARK    4  A    between atoms: C8_12  and  N2_13 
ROOT
ATOM      1  C7  <0> d           1.954   5.736  -1.250  0.00  0.00     0.185 C 
ATOM      2  O3  <0> d           2.197   6.596  -2.069  0.00  0.00    -0.290 OA
ENDROOT
BRANCH   1   3
ATOM      3  C3  <0> d           2.372   4.346  -1.497  0.00  0.00     0.014 A 
ATOM      4  C2  <0> d           2.093   3.351  -0.555  0.00  0.00     0.015 A 
ATOM      5  C1  <0> d           2.489   2.051  -0.794  0.00  0.00     0.003 A 
ATOM      6  C6  <0> d           3.159   1.731  -1.962  0.00  0.00     0.036 A 
ATOM      7  C5  <0> d           3.442   2.712  -2.897  0.00  0.00     0.103 A 
ATOM      8  C4  <0> d           3.049   4.015  -2.675  0.00  0.00     0.051 A 
BRANCH   7   9
ATOM      9  N1  <0> d           4.165   2.360  -4.140  0.00  0.00    -0.116 N 
ATOM     10  O1  <0> d           4.509   1.209  -4.339  0.00  0.00    -0.532 OA
ATOM     11  O2  <0> d           4.415   3.222  -4.963  0.00  0.00    -0.532 OA
ENDBRANCH   7   9
ENDBRANCH   1   3
BRANCH   1  12
ATOM     12  C8  <0> d           1.224   6.088   0.021  0.00  0.00     0.327 C 
BRANCH  12  13
ATOM     13  N2  <0> d           1.040   7.544   0.091  0.00  0.00     0.019 N 
ATOM     14  C11 <0> d           2.349   8.208   0.020  0.00  0.00     0.517 C 
ATOM     15  N4  <0> d           2.158   9.666   0.092  0.00  0.00     0.171 N 
ATOM     16  C10 <0> d           1.329  10.122  -1.039  0.00  0.00     0.551 C 
ATOM     17  C12 <0> d           1.508  10.027   1.365  0.00  0.00     0.551 C 
ATOM     18  N3  <0> d           0.022   9.445  -0.957  0.00  0.00     0.171 N 
ATOM     19  C9  <0> d           0.204   7.986  -1.034  0.00  0.00     0.517 C 
ATOM     20  C13 <0> d          -0.648   9.805   0.306  0.00  0.00     0.551 C 
ATOM     21  N5  <0> d           0.199   9.351   1.424  0.00  0.00     0.171 N 
ATOM     22  C14 <0> d           0.381   7.893   1.358  0.00  0.00     0.517 C 
ENDBRANCH  12  13
ENDBRANCH   1  12
TORSDOF 4
