REMARK  8 active torsions:
REMARK  status: ('A' for Active; 'I' for Inactive)
REMARK    1  A    between atoms: C2_2  and  C3_3 
REMARK    2  A    between atoms: C3_3  and  C4_4 
REMARK    3  A    between atoms: C4_4  and  C5_5 
REMARK    4  A    between atoms: C5_5  and  C6_6 
REMARK    5  A    between atoms: C5_5  and  N3_22 
REMARK    6  A    between atoms: C7_9  and  C9_12 
REMARK    7  A    between atoms: C12_15  and  O1_18 
REMARK    8  A    between atoms: O1_18  and  C15_19 
ROOT
ATOM      1  C6  <0> d           1.417  -4.051   2.529  0.00  0.00     0.135 A 
ATOM      2  N1  <0> d           2.470  -4.894   2.618  0.00  0.00    -0.341 N 
ATOM      3  H2  <0> d           3.406  -4.645   2.657  0.00  0.00     0.167 HD
ATOM      4  C7  <0> d           1.962  -6.173   2.644  0.00  0.00     0.061 A 
ATOM      5  C8  <0> d           0.609  -6.053   2.568  0.00  0.00     0.149 A 
ATOM      6  N2  <0> d           0.315  -4.750   2.505  0.00  0.00    -0.243 NA
ENDROOT
BRANCH   4   7
ATOM      7  C9  <0> d           2.736  -7.431   2.736  0.00  0.00    -0.008 A 
ATOM      8  C14 <0> d           2.074  -8.659   2.751  0.00  0.00     0.016 A 
ATOM      9  C13 <0> d           2.799  -9.830   2.831  0.00  0.00     0.038 A 
ATOM     10  C12 <0> d           4.184  -9.786   2.908  0.00  0.00     0.074 A 
ATOM     11  C11 <0> d           4.846  -8.566   2.897  0.00  0.00     0.038 A 
ATOM     12  C10 <0> d           4.128  -7.391   2.812  0.00  0.00     0.016 A 
BRANCH  10  13
ATOM     13  O1  <0> d           4.895 -10.942   2.992  0.00  0.00    -0.290 OA
BRANCH  13  14
ATOM     14  C15 <0> d           4.151 -12.162   2.997  0.00  0.00     0.505 C 
ATOM     15  F1  <0> d           3.283 -12.174   4.094  0.00  0.00    -0.184 F 
ATOM     16  F2  <0> d           3.411 -12.262   1.815  0.00  0.00    -0.184 F 
ENDBRANCH  13  14
ENDBRANCH  10  13
ENDBRANCH   4   7
BRANCH   1  17
ATOM     17  C5  <0> d           1.503  -2.548   2.473  0.00  0.00     0.252 C 
BRANCH  17  18
ATOM     18  C4  <0> d           0.763  -2.041   1.233  0.00  0.00     0.041 C 
BRANCH  18  19
ATOM     19  C3  <0> d           0.742  -0.511   1.242  0.00  0.00     0.002 C 
BRANCH  19  20
ATOM     20  C2  <0> d           0.002  -0.004   0.002  0.00  0.00    -0.004 C 
ATOM     21  C1  <0> d          -0.019   1.526   0.010  0.00  0.00     0.005 C 
ENDBRANCH  19  20
ENDBRANCH  18  19
ENDBRANCH  17  18
BRANCH  17  22
ATOM     22  N3  <0> d           2.912  -2.139   2.403  0.00  0.00    -0.068 N 
ATOM     23  H18 <0> d           2.969  -1.133   2.365  0.00  0.00     0.275 HD
ATOM     24  H19 <0> d           3.400  -2.474   3.220  0.00  0.00     0.275 HD
ATOM     25  H20 <0> d           3.335  -2.531   1.575  0.00  0.00     0.275 HD
ENDBRANCH  17  22
ENDBRANCH   1  17
TORSDOF 8
