REMARK  7 active torsions:
REMARK  status: ('A' for Active; 'I' for Inactive)
REMARK    1  A    between atoms: C7_7  and  C11_14 
REMARK    2  A    between atoms: N1_9  and  C9_10 
REMARK    3  A    between atoms: C9_10  and  C10_11 
REMARK       I    between atoms: C10_11  and  N2_13 
REMARK    4  A    between atoms: N3_15  and  N4_16 
REMARK    5  A    between atoms: N4_16  and  S1_17 
REMARK    6  A    between atoms: S1_17  and  C12_20 
REMARK    7  A    between atoms: C16_24  and  N5_26 
ROOT
ATOM      1  C1  <0> d          -0.021   1.362  -0.055  0.00  0.00     0.001 A 
ATOM      2  C2  <0> d           1.165   2.083  -0.067  0.00  0.00     0.002 A 
ATOM      3  C3  <0> d           2.381   1.435  -0.069  0.00  0.00     0.030 A 
ATOM      4  C4  <0> d           2.423   0.044  -0.058  0.00  0.00     0.045 A 
ATOM      5  C5  <0> d           1.218  -0.680  -0.045  0.00  0.00     0.004 A 
ATOM      6  C6  <0> d          -0.001  -0.005  -0.044  0.00  0.00     0.014 A 
ATOM      7  C7  <0> d           1.599  -2.103  -0.036  0.00  0.00     0.011 A 
ATOM      8  C8  <0> d           2.958  -2.142  -0.043  0.00  0.00     0.105 A 
ATOM      9  N1  <0> d           3.454  -0.870  -0.056  0.00  0.00    -0.346 N 
ENDROOT
BRANCH   7  10
ATOM     10  C11 <0> d           0.685  -3.259  -0.022  0.00  0.00     0.155 C 
ATOM     11  N3  <0> d           1.159  -4.462  -0.131  0.00  0.00    -0.150 NA
BRANCH  11  12
ATOM     12  N4  <0> d           2.544  -4.671  -0.145  0.00  0.00    -0.055 NA
BRANCH  12  13
ATOM     13  S1  <0> d           3.150  -6.189  -0.408  0.00  0.00     0.300 S 
ATOM     14  O2  <0> d           2.766  -6.979   0.709  0.00  0.00    -0.197 OA
ATOM     15  O3  <0> d           2.807  -6.538  -1.742  0.00  0.00    -0.197 OA
BRANCH  13  16
ATOM     16  C12 <0> d           4.907  -6.066  -0.357  0.00  0.00     0.085 A 
ATOM     17  C17 <0> d           5.577  -6.229   0.841  0.00  0.00     0.061 A 
ATOM     18  C16 <0> d           6.955  -6.136   0.881  0.00  0.00     0.104 A 
ATOM     19  C15 <0> d           7.664  -5.871  -0.276  0.00  0.00     0.036 A 
ATOM     20  C14 <0> d           6.994  -5.702  -1.474  0.00  0.00     0.004 A 
ATOM     21  C13 <0> d           5.615  -5.800  -1.514  0.00  0.00     0.025 A 
BRANCH  18  22
ATOM     22  N5  <0> d           7.673  -6.316   2.163  0.00  0.00    -0.116 N 
ATOM     23  O4  <0> d           8.878  -6.232   2.198  0.00  0.00    -0.532 OA
ATOM     24  O5  <0> d           7.053  -6.548   3.175  0.00  0.00    -0.532 OA
ENDBRANCH  18  22
ENDBRANCH  13  16
ENDBRANCH  12  13
ENDBRANCH  11  12
ENDBRANCH   7  10
BRANCH   9  25
ATOM     25  C9  <0> d           4.878  -0.526  -0.067  0.00  0.00     0.231 C 
BRANCH  25  26
ATOM     26  C10 <0> d           5.345  -0.277   1.344  0.00  0.00     0.233 C 
ATOM     27  O1  <0> d           4.565  -0.376   2.268  0.00  0.00    -0.272 OA
ATOM     28  N2  <0> d           6.630   0.057   1.580  0.00  0.00    -0.369 N 
ATOM     29  H8  <0> d           7.253   0.136   0.841  0.00  0.00     0.159 HD
ATOM     30  H9  <0> d           6.930   0.217   2.488  0.00  0.00     0.159 HD
ENDBRANCH  25  26
ENDBRANCH   9  25
TORSDOF 7
