REMARK  10 active torsions:
REMARK  status: ('A' for Active; 'I' for Inactive)
REMARK    1  A    between atoms: C2_2  and  C3_3 
REMARK    2  A    between atoms: C2_2  and  O3_25 
REMARK    3  A    between atoms: C3_3  and  C4_4 
REMARK    4  A    between atoms: C3_3  and  N5_24 
REMARK    5  A    between atoms: C5_6  and  C6_7 
REMARK    6  A    between atoms: C6_7  and  C7_8 
REMARK    7  A    between atoms: C9_10  and  N3_17 
REMARK    8  A    between atoms: N4_20  and  C16_21 
REMARK    9  A    between atoms: C16_21  and  C17_22 
REMARK   10  A    between atoms: C17_22  and  O2_23 
ROOT
ATOM      1  C4  <0> d           0.486   0.124   1.392  0.00  0.00     0.145 A 
ATOM      2  N1  <0> d           1.164  -0.633   0.580  0.00  0.00    -0.227 NA
ATOM      3  C5  <0> d           0.987  -1.931   0.918  0.00  0.00     0.127 A 
ATOM      4  C15 <0> d           0.079  -1.922   2.089  0.00  0.00     0.278 A 
ATOM      5  O1  <0> d          -0.339  -2.882   2.709  0.00  0.00    -0.265 OA
ATOM      6  N4  <0> d          -0.180  -0.616   2.324  0.00  0.00    -0.296 N 
ENDROOT
BRANCH   3   7
ATOM      7  C6  <0> d           1.540  -3.041   0.297  0.00  0.00     0.047 C 
BRANCH   7   8
ATOM      8  C7  <0> d           2.385  -2.876  -0.805  0.00  0.00    -0.021 A 
ATOM      9  C14 <0> d           2.888  -1.573  -1.385  0.00  0.00     0.189 A 
ATOM     10  N2  <0> d           3.738  -1.937  -2.524  0.00  0.00    -0.284 NA
ATOM     11  C13 <0> d           3.760  -3.244  -2.649  0.00  0.00     0.064 A 
ATOM     12  C8  <0> d           2.931  -3.874  -1.601  0.00  0.00     0.026 A 
ATOM     13  C12 <0> d           4.418  -4.090  -3.579  0.00  0.00     0.032 A 
ATOM     14  C9  <0> d           2.831  -5.334  -1.576  0.00  0.00     0.038 A 
ATOM     15  C10 <0> d           3.510  -6.062  -2.527  0.00  0.00     0.030 A 
ATOM     16  C11 <0> d           4.285  -5.435  -3.503  0.00  0.00     0.005 A 
BRANCH  14  17
ATOM     17  N3  <0> d           2.064  -5.974  -0.610  0.00  0.00    -0.398 N 
ATOM     18  H12 <0> d           1.655  -5.460   0.103  0.00  0.00     0.156 HD
ATOM     19  H13 <0> d           1.939  -6.935  -0.649  0.00  0.00     0.156 HD
ENDBRANCH  14  17
ENDBRANCH   7   8
ENDBRANCH   3   7
BRANCH   1  20
ATOM     20  C3  <0> d           0.447   1.629   1.316  0.00  0.00     0.315 C 
BRANCH  20  21
ATOM     21  C2  <0> d           1.666   2.207   2.037  0.00  0.00     0.154 C 
ATOM     22  C1  <0> d           1.627   3.735   1.960  0.00  0.00     0.042 C 
BRANCH  21  23
ATOM     23  O3  <0> d           1.649   1.799   3.406  0.00  0.00    -0.393 OA
ATOM     24  H21 <0> d           0.866   2.089   3.893  0.00  0.00     0.210 HD
ENDBRANCH  21  23
ENDBRANCH  20  21
BRANCH  20  25
ATOM     25  N5  <0> d           0.465   2.049  -0.091  0.00  0.00     0.092 N 
ATOM     26  H19 <0> d           0.445   3.054  -0.169  0.00  0.00     0.313 HD
ATOM     27  H20 <0> d           1.264   1.665  -0.573  0.00  0.00     0.313 HD
ENDBRANCH  20  25
ENDBRANCH   1  20
BRANCH   6  28
ATOM     28  C16 <0> d          -1.033  -0.088   3.391  0.00  0.00     0.160 C 
BRANCH  28  29
ATOM     29  C17 <0> d          -2.491  -0.085   2.926  0.00  0.00     0.184 C 
BRANCH  29  30
ATOM     30  O2  <0> d          -2.928  -1.431   2.724  0.00  0.00    -0.399 OA
ATOM     31  H18 <0> d          -3.846  -1.505   2.428  0.00  0.00     0.209 HD
ENDBRANCH  29  30
ENDBRANCH  28  29
ENDBRANCH   6  28
TORSDOF 10
