REMARK  4 active torsions:
REMARK  status: ('A' for Active; 'I' for Inactive)
REMARK    1  A    between atoms: C3_3  and  O4_17 
REMARK    2  A    between atoms: C6_6  and  C7_7 
REMARK    3  A    between atoms: O4_17  and  C12_18 
REMARK    4  A    between atoms: C12_18  and  C13_19 
REMARK       I    between atoms: C13_19  and  N3_21 
ROOT
ATOM      1  C1  <0> d          -0.057   1.330   0.640  0.00  0.00     0.014 A 
ATOM      2  C2  <0> d           1.094   2.059   0.725  0.00  0.00     0.037 A 
ATOM      3  C3  <0> d           2.298   1.519   0.283  0.00  0.00     0.069 A 
ATOM      4  C4  <0> d           2.338   0.233  -0.249  0.00  0.00     0.037 A 
ATOM      5  C5  <0> d           1.195  -0.507  -0.340  0.00  0.00     0.014 A 
ATOM      6  C6  <0> d          -0.024   0.032   0.105  0.00  0.00    -0.035 A 
ENDROOT
BRANCH   6   7
ATOM      7  C7  <0> d          -1.251  -0.755   0.010  0.00  0.00     0.033 C 
ATOM      8  C8  <0> d          -2.410  -0.175  -0.482  0.00  0.00     0.089 A 
ATOM      9  C11 <0> d          -2.395   1.155  -1.122  0.00  0.00     0.264 A 
ATOM     10  C9  <0> d          -3.711  -0.855  -0.386  0.00  0.00     0.220 A 
ATOM     11  N2  <0> d          -3.567   1.647  -1.579  0.00  0.00    -0.273 N 
ATOM     12  O3  <0> d          -1.361   1.786  -1.237  0.00  0.00    -0.267 OA
ATOM     13  C10 <0> d          -4.707   0.953  -1.448  0.00  0.00     0.351 A 
ATOM     14  H6  <0> d          -3.585   2.517  -2.007  0.00  0.00     0.173 HD
ATOM     15  N1  <0> d          -4.777  -0.247  -0.875  0.00  0.00    -0.166 NA
ATOM     16  O2  <0> d          -5.734   1.448  -1.875  0.00  0.00    -0.244 OA
ATOM     17  O1  <0> d          -3.813  -2.071   0.190  0.00  0.00    -0.169 OA
ENDBRANCH   6   7
BRANCH   3  18
ATOM     18  O4  <0> d           3.438   2.249   0.370  0.00  0.00    -0.342 OA
BRANCH  18  19
ATOM     19  C12 <0> d           4.639   1.636  -0.101  0.00  0.00     0.278 C 
BRANCH  19  20
ATOM     20  C13 <0> d           5.793   2.590   0.075  0.00  0.00     0.244 C 
ATOM     21  O5  <0> d           5.604   3.687   0.556  0.00  0.00    -0.271 OA
ATOM     22  N3  <0> d           7.033   2.223  -0.303  0.00  0.00    -0.346 N 
ATOM     23  C17 <0> d           8.175   3.137  -0.142  0.00  0.00     0.152 C 
ATOM     24  C14 <0> d           7.285   0.900  -0.896  0.00  0.00     0.152 C 
ATOM     25  C16 <0> d           8.926   3.220  -1.471  0.00  0.00     0.187 C 
ATOM     26  O6  <0> d           9.229   1.899  -1.926  0.00  0.00    -0.388 OA
ATOM     27  C15 <0> d           8.078   1.094  -2.193  0.00  0.00     0.187 C 
ENDBRANCH  19  20
ENDBRANCH  18  19
ENDBRANCH   3  18
TORSDOF 4
