REMARK  3 active torsions:
REMARK  status: ('A' for Active; 'I' for Inactive)
REMARK    1  A    between atoms: C8_8  and  N2_21 
REMARK    2  A    between atoms: C9_9  and  C13_14 
REMARK    3  A    between atoms: C13_14  and  N1_15 
ROOT
ATOM      1  C1  <0> d          -0.212   1.081  -0.757  0.00  0.00     0.048 C 
ATOM      2  C2  <0> d          -0.154  -0.409  -0.538  0.00  0.00    -0.061 A 
ATOM      3  C3  <0> d          -0.194  -1.270  -1.619  0.00  0.00     0.016 A 
ATOM      4  C4  <0> d          -0.143  -2.634  -1.417  0.00  0.00    -0.028 A 
ATOM      5  C5  <0> d          -0.049  -3.147  -0.127  0.00  0.00     0.084 A 
ATOM      6  C6  <0> d          -0.006  -2.284   0.953  0.00  0.00     0.009 A 
ATOM      7  C7  <0> d          -0.055  -0.915   0.744  0.00  0.00     0.019 A 
ATOM      8  C8  <0> d           0.107  -2.798   2.366  0.00  0.00     0.262 C 
ATOM      9  C9  <0> d          -0.284  -4.277   2.409  0.00  0.00     0.086 C 
ATOM     10  C10 <0> d           0.460  -5.005   1.282  0.00  0.00     0.068 C 
ATOM     11  O1  <0> d          -0.006  -4.496   0.032  0.00  0.00    -0.339 OA
ATOM     12  C11 <0> d           1.964  -4.755   1.412  0.00  0.00     0.047 C 
ATOM     13  C12 <0> d           0.177  -6.507   1.365  0.00  0.00     0.047 C 
ATOM     14  C18 <0> d          -0.189  -3.570  -2.597  0.00  0.00     0.051 C 
ENDROOT
BRANCH   9  15
ATOM     15  C13 <0> d          -1.794  -4.417   2.206  0.00  0.00     0.282 C 
BRANCH  15  16
ATOM     16  N1  <0> d          -2.499  -3.834   3.355  0.00  0.00     0.093 N 
ATOM     17  C17 <0> d          -3.942  -3.735   3.093  0.00  0.00     0.298 C 
ATOM     18  C16 <0> d          -4.628  -3.069   4.289  0.00  0.00     0.198 C 
ATOM     19  O2  <0> d          -4.343  -3.818   5.473  0.00  0.00    -0.388 OA
ATOM     20  C15 <0> d          -2.946  -3.934   5.759  0.00  0.00     0.198 C 
ATOM     21  C14 <0> d          -2.244  -4.609   4.579  0.00  0.00     0.298 C 
ENDBRANCH  15  16
ENDBRANCH   9  15
BRANCH   8  22
ATOM     22  N2  <0> d          -0.791  -2.030   3.239  0.00  0.00     0.087 N 
ATOM     23  H24 <0> d          -0.465  -1.082   3.349  0.00  0.00     0.313 HD
ATOM     24  H28 <0> d          -1.738  -2.047   2.889  0.00  0.00     0.313 HD
ENDBRANCH   8  22
TORSDOF 3
