REMARK  6 active torsions:
REMARK  status: ('A' for Active; 'I' for Inactive)
REMARK    1  A    between atoms: C6_6  and  N1_8 
REMARK    2  A    between atoms: C12_13  and  C13_14 
REMARK    3  A    between atoms: C12_13  and  C24_28 
REMARK    4  A    between atoms: C12_13  and  N7_41 
REMARK    5  A    between atoms: N6_32  and  C25_33 
REMARK    6  A    between atoms: C25_33  and  C26_34 
ROOT
ATOM      1  C12 <0> d           5.213   6.997   0.031  0.00  0.00     0.299 C 
ENDROOT
BRANCH   1   2
ATOM      2  C13 <0> d           5.453   7.588   1.397  0.00  0.00     0.049 A 
ATOM      3  C21 <0> d           4.471   8.411   1.989  0.00  0.00     0.254 A 
ATOM      4  N2  <0> d           4.646   8.952   3.208  0.00  0.00    -0.322 N 
ATOM      5  O1  <0> d           3.437   8.633   1.383  0.00  0.00    -0.268 OA
ATOM      6  C20 <0> d           5.803   8.729   3.923  0.00  0.00     0.051 A 
ATOM      7  H2  <0> d           3.949   9.509   3.588  0.00  0.00     0.169 HD
ATOM      8  C15 <0> d           6.816   7.920   3.374  0.00  0.00    -0.008 A 
ATOM      9  C19 <0> d           5.987   9.294   5.181  0.00  0.00    -0.034 A 
ATOM     10  C14 <0> d           6.614   7.332   2.049  0.00  0.00     0.029 A 
ATOM     11  C16 <0> d           7.992   7.692   4.095  0.00  0.00     0.020 A 
ATOM     12  C17 <0> d           8.151   8.257   5.329  0.00  0.00    -0.061 A 
ATOM     13  C18 <0> d           7.154   9.055   5.874  0.00  0.00     0.015 A 
ATOM     14  C23 <0> d           9.418   8.011   6.106  0.00  0.00     0.048 C 
ATOM     15  C22 <0> d           4.913  10.163   5.785  0.00  0.00     0.050 C 
ENDBRANCH   1   2
BRANCH   1  16
ATOM     16  C24 <0> d           5.130   8.105  -0.988  0.00  0.00     0.184 A 
ATOM     17  N6  <0> d           6.073   8.443  -1.886  0.00  0.00    -0.228 N 
ATOM     18  N5  <0> d           5.611   9.436  -2.567  0.00  0.00    -0.044 NA
ATOM     19  N4  <0> d           4.434   9.725  -2.132  0.00  0.00    -0.023 NA
ATOM     20  N3  <0> d           4.122   8.922  -1.175  0.00  0.00    -0.111 NA
BRANCH  17  21
ATOM     21  C25 <0> d           7.379   7.802  -2.059  0.00  0.00     0.193 C 
BRANCH  21  22
ATOM     22  C26 <0> d           7.259   6.677  -3.055  0.00  0.00    -0.038 A 
ATOM     23  C31 <0> d           7.459   6.921  -4.401  0.00  0.00     0.009 A 
ATOM     24  C30 <0> d           7.349   5.890  -5.314  0.00  0.00     0.001 A 
ATOM     25  C29 <0> d           7.040   4.614  -4.882  0.00  0.00     0.000 A 
ATOM     26  C28 <0> d           6.840   4.370  -3.536  0.00  0.00     0.001 A 
ATOM     27  C27 <0> d           6.955   5.400  -2.622  0.00  0.00     0.009 A 
ENDBRANCH  21  22
ENDBRANCH  17  21
ENDBRANCH   1  16
BRANCH   1  28
ATOM     28  N7  <0> d           3.931   6.261   0.040  0.00  0.00    -0.053 N 
ATOM     29  C9  <0> d           3.863   5.378   1.223  0.00  0.00     0.251 C 
ATOM     30  C8  <0> d           2.506   4.671   1.235  0.00  0.00     0.123 C 
ATOM     31  N1  <0> d           2.353   3.888   0.001  0.00  0.00    -0.280 NA
ATOM     32  C11 <0> d           2.442   4.753  -1.183  0.00  0.00     0.123 C 
ATOM     33  C10 <0> d           3.800   5.460  -1.195  0.00  0.00     0.251 C 
ATOM     34  H36 <0> d           3.158   6.936   0.083  0.00  0.00     0.281 HD
BRANCH  31  35
ATOM     35  C6  <0> d           1.155   3.171   0.008  0.00  0.00     0.017 A 
ATOM     36  C5  <0> d           1.175   1.782   0.000  0.00  0.00    -0.041 A 
ATOM     37  C4  <0> d          -0.013   1.076   0.008  0.00  0.00     0.009 A 
ATOM     38  C32 <0> d           2.490   1.046  -0.017  0.00  0.00     0.050 C 
ATOM     39  C3  <0> d          -1.220   1.750   0.017  0.00  0.00     0.007 A 
ATOM     40  C2  <0> d          -1.243   3.133   0.031  0.00  0.00    -0.060 A 
ATOM     41  C1  <0> d          -2.561   3.863   0.047  0.00  0.00     0.048 C 
ATOM     42  C7  <0> d          -0.060   3.845   0.023  0.00  0.00     0.030 A 
ENDBRANCH  31  35
ENDBRANCH   1  28
TORSDOF 6
