REMARK  4 active torsions:
REMARK  status: ('A' for Active; 'I' for Inactive)
REMARK    1  A    between atoms: C2_2  and  N1_9 
REMARK       I    between atoms: N1_9  and  C7_10 
REMARK    2  A    between atoms: C7_10  and  C8_12 
REMARK    3  A    between atoms: N2_16  and  C12_17 
REMARK    4  A    between atoms: C12_17  and  C13_18 
ROOT
ATOM      1  C8  <0> d           1.847   1.265  -2.076  0.00  0.00     0.280 C 
ATOM      2  C9  <0> d           2.394   1.704  -3.458  0.00  0.00     0.045 C 
ATOM      3  C10 <0> d           2.714   3.201  -3.243  0.00  0.00     0.030 C 
ATOM      4  C11 <0> d           2.878   3.363  -1.720  0.00  0.00     0.236 C 
ATOM      5  N2  <0> d           2.692   2.025  -1.119  0.00  0.00    -0.053 N 
ATOM      6  H14 <0> d           3.655   1.526  -0.939  0.00  0.00     0.281 HD
ENDROOT
BRANCH   1   7
ATOM      7  C7  <0> d           2.024  -0.219  -1.881  0.00  0.00     0.253 C 
ATOM      8  N1  <0> d           1.342  -1.087  -2.654  0.00  0.00    -0.325 N 
ATOM      9  H5  <0> d           0.592  -0.715  -3.368  0.00  0.00     0.169 HD
ATOM     10  O1  <0> d           2.780  -0.632  -1.027  0.00  0.00    -0.271 OA
BRANCH   8  11
ATOM     11  C2  <0> d           1.588  -2.460  -2.549  0.00  0.00     0.038 A 
ATOM     12  C1  <0> d           0.555  -3.368  -2.743  0.00  0.00     0.053 A 
ATOM     13  C6  <0> d           0.801  -4.724  -2.639  0.00  0.00     0.037 A 
ATOM     14  C5  <0> d           2.074  -5.178  -2.341  0.00  0.00     0.048 A 
ATOM     15 Cl1  <0> d          -0.489  -5.861  -2.882  0.00  0.00    -0.084 Cl
ATOM     16  C4  <0> d           3.105  -4.274  -2.146  0.00  0.00     0.037 A 
ATOM     17  C3  <0> d           2.865  -2.917  -2.255  0.00  0.00     0.053 A 
ATOM     18 Cl2  <0> d           4.700  -4.847  -1.773  0.00  0.00    -0.084 Cl
ENDBRANCH   8  11
ENDBRANCH   1   7
BRANCH   5  19
ATOM     19  C12 <0> d           2.041   2.124   0.194  0.00  0.00     0.299 C 
BRANCH  19  20
ATOM     20  C13 <0> d           0.606   2.548   0.013  0.00  0.00     0.113 A 
ATOM     21  N4  <0> d           0.228   3.809  -0.002  0.00  0.00    -0.143 NA
ATOM     22  N3  <0> d          -1.011   4.113  -0.160  0.00  0.00    -0.109 NA
ATOM     23  S1  <0> d          -1.766   2.734  -0.309  0.00  0.00     0.049 SA
ATOM     24  C14 <0> d          -0.416   1.661  -0.150  0.00  0.00     0.122 A 
ATOM     25 Cl3  <0> d          -0.374  -0.074  -0.194  0.00  0.00    -0.072 Cl
ENDBRANCH  19  20
ENDBRANCH   5  19
TORSDOF 4
