REMARK  6 active torsions:
REMARK  status: ('A' for Active; 'I' for Inactive)
REMARK    1  A    between atoms: C5_6  and  N3_8 
REMARK    2  A    between atoms: C7_10  and  C10_14 
REMARK    3  A    between atoms: C11_15  and  C15_26 
REMARK    4  A    between atoms: C12_16  and  C14_21 
REMARK    5  A    between atoms: C12_16  and  O2_25 
REMARK    6  A    between atoms: C15_26  and  C16_28 
ROOT
ATOM      1  C10 <0> d           2.311  -4.218  -0.931  0.00  0.00     0.139 C 
ATOM      2  C11 <0> d           2.557  -2.929  -0.140  0.00  0.00     0.153 C 
ATOM      3  C12 <0> d           3.041  -3.304   1.265  0.00  0.00     0.248 C 
ATOM      4  N5  <0> d           2.064  -4.200   1.886  0.00  0.00    -0.303 N 
ATOM      5  C13 <0> d           1.302  -5.020   1.148  0.00  0.00     0.319 C 
ATOM      6  O1  <0> d           0.513  -5.752   1.715  0.00  0.00    -0.247 OA
ATOM      7  N6  <0> d           1.374  -5.065  -0.191  0.00  0.00    -0.333 N 
ATOM      8  H11 <0> d           1.967  -4.200   2.851  0.00  0.00     0.167 HD
ATOM      9  H12 <0> d           0.794  -5.671  -0.678  0.00  0.00     0.165 HD
ENDROOT
BRANCH   1  10
ATOM     10  C7  <0> d           1.726  -3.879  -2.278  0.00  0.00     0.010 A 
ATOM     11  C6  <0> d           0.411  -3.863  -2.593  0.00  0.00     0.148 A 
ATOM     12  N3  <0> d           0.306  -3.506  -3.901  0.00  0.00    -0.070 N 
ATOM     13  N4  <0> d           1.601  -3.307  -4.395  0.00  0.00    -0.158 NA
ATOM     14  C8  <0> d           2.449  -3.530  -3.425  0.00  0.00     0.061 A 
ATOM     15  C9  <0> d           3.950  -3.429  -3.525  0.00  0.00     0.073 C 
BRANCH  12  16
ATOM     16  C5  <0> d          -0.880  -3.367  -4.622  0.00  0.00     0.749 A 
ATOM     17  N1  <0> d          -0.823  -3.016  -5.896  0.00  0.00    -0.066 NA
ATOM     18  C4  <0> d          -1.928  -2.876  -6.610  0.00  0.00     0.051 A 
ATOM     19  C3  <0> d          -3.155  -3.101  -6.006  0.00  0.00     0.054 A 
ATOM     20  C22 <0> d          -1.853  -2.475  -8.061  0.00  0.00     0.071 C 
ATOM     21  C2  <0> d          -3.177  -3.467  -4.669  0.00  0.00     0.051 A 
ATOM     22  C1  <0> d          -4.488  -3.723  -3.970  0.00  0.00     0.071 C 
ATOM     23  N2  <0> d          -2.034  -3.594  -4.016  0.00  0.00    -0.066 NA
ENDBRANCH  12  16
ENDBRANCH   1  10
BRANCH   2  24
ATOM     24  C15 <0> d           1.275  -2.143  -0.041  0.00  0.00     0.171 C 
ATOM     25  O3  <0> d           0.327  -2.604   0.558  0.00  0.00    -0.292 OA
BRANCH  24  26
ATOM     26  C16 <0> d           1.175  -0.817  -0.671  0.00  0.00     0.010 A 
ATOM     27  C21 <0> d           2.297  -0.236  -1.268  0.00  0.00     0.015 A 
ATOM     28  C20 <0> d           2.195   1.007  -1.856  0.00  0.00     0.001 A 
ATOM     29  C19 <0> d           0.986   1.680  -1.855  0.00  0.00     0.000 A 
ATOM     30  C18 <0> d          -0.130   1.111  -1.266  0.00  0.00     0.001 A 
ATOM     31  C17 <0> d          -0.044  -0.131  -0.674  0.00  0.00     0.015 A 
ENDBRANCH  24  26
ENDBRANCH   2  24
BRANCH   3  32
ATOM     32  C14 <0> d           3.184  -2.038   2.111  0.00  0.00     0.438 C 
ATOM     33  F1  <0> d           1.924  -1.465   2.311  0.00  0.00    -0.166 F 
ATOM     34  F2  <0> d           3.749  -2.365   3.348  0.00  0.00    -0.166 F 
ATOM     35  F3  <0> d           4.011  -1.125   1.448  0.00  0.00    -0.166 F 
ENDBRANCH   3  32
BRANCH   3  36
ATOM     36  O2  <0> d           4.305  -3.965   1.174  0.00  0.00    -0.363 OA
ATOM     37  H13 <0> d           4.672  -4.231   2.028  0.00  0.00     0.213 HD
ENDBRANCH   3  36
TORSDOF 6
