REMARK  2 active torsions:
REMARK  status: ('A' for Active; 'I' for Inactive)
REMARK    1  A    between atoms: C7_9  and  C10_13 
REMARK    2  A    between atoms: C10_13  and  N3_14 
ROOT
ATOM      1  C1  <0> d          -0.018   1.503   0.010  0.00  0.00     0.048 C 
ATOM      2  C2  <0> d           0.002  -0.004   0.002  0.00  0.00    -0.057 A 
ATOM      3  C3  <0> d           0.006  -0.703  -1.213  0.00  0.00     0.024 A 
ATOM      4  C4  <0> d           0.025  -2.055  -1.219  0.00  0.00     0.102 A 
ATOM      5  N1  <0> d           0.040  -2.756  -0.052  0.00  0.00    -0.275 N 
ATOM      6  C5  <0> d           0.037  -2.103   1.149  0.00  0.00     0.115 A 
ATOM      7  C6  <0> d           0.023  -0.696   1.176  0.00  0.00     0.056 A 
ATOM      8  N2  <0> d           0.053  -2.781   2.295  0.00  0.00    -0.344 N 
ATOM      9  C7  <0> d           0.072  -4.105   2.312  0.00  0.00     0.044 A 
ATOM     10  C8  <0> d           0.076  -4.811   1.125  0.00  0.00     0.101 A 
ATOM     11  C9  <0> d           0.059  -4.106  -0.083  0.00  0.00     0.255 A 
ATOM     12  O1  <0> d           0.061  -4.701  -1.149  0.00  0.00    -0.268 OA
ATOM     13  H22 <0> d           0.050  -2.295   3.135  0.00  0.00     0.167 HD
ENDROOT
BRANCH   9  14
ATOM     14  C10 <0> d           0.089  -4.841   3.627  0.00  0.00     0.330 C 
BRANCH  14  15
ATOM     15  N3  <0> d           1.344  -4.551   4.333  0.00  0.00     0.101 N 
ATOM     16  C14 <0> d           1.300  -5.054   5.713  0.00  0.00     0.245 C 
ATOM     17  C13 <0> d           2.599  -4.681   6.431  0.00  0.00     0.267 C 
ATOM     18  C15 <0> d           0.113  -4.428   6.448  0.00  0.00     0.045 C 
ATOM     19  N4  <0> d           3.740  -5.266   5.715  0.00  0.00    -0.071 N 
ATOM     20  C12 <0> d           3.785  -4.735   4.346  0.00  0.00     0.262 C 
ATOM     21  H15 <0> d           3.638  -6.270   5.683  0.00  0.00     0.277 HD
ATOM     22  H21 <0> d           4.595  -5.030   6.195  0.00  0.00     0.277 HD
ATOM     23  C11 <0> d           2.496  -5.109   3.611  0.00  0.00     0.300 C 
ENDBRANCH  14  15
ENDBRANCH   9  14
TORSDOF 2
