REMARK  5 active torsions:
REMARK  status: ('A' for Active; 'I' for Inactive)
REMARK    1  A    between atoms: C5_5  and  S1_8 
REMARK    2  A    between atoms: S1_8  and  N1_11 
REMARK    3  A    between atoms: N1_11  and  C8_12 
REMARK    4  A    between atoms: C12_17  and  N3_21 
REMARK       I    between atoms: N3_21  and  C15_22 
REMARK    5  A    between atoms: C15_22  and  C16_24 
ROOT
ATOM      1  C8  <0> d           2.495  -4.727   1.101  0.00  0.00     0.262 A 
ATOM      2  N2  <0> d           3.903  -4.622   0.696  0.00  0.00    -0.358 N 
ATOM      3  C9  <0> d           4.804  -5.532   1.253  0.00  0.00     0.053 A 
ATOM      4  C10 <0> d           6.184  -5.584   0.985  0.00  0.00    -0.032 A 
ATOM      5  C11 <0> d           6.993  -6.520   1.585  0.00  0.00     0.038 A 
ATOM      6  C12 <0> d           6.473  -7.447   2.479  0.00  0.00     0.036 A 
ATOM      7  C13 <0> d           5.112  -7.417   2.761  0.00  0.00     0.050 A 
ATOM      8  C14 <0> d           4.308  -6.477   2.157  0.00  0.00     0.033 A 
ATOM      9  S2  <0> d           2.564  -6.142   2.271  0.00  0.00    -0.081 SA
ATOM     10  C24 <0> d           6.787  -4.596   0.021  0.00  0.00     0.050 C 
ATOM     11  H11 <0> d           4.196  -3.947   0.064  0.00  0.00     0.162 HD
ENDROOT
BRANCH   6  12
ATOM     12  N3  <0> d           7.306  -8.397   3.086  0.00  0.00    -0.325 N 
ATOM     13  C15 <0> d           7.069  -8.789   4.353  0.00  0.00     0.248 C 
ATOM     14  O3  <0> d           6.088  -8.385   4.940  0.00  0.00    -0.271 OA
ATOM     15  H14 <0> d           8.053  -8.772   2.593  0.00  0.00     0.169 HD
BRANCH  13  16
ATOM     16  C16 <0> d           8.024  -9.730   5.041  0.00  0.00     0.198 A 
ATOM     17  N4  <0> d           7.549 -10.032   6.396  0.00  0.00    -0.373 N 
ATOM     18  C23 <0> d           7.335 -11.324   6.485  0.00  0.00     0.039 A 
ATOM     19  H23 <0> d           7.415  -9.385   7.106  0.00  0.00     0.161 HD
ATOM     20  C18 <0> d           7.651 -11.986   5.199  0.00  0.00    -0.011 A 
ATOM     21  C22 <0> d           6.875 -12.135   7.558  0.00  0.00     0.030 A 
ATOM     22  C17 <0> d           8.068 -11.054   4.311  0.00  0.00     0.021 A 
ATOM     23  C19 <0> d           7.473 -13.440   5.105  0.00  0.00     0.013 A 
ATOM     24  C20 <0> d           7.029 -14.118   6.188  0.00  0.00     0.001 A 
ATOM     25  C21 <0> d           6.737 -13.468   7.395  0.00  0.00     0.002 A 
ENDBRANCH  13  16
ENDBRANCH   6  12
BRANCH   1  26
ATOM     26  N1  <0> d           1.637  -5.033  -0.046  0.00  0.00    -0.284 N 
ATOM     27  H10 <0> d           2.001  -5.506  -0.811  0.00  0.00     0.175 HD
BRANCH  26  28
ATOM     28  S1  <0> d           0.047  -4.573  -0.038  0.00  0.00     0.261 S 
ATOM     29  O1  <0> d          -0.491  -4.994   1.208  0.00  0.00    -0.200 OA
ATOM     30  O2  <0> d          -0.502  -4.984  -1.283  0.00  0.00    -0.200 OA
BRANCH  28  31
ATOM     31  C5  <0> d           0.015  -2.811  -0.031  0.00  0.00     0.079 A 
ATOM     32  C4  <0> d          -0.003  -2.115  -1.225  0.00  0.00     0.026 A 
ATOM     33  C3  <0> d          -0.029  -0.733  -1.219  0.00  0.00     0.008 A 
ATOM     34  C2  <0> d          -0.038  -0.047  -0.019  0.00  0.00    -0.062 A 
ATOM     35  C1  <0> d          -0.066   1.460  -0.013  0.00  0.00     0.048 C 
ATOM     36  C7  <0> d          -0.015  -0.743   1.175  0.00  0.00     0.008 A 
ATOM     37  C6  <0> d           0.007  -2.125   1.169  0.00  0.00     0.026 A 
ENDBRANCH  28  31
ENDBRANCH  26  28
ENDBRANCH   1  26
TORSDOF 5
