REMARK  6 active torsions:
REMARK  status: ('A' for Active; 'I' for Inactive)
REMARK    1  A    between atoms: C2_2  and  C3_3 
REMARK    2  A    between atoms: C8_8  and  O1_9 
REMARK    3  A    between atoms: O1_9  and  C9_10 
REMARK    4  A    between atoms: C9_10  and  C10_11 
REMARK    5  A    between atoms: C10_11  and  N1_12 
REMARK       I    between atoms: N1_12  and  C12_14 
REMARK    6  A    between atoms: C12_14  and  C13_16 
ROOT
ATOM      1  N1  <0> d          -0.337  -0.962  -4.917  0.00  0.00    -0.350 N 
ATOM      2  C11 <0> d          -0.422  -2.189  -5.712  0.00  0.00     0.153 C 
ATOM      3  C12 <0> d           0.814  -0.643  -4.292  0.00  0.00     0.253 C 
ATOM      4  O2  <0> d           0.855   0.317  -3.548  0.00  0.00    -0.267 OA
ENDROOT
BRANCH   3   5
ATOM      5  C13 <0> d           2.027  -1.461  -4.512  0.00  0.00     0.034 A 
ATOM      6  C20 <0> d           2.904  -1.654  -3.484  0.00  0.00     0.049 A 
ATOM      7  C19 <0> d           4.099  -2.472  -3.715  0.00  0.00     0.063 A 
ATOM      8  C16 <0> d           4.316  -3.050  -5.064  0.00  0.00     0.062 A 
ATOM      9  N3  <0> d           4.963  -2.684  -2.747  0.00  0.00    -0.317 N 
ATOM     10  C15 <0> d           3.363  -2.799  -6.081  0.00  0.00     0.033 A 
ATOM     11  N2  <0> d           5.382  -3.787  -5.313  0.00  0.00    -0.317 N 
ATOM     12  C14 <0> d           2.272  -2.046  -5.829  0.00  0.00     0.019 A 
ATOM     13  C17 <0> d           6.282  -4.019  -4.338  0.00  0.00     0.314 A 
ATOM     14  H21 <0> d           5.518  -4.162  -6.197  0.00  0.00     0.169 HD
ATOM     15  O3  <0> d           7.265  -4.696  -4.562  0.00  0.00    -0.262 OA
ATOM     16  C18 <0> d           6.063  -3.436  -2.978  0.00  0.00     0.314 A 
ATOM     17  O4  <0> d           6.865  -3.635  -2.090  0.00  0.00    -0.262 OA
ATOM     18  H20 <0> d           4.812  -2.301  -1.868  0.00  0.00     0.169 HD
ENDBRANCH   3   5
BRANCH   1  19
ATOM     19  C10 <0> d          -1.502  -0.082  -4.800  0.00  0.00     0.152 C 
BRANCH  19  20
ATOM     20  C9  <0> d          -2.341  -0.503  -3.591  0.00  0.00     0.195 C 
BRANCH  20  21
ATOM     21  O1  <0> d          -1.588  -0.295  -2.394  0.00  0.00    -0.349 OA
BRANCH  21  22
ATOM     22  C8  <0> d          -2.192  -0.621  -1.221  0.00  0.00     0.075 A 
ATOM     23  C3  <0> d          -1.520  -0.444  -0.021  0.00  0.00    -0.025 A 
ATOM     24  C4  <0> d          -2.139  -0.770   1.171  0.00  0.00     0.010 A 
ATOM     25  C5  <0> d          -3.424  -1.278   1.167  0.00  0.00     0.001 A 
ATOM     26  C6  <0> d          -4.095  -1.460  -0.029  0.00  0.00     0.003 A 
ATOM     27  C7  <0> d          -3.481  -1.135  -1.223  0.00  0.00     0.037 A 
BRANCH  23  28
ATOM     28  C2  <0> d          -0.118   0.109  -0.016  0.00  0.00     0.037 C 
ATOM     29  C1  <0> d          -0.173   1.638  -0.041  0.00  0.00     0.010 C 
ENDBRANCH  23  28
ENDBRANCH  21  22
ENDBRANCH  20  21
ENDBRANCH  19  20
ENDBRANCH   1  19
TORSDOF 6
