REMARK  6 active torsions:
REMARK  status: ('A' for Active; 'I' for Inactive)
REMARK    1  A    between atoms: C2_2  and  C3_3 
REMARK    2  A    between atoms: C3_3  and  C4_4 
REMARK    3  A    between atoms: C4_4  and  S1_5 
REMARK    4  A    between atoms: S1_5  and  N1_8 
REMARK    5  A    between atoms: N1_8  and  C5_9 
REMARK    6  A    between atoms: C8_12  and  N2_16 
ROOT
ATOM      1  C5  <0> d          -2.441  -5.088   0.926  0.00  0.00     0.077 A 
ATOM      2  C6  <0> d          -3.134  -5.173   2.127  0.00  0.00     0.041 A 
ATOM      3  C7  <0> d          -2.619  -5.917   3.171  0.00  0.00     0.050 A 
ATOM      4  C8  <0> d          -1.408  -6.581   3.020  0.00  0.00     0.028 A 
ATOM      5  C9  <0> d          -0.716  -6.497   1.819  0.00  0.00     0.050 A 
ATOM      6  C10 <0> d          -1.234  -5.758   0.773  0.00  0.00     0.041 A 
ATOM      7 Br1  <0> d          -0.294  -5.650  -0.865  0.00  0.00    -0.049 Br
ATOM      8 Br2  <0> d          -4.781  -4.268   2.334  0.00  0.00    -0.049 Br
ENDROOT
BRANCH   1   9
ATOM      9  N1  <0> d          -2.963  -4.334  -0.132  0.00  0.00    -0.282 N 
ATOM     10  H10 <0> d          -3.328  -4.780  -0.913  0.00  0.00     0.178 HD
BRANCH   9  11
ATOM     11  S1  <0> d          -2.958  -2.680  -0.051  0.00  0.00     0.231 S 
ATOM     12  O1  <0> d          -3.505  -2.377   1.225  0.00  0.00    -0.206 OA
ATOM     13  O2  <0> d          -3.613  -2.256  -1.239  0.00  0.00    -0.206 OA
BRANCH  11  14
ATOM     14  C4  <0> d          -1.205  -2.216  -0.105  0.00  0.00     0.163 C 
BRANCH  14  15
ATOM     15  C3  <0> d          -1.077  -0.694  -0.017  0.00  0.00     0.016 C 
BRANCH  15  16
ATOM     16  C2  <0> d           0.401  -0.302  -0.062  0.00  0.00    -0.004 C 
ATOM     17  C1  <0> d           0.529   1.220   0.026  0.00  0.00     0.005 C 
ENDBRANCH  15  16
ENDBRANCH  14  15
ENDBRANCH  11  14
ENDBRANCH   9  11
ENDBRANCH   1   9
BRANCH   4  18
ATOM     18  N2  <0> d          -0.886  -7.334   4.078  0.00  0.00    -0.399 N 
ATOM     19  H13 <0> d          -1.370  -7.393   4.917  0.00  0.00     0.156 HD
ATOM     20  H14 <0> d          -0.041  -7.798   3.972  0.00  0.00     0.156 HD
ENDBRANCH   4  18
TORSDOF 6
