REMARK  7 active torsions:
REMARK  status: ('A' for Active; 'I' for Inactive)
REMARK    1  A    between atoms: O1_2  and  C2_3 
REMARK    2  A    between atoms: C4_5  and  C10_13 
REMARK    3  A    between atoms: C6_7  and  O3_11 
REMARK    4  A    between atoms: C7_8  and  O2_9 
REMARK    5  A    between atoms: C10_13  and  C11_14 
REMARK    6  A    between atoms: C10_13  and  C17_20 
REMARK    7  A    between atoms: C10_13  and  O4_25 
ROOT
ATOM      1  C10 <0> d          -4.306   1.101   0.172  0.00  0.00     0.140 C 
ENDROOT
BRANCH   1   2
ATOM      2  C4  <0> d          -5.072   1.628  -1.013  0.00  0.00    -0.012 A 
ATOM      3  C3  <0> d          -6.120   0.896  -1.538  0.00  0.00     0.050 A 
ATOM      4  C2  <0> d          -6.828   1.377  -2.629  0.00  0.00     0.104 A 
ATOM      5  C7  <0> d          -6.482   2.599  -3.195  0.00  0.00     0.135 A 
ATOM      6  C6  <0> d          -5.427   3.332  -2.664  0.00  0.00     0.104 A 
ATOM      7  C5  <0> d          -4.728   2.846  -1.570  0.00  0.00     0.050 A 
BRANCH   4   8
ATOM      8  O1  <0> d          -7.859   0.656  -3.144  0.00  0.00    -0.353 OA
ATOM      9  C1  <0> d          -8.158  -0.590  -2.512  0.00  0.00     0.210 C 
ENDBRANCH   4   8
BRANCH   5  10
ATOM     10  O2  <0> d          -7.174   3.075  -4.265  0.00  0.00    -0.351 OA
ATOM     11  C8  <0> d          -8.311   3.895  -3.990  0.00  0.00     0.210 C 
ENDBRANCH   5  10
BRANCH   6  12
ATOM     12  O3  <0> d          -5.085   4.528  -3.215  0.00  0.00    -0.353 OA
ATOM     13  C9  <0> d          -3.991   5.227  -2.618  0.00  0.00     0.210 C 
ENDBRANCH   6  12
ENDBRANCH   1   2
BRANCH   1  14
ATOM     14  C11 <0> d          -4.951   1.587   1.444  0.00  0.00    -0.017 A 
ATOM     15  C16 <0> d          -5.944   0.837   2.046  0.00  0.00     0.010 A 
ATOM     16  C15 <0> d          -6.536   1.282   3.213  0.00  0.00     0.001 A 
ATOM     17  C14 <0> d          -6.135   2.478   3.778  0.00  0.00     0.000 A 
ATOM     18  C13 <0> d          -5.141   3.228   3.177  0.00  0.00     0.001 A 
ATOM     19  C12 <0> d          -4.546   2.780   2.013  0.00  0.00     0.010 A 
ENDBRANCH   1  14
BRANCH   1  20
ATOM     20  C17 <0> d          -2.861   1.601   0.109  0.00  0.00     0.229 C 
ATOM     21  C18 <0> d          -2.206   1.108  -1.183  0.00  0.00     0.037 C 
ATOM     22  C19 <0> d          -0.755   1.594  -1.231  0.00  0.00     0.004 C 
ATOM     23  C20 <0> d          -0.013   1.086   0.008  0.00  0.00     0.027 C 
ATOM     24  C21 <0> d          -0.731   1.580   1.266  0.00  0.00     0.233 C 
ATOM     25  N1  <0> d          -2.120   1.081   1.274  0.00  0.00    -0.067 N 
ATOM     26  H27 <0> d          -2.110   0.054   1.237  0.00  0.00     0.277 HD
ATOM     27  H28 <0> d          -2.585   1.388   2.136  0.00  0.00     0.277 HD
ENDBRANCH   1  20
BRANCH   1  28
ATOM     28  O4  <0> d          -4.316  -0.328   0.148  0.00  0.00    -0.378 OA
ATOM     29  H26 <0> d          -3.915  -0.711  -0.644  0.00  0.00     0.211 HD
ENDBRANCH   1  28
TORSDOF 7
