REMARK  8 active torsions:
REMARK  status: ('A' for Active; 'I' for Inactive)
REMARK    1  A    between atoms: C5_5  and  S1_8 
REMARK    2  A    between atoms: S1_8  and  N1_11 
REMARK    3  A    between atoms: N1_11  and  C8_12 
REMARK    4  A    between atoms: C8_12  and  C9_13 
REMARK    5  A    between atoms: C9_13  and  N2_14 
REMARK       I    between atoms: N2_14  and  C10_15 
REMARK    6  A    between atoms: C10_15  and  C11_17 
REMARK    7  A    between atoms: C11_17  and  S2_19 
REMARK    8  A    between atoms: S2_19  and  C13_20 
ROOT
ATOM      1  C9  <0> d           3.848  -5.478   0.949  0.00  0.00     0.143 C 
ENDROOT
BRANCH   1   2
ATOM      2  C8  <0> d           2.582  -4.620   1.015  0.00  0.00     0.152 C 
BRANCH   2   3
ATOM      3  N1  <0> d           1.746  -4.894  -0.156  0.00  0.00    -0.314 N 
ATOM      4  H9  <0> d           2.118  -5.362  -0.919  0.00  0.00     0.172 HD
BRANCH   3   5
ATOM      5  S1  <0> d           0.164  -4.404  -0.176  0.00  0.00     0.258 S 
ATOM      6  O1  <0> d          -0.410  -4.833   1.051  0.00  0.00    -0.201 OA
ATOM      7  O2  <0> d          -0.364  -4.785  -1.439  0.00  0.00    -0.201 OA
BRANCH   5   8
ATOM      8  C5  <0> d           0.164  -2.642  -0.142  0.00  0.00     0.079 A 
ATOM      9  C4  <0> d           0.186  -1.928  -1.325  0.00  0.00     0.026 A 
ATOM     10  C3  <0> d           0.185  -0.546  -1.299  0.00  0.00     0.008 A 
ATOM     11  C2  <0> d           0.161   0.122  -0.089  0.00  0.00    -0.062 A 
ATOM     12  C1  <0> d           0.160   1.629  -0.060  0.00  0.00     0.048 C 
ATOM     13  C7  <0> d           0.144  -0.592   1.095  0.00  0.00     0.008 A 
ATOM     14  C6  <0> d           0.141  -1.974   1.068  0.00  0.00     0.026 A 
ENDBRANCH   5   8
ENDBRANCH   3   5
ENDBRANCH   2   3
ENDBRANCH   1   2
BRANCH   1  15
ATOM     15  N2  <0> d           4.684  -5.205   2.120  0.00  0.00    -0.358 N 
ATOM     16  C10 <0> d           5.858  -5.849   2.276  0.00  0.00     0.231 C 
ATOM     17  O3  <0> d           6.221  -6.656   1.446  0.00  0.00    -0.272 OA
ATOM     18  H14 <0> d           4.394  -4.560   2.784  0.00  0.00     0.162 HD
BRANCH  16  19
ATOM     19  C11 <0> d           6.718  -5.569   3.480  0.00  0.00     0.140 C 
ATOM     20  C12 <0> d           6.254  -6.436   4.652  0.00  0.00     0.031 C 
BRANCH  19  21
ATOM     21  S2  <0> d           8.448  -5.953   3.091  0.00  0.00    -0.114 SA
BRANCH  21  22
ATOM     22  C13 <0> d           8.906  -4.718   1.922  0.00  0.00     0.023 A 
ATOM     23  C18 <0> d          10.153  -4.768   1.307  0.00  0.00     0.050 A 
ATOM     24  C17 <0> d          10.506  -3.800   0.387  0.00  0.00     0.025 A 
ATOM     25 Cl1  <0> d          11.260  -6.048   1.691  0.00  0.00    -0.083 Cl
ATOM     26  C16 <0> d           9.627  -2.776   0.085  0.00  0.00     0.002 A 
ATOM     27  C15 <0> d           8.389  -2.720   0.699  0.00  0.00     0.001 A 
ATOM     28  C14 <0> d           8.026  -3.687   1.615  0.00  0.00     0.020 A 
ENDBRANCH  21  22
ENDBRANCH  19  21
ENDBRANCH  16  19
ENDBRANCH   1  15
TORSDOF 8
