REMARK  11 active torsions:
REMARK  status: ('A' for Active; 'I' for Inactive)
REMARK    1  A    between atoms: C2_2  and  C3_3 
REMARK    2  A    between atoms: C3_3  and  C4_4 
REMARK    3  A    between atoms: C4_4  and  C5_5 
REMARK    4  A    between atoms: C5_5  and  C6_6 
REMARK    5  A    between atoms: C6_6  and  O1_7 
REMARK    6  A    between atoms: O1_7  and  C7_8 
REMARK    7  A    between atoms: C9_10  and  O2_22 
REMARK    8  A    between atoms: C12_13  and  C13_14 
REMARK    9  A    between atoms: C13_14  and  C14_15 
REMARK   10  A    between atoms: C13_14  and  N2_17 
REMARK   11  A    between atoms: C14_15  and  N1_16 
ROOT
ATOM      1  C7  <0> d           0.573  -1.602  -1.575  0.00  0.00     0.079 A 
ATOM      2  C8  <0> d          -0.101  -2.364  -0.633  0.00  0.00     0.074 A 
ATOM      3  C9  <0> d          -0.026  -3.747  -0.681  0.00  0.00     0.070 A 
ATOM      4  C10 <0> d           0.733  -4.366  -1.665  0.00  0.00     0.037 A 
ATOM      5  C11 <0> d           1.409  -3.605  -2.599  0.00  0.00     0.015 A 
ATOM      6  C12 <0> d           1.331  -2.225  -2.556  0.00  0.00     0.008 A 
ENDROOT
BRANCH   6   7
ATOM      7  C13 <0> d           2.069  -1.398  -3.577  0.00  0.00     0.249 C 
BRANCH   7   8
ATOM      8  C14 <0> d           3.423  -0.974  -3.007  0.00  0.00     0.267 C 
BRANCH   8   9
ATOM      9  N1  <0> d           4.265  -2.161  -2.808  0.00  0.00    -0.077 N 
ATOM     10  H20 <0> d           5.239  -1.856  -2.398  0.00  0.00     0.274 HD
ATOM     11  H21 <0> d           4.415  -2.670  -3.772  0.00  0.00     0.274 HD
ATOM     12  H33 <0> d           3.770  -2.848  -2.105  0.00  0.00     0.274 HD
ENDBRANCH   8   9
ENDBRANCH   7   8
BRANCH   7  13
ATOM     13  N2  <0> d           2.277  -2.193  -4.794  0.00  0.00    -0.061 N 
ATOM     14  C18 <0> d           2.964  -1.399  -5.836  0.00  0.00     0.236 C 
ATOM     15  C17 <0> d           2.410  -1.862  -7.196  0.00  0.00     0.029 C 
ATOM     16  C16 <0> d           1.352  -2.937  -6.856  0.00  0.00     0.029 C 
ATOM     17  C15 <0> d           0.980  -2.606  -5.389  0.00  0.00     0.236 C 
ATOM     18  H34 <0> d           2.880  -3.060  -4.486  0.00  0.00     0.280 HD
ENDBRANCH   7  13
ENDBRANCH   6   7
BRANCH   1  19
ATOM     19  O1  <0> d           0.497  -0.246  -1.534  0.00  0.00    -0.350 OA
BRANCH  19  20
ATOM     20  C6  <0> d          -0.301   0.328  -0.496  0.00  0.00     0.175 C 
BRANCH  20  21
ATOM     21  C5  <0> d          -0.266   1.853  -0.610  0.00  0.00     0.027 C 
BRANCH  21  22
ATOM     22  C4  <0> d          -1.121   2.467   0.500  0.00  0.00     0.002 C 
BRANCH  22  23
ATOM     23  C3  <0> d          -1.086   3.992   0.386  0.00  0.00    -0.000 C 
BRANCH  23  24
ATOM     24  C2  <0> d          -1.940   4.606   1.497  0.00  0.00    -0.005 C 
ATOM     25  C1  <0> d          -1.905   6.132   1.383  0.00  0.00     0.005 C 
ENDBRANCH  23  24
ENDBRANCH  22  23
ENDBRANCH  21  22
ENDBRANCH  20  21
ENDBRANCH  19  20
ENDBRANCH   1  19
BRANCH   3  26
ATOM     26  O2  <0> d          -0.690  -4.497   0.237  0.00  0.00    -0.356 OA
ATOM     27  C19 <0> d          -0.563  -5.916   0.131  0.00  0.00     0.210 C 
ENDBRANCH   3  26
TORSDOF 11
