REMARK  5 active torsions:
REMARK  status: ('A' for Active; 'I' for Inactive)
REMARK    1  A    between atoms: C4_4  and  C7_7 
REMARK    2  A    between atoms: C7_7  and  C8_8 
REMARK    3  A    between atoms: C7_7  and  N3_14 
REMARK    4  A    between atoms: C8_8  and  N1_9 
REMARK       I    between atoms: N3_14  and  C12_15 
REMARK    5  A    between atoms: C12_15  and  C13_17 
ROOT
ATOM      1  N3  <0> d           3.611  -1.865  -0.930  0.00  0.00    -0.347 N 
ATOM      2  C12 <0> d           3.825  -1.716  -2.253  0.00  0.00     0.252 C 
ATOM      3  O1  <0> d           4.099  -0.621  -2.705  0.00  0.00    -0.268 OA
ATOM      4  H14 <0> d           3.392  -2.738  -0.569  0.00  0.00     0.163 HD
ENDROOT
BRANCH   1   5
ATOM      5  C7  <0> d           3.711  -0.707  -0.038  0.00  0.00     0.136 C 
BRANCH   5   6
ATOM      6  C4  <0> d           2.396   0.029  -0.020  0.00  0.00    -0.034 A 
ATOM      7  C3  <0> d           2.377   1.411  -0.013  0.00  0.00     0.009 A 
ATOM      8  C2  <0> d           1.171   2.086   0.002  0.00  0.00     0.001 A 
ATOM      9  C1  <0> d          -0.017   1.378   0.010  0.00  0.00     0.000 A 
ATOM     10  C6  <0> d           0.002  -0.004   0.002  0.00  0.00     0.001 A 
ATOM     11  C5  <0> d           1.208  -0.679  -0.012  0.00  0.00     0.009 A 
ENDBRANCH   5   6
BRANCH   5  12
ATOM     12  C8  <0> d           4.049  -1.182   1.377  0.00  0.00     0.159 C 
BRANCH  12  13
ATOM     13  N1  <0> d           5.381  -1.791   1.383  0.00  0.00    -0.349 N 
ATOM     14  C11 <0> d           6.552  -1.157   1.605  0.00  0.00     0.182 A 
ATOM     15  N2  <0> d           7.521  -2.028   1.532  0.00  0.00    -0.361 N 
ATOM     16  C10 <0> d           7.009  -3.236   1.255  0.00  0.00     0.106 A 
ATOM     17  H18 <0> d           8.463  -1.832   1.655  0.00  0.00     0.166 HD
ATOM     18  C9  <0> d           5.672  -3.110   1.158  0.00  0.00     0.108 A 
ENDBRANCH  12  13
ENDBRANCH   5  12
ENDBRANCH   1   5
BRANCH   2  19
ATOM     19  C13 <0> d           3.724  -2.882  -3.152  0.00  0.00     0.034 A 
ATOM     20  C18 <0> d           3.945  -2.729  -4.522  0.00  0.00     0.049 A 
ATOM     21  C17 <0> d           3.854  -3.826  -5.358  0.00  0.00     0.064 A 
ATOM     22  C16 <0> d           3.532  -5.082  -4.833  0.00  0.00     0.063 A 
ATOM     23  N4  <0> d           4.018  -3.995  -6.732  0.00  0.00    -0.306 N 
ATOM     24  C15 <0> d           3.307  -5.229  -3.469  0.00  0.00     0.033 A 
ATOM     25  N5  <0> d           3.510  -5.970  -5.900  0.00  0.00    -0.307 N 
ATOM     26  C14 <0> d           3.402  -4.140  -2.633  0.00  0.00     0.019 A 
ATOM     27  C19 <0> d           3.804  -5.292  -7.026  0.00  0.00     0.325 A 
ATOM     28  H3  <0> d           3.315  -6.918  -5.845  0.00  0.00     0.170 HD
ATOM     29  O2  <0> d           3.868  -5.777  -8.139  0.00  0.00    -0.247 OA
ATOM     30  H2  <0> d           4.246  -3.299  -7.367  0.00  0.00     0.170 HD
ENDBRANCH   2  19
TORSDOF 5
