REMARK  1 active torsions:
REMARK  status: ('A' for Active; 'I' for Inactive)
REMARK    1  A    between atoms: C6_6  and  O5_22 
ROOT
ATOM      1  C1  <0> d          -2.493   1.371   0.117  0.00  0.00     0.037 C 
ATOM      2  C2  <0> d          -1.193   2.132   0.064  0.00  0.00    -0.013 C 
ATOM      3  C3  <0> d          -0.018   1.462   0.010  0.00  0.00     0.035 C 
ATOM      4  C4  <0> d           0.002  -0.004   0.002  0.00  0.00     0.023 C 
ATOM      5  C5  <0> d           0.104  -0.776  -1.070  0.00  0.00    -0.039 C 
ATOM      6  C6  <0> d           0.138  -0.388  -2.509  0.00  0.00     0.165 C 
ATOM      7  C7  <0> d           1.403  -0.824  -3.198  0.00  0.00     0.298 C 
ATOM      8  O1  <0> d           1.293  -1.679  -4.070  0.00  0.00    -0.261 OA
ATOM      9  O2  <0> d           2.619  -0.368  -2.940  0.00  0.00    -0.315 OA
ATOM     10  C8  <0> d           2.933   0.476  -1.824  0.00  0.00     0.215 C 
ATOM     11  C9  <0> d           3.610   1.752  -2.253  0.00  0.00    -0.025 C 
ATOM     12  C10 <0> d           4.866   1.853  -2.591  0.00  0.00     0.008 C 
ATOM     13  C11 <0> d           5.191   3.285  -2.914  0.00  0.00     0.263 C 
ATOM     14  C12 <0> d           2.953   3.097  -2.360  0.00  0.00     0.248 C 
ATOM     15  C13 <0> d           2.747   3.728  -0.977  0.00  0.00     0.169 C 
ATOM     16  C14 <0> d           2.967   5.236  -1.202  0.00  0.00     0.062 C 
ATOM     17  C15 <0> d           4.011   5.259  -2.325  0.00  0.00     0.238 C 
ATOM     18  O3  <0> d           1.409   3.444  -0.498  0.00  0.00    -0.309 OA
ATOM     19  C16 <0> d           1.240   2.212   0.002  0.00  0.00     0.293 C 
ATOM     20  O4  <0> d           2.218   1.696   0.532  0.00  0.00    -0.259 OA
ATOM     21  C17 <0> d          -0.117   1.084  -2.794  0.00  0.00     0.062 C 
ATOM     22  C18 <0> d           0.158  -2.277  -0.770  0.00  0.00     0.047 C 
ATOM     23  N1  <0> d           3.914   3.960  -3.043  0.00  0.00    -0.057 N 
ATOM     24  H24 <0> d           3.657   4.104  -4.027  0.00  0.00     0.281 HD
ENDROOT
BRANCH   6  25
ATOM     25  O5  <0> d          -0.937  -1.123  -3.155  0.00  0.00    -0.375 OA
ATOM     26  H20 <0> d          -1.016  -0.951  -4.103  0.00  0.00     0.211 HD
ENDBRANCH   6  25
TORSDOF 1
