REMARK  6 active torsions:
REMARK  status: ('A' for Active; 'I' for Inactive)
REMARK    1  A    between atoms: C2_2  and  C3_3 
REMARK    2  A    between atoms: C2_2  and  O2_30 
REMARK    3  A    between atoms: C7_7  and  N1_9 
REMARK       I    between atoms: N1_9  and  C9_10 
REMARK    4  A    between atoms: C9_10  and  C10_12 
REMARK    5  A    between atoms: C13_18  and  C17_25 
REMARK    6  A    between atoms: C15_20  and  C16_21 
ROOT
ATOM      1  C10 <0> d           6.231  -2.143   3.257  0.00  0.00     0.094 A 
ATOM      2  C11 <0> d           7.037  -2.599   4.280  0.00  0.00     0.128 A 
ATOM      3  N2  <0> d           8.320  -2.668   3.841  0.00  0.00    -0.306 N 
ATOM      4  N3  <0> d           8.392  -2.240   2.521  0.00  0.00    -0.263 N 
ATOM      5  C12 <0> d           7.107  -1.924   2.100  0.00  0.00     0.136 A 
ATOM      6  N4  <0> d           6.822  -1.511   0.899  0.00  0.00    -0.365 N 
ATOM      7  C13 <0> d           7.899  -1.411  -0.095  0.00  0.00     0.125 C 
ATOM      8  C14 <0> d           9.222  -1.056   0.583  0.00  0.00     0.067 C 
ATOM      9  C15 <0> d           9.563  -2.106   1.648  0.00  0.00     0.219 C 
ATOM     10  H13 <0> d           9.075  -2.970   4.370  0.00  0.00     0.186 HD
ATOM     11  H20 <0> d           5.912  -1.273   0.663  0.00  0.00     0.162 HD
ENDROOT
BRANCH   1  12
ATOM     12  C9  <0> d           4.782  -1.926   3.314  0.00  0.00     0.261 C 
ATOM     13  N1  <0> d           4.097  -1.655   2.185  0.00  0.00    -0.323 N 
ATOM     14  H11 <0> d           4.535  -1.726   1.323  0.00  0.00     0.169 HD
ATOM     15  O1  <0> d           4.198  -1.991   4.379  0.00  0.00    -0.267 OA
BRANCH  13  16
ATOM     16  C7  <0> d           2.754  -1.270   2.258  0.00  0.00     0.035 A 
ATOM     17  C6  <0> d           1.930  -1.803   3.240  0.00  0.00     0.029 A 
ATOM     18  C5  <0> d           0.604  -1.422   3.309  0.00  0.00     0.003 A 
ATOM     19  C4  <0> d           0.097  -0.510   2.401  0.00  0.00     0.010 A 
ATOM     20  C3  <0> d           0.915   0.023   1.422  0.00  0.00    -0.028 A 
ATOM     21  C8  <0> d           2.240  -0.359   1.344  0.00  0.00     0.039 A 
BRANCH  20  22
ATOM     22  C2  <0> d           0.359   1.016   0.434  0.00  0.00     0.147 C 
ATOM     23  C1  <0> d           0.420   2.421   1.035  0.00  0.00     0.044 C 
BRANCH  22  24
ATOM     24  O2  <0> d          -0.999   0.683   0.138  0.00  0.00    -0.391 OA
ATOM     25  H19 <0> d          -1.422   1.282  -0.493  0.00  0.00     0.210 HD
ENDBRANCH  22  24
ENDBRANCH  20  22
ENDBRANCH  13  16
ENDBRANCH   1  12
BRANCH   9  26
ATOM     26  C16 <0> d          10.775  -1.657   2.468  0.00  0.00     0.409 C 
ATOM     27  F1  <0> d          11.044  -2.607   3.459  0.00  0.00    -0.169 F 
ATOM     28  F2  <0> d          11.886  -1.532   1.627  0.00  0.00    -0.169 F 
ATOM     29  F3  <0> d          10.502  -0.423   3.066  0.00  0.00    -0.169 F 
ENDBRANCH   9  26
BRANCH   7  30
ATOM     30  C17 <0> d           8.044  -2.733  -0.805  0.00  0.00     0.005 A 
ATOM     31  S1  <0> d           7.954  -4.385  -0.135  0.00  0.00    -0.104 SA
ATOM     32  C20 <0> d           8.231  -5.287  -1.650  0.00  0.00     0.050 A 
ATOM     33  C19 <0> d           8.379  -4.284  -2.550  0.00  0.00     0.008 A 
ATOM     34  C18 <0> d           8.282  -2.975  -2.117  0.00  0.00     0.017 A 
ENDBRANCH   7  30
TORSDOF 6
