REMARK  6 active torsions:
REMARK  status: ('A' for Active; 'I' for Inactive)
REMARK    1  A    between atoms: N1_6  and  C5_7 
REMARK    2  A    between atoms: C5_7  and  C6_8 
REMARK    3  A    between atoms: C7_9  and  C10_19 
REMARK    4  A    between atoms: N2_10  and  C8_13 
REMARK    5  A    between atoms: C9_14  and  N7_18 
REMARK    6  A    between atoms: C10_19  and  N8_20 
ROOT
ATOM      1  C6  <0> d           1.893   2.221   1.019  0.00  0.00     0.113 A 
ATOM      2  C7  <0> d           1.008   1.753   0.113  0.00  0.00     0.096 A 
ATOM      3  N2  <0> d           1.605   1.853  -1.108  0.00  0.00    -0.192 N 
ATOM      4  N3  <0> d           2.874   2.408  -0.881  0.00  0.00    -0.059 NA
ATOM      5  N4  <0> d           3.001   2.606   0.385  0.00  0.00    -0.132 NA
ENDROOT
BRANCH   3   6
ATOM      6  C8  <0> d           1.060   1.480  -2.342  0.00  0.00     0.229 A 
ATOM      7  N6  <0> d          -0.121   0.963  -2.529  0.00  0.00    -0.081 NA
ATOM      8  O2  <0> d          -0.281   0.734  -3.918  0.00  0.00    -0.103 OA
ATOM      9  N5  <0> d           0.911   1.151  -4.561  0.00  0.00    -0.083 NA
ATOM     10  C9  <0> d           1.724   1.598  -3.643  0.00  0.00     0.201 A 
BRANCH  10  11
ATOM     11  N7  <0> d           3.001   2.101  -3.863  0.00  0.00    -0.379 N 
ATOM     12  H11 <0> d           3.406   2.146  -4.885  0.00  0.00     0.158 HD
ATOM     13  H12 <0> d           3.607   2.454  -3.016  0.00  0.00     0.158 HD
ENDBRANCH  10  11
ENDBRANCH   3   6
BRANCH   2  14
ATOM     14  C10 <0> d          -0.371   1.216   0.398  0.00  0.00     0.334 C 
BRANCH  14  15
ATOM     15  N8  <0> d          -0.274  -0.193   0.803  0.00  0.00     0.098 N 
ATOM     16  C14 <0> d          -1.562  -0.683   1.316  0.00  0.00     0.299 C 
ATOM     17  C13 <0> d          -1.401  -2.133   1.780  0.00  0.00     0.198 C 
ATOM     18  O3  <0> d          -0.913  -2.925   0.694  0.00  0.00    -0.388 OA
ATOM     19  C12 <0> d           0.340  -2.476   0.171  0.00  0.00     0.198 C 
ATOM     20  C11 <0> d           0.197  -1.030  -0.310  0.00  0.00     0.299 C 
ENDBRANCH  14  15
ENDBRANCH   2  14
BRANCH   1  21
ATOM     21  C5  <0> d           1.665   2.297   2.506  0.00  0.00     0.335 C 
BRANCH  21  22
ATOM     22  N1  <0> d           0.930   3.529   2.827  0.00  0.00     0.098 N 
ATOM     23  C1  <0> d           1.793   4.710   2.680  0.00  0.00     0.299 C 
ATOM     24  C2  <0> d           0.974   5.972   2.965  0.00  0.00     0.198 C 
ATOM     25  O1  <0> d           0.402   5.878   4.272  0.00  0.00    -0.388 OA
ATOM     26  C3  <0> d          -0.445   4.739   4.450  0.00  0.00     0.198 C 
ATOM     27  C4  <0> d           0.360   3.465   4.180  0.00  0.00     0.299 C 
ENDBRANCH  21  22
ENDBRANCH   1  21
TORSDOF 6
