REMARK  4 active torsions:
REMARK  status: ('A' for Active; 'I' for Inactive)
REMARK    1  A    between atoms: C4_4  and  N1_9 
REMARK    2  A    between atoms: N1_9  and  C9_10 
REMARK    3  A    between atoms: N2_12  and  C10_13 
REMARK    4  A    between atoms: C13_16  and  C16_19 
ROOT
ATOM      1  N1  <0> d           1.545   3.282  -3.372  0.00  0.00    -0.362 N 
ATOM      2  H15 <0> d           1.969   2.550  -3.847  0.00  0.00     0.162 HD
ENDROOT
BRANCH   1   3
ATOM      3  C4  <0> d           1.400   3.224  -1.913  0.00  0.00     0.088 C 
ATOM      4  C3  <0> d           0.032   2.636  -1.565  0.00  0.00     0.063 C 
ATOM      5  C2  <0> d          -0.137   2.531  -0.052  0.00  0.00     0.121 C 
ATOM      6  C1  <0> d          -1.382   1.657   0.217  0.00  0.00     0.046 C 
ATOM      7  C17 <0> d          -0.426   3.920   0.529  0.00  0.00     0.046 C 
ATOM      8  N3  <0> d           0.986   1.865   0.662  0.00  0.00    -0.059 N 
ATOM      9  C6  <0> d           2.345   2.237   0.185  0.00  0.00     0.121 C 
ATOM     10  H24 <0> d           0.876   0.850   0.551  0.00  0.00     0.279 HD
ATOM     11  H25 <0> d           0.919   2.110   1.657  0.00  0.00     0.279 HD
ATOM     12  C5  <0> d           2.479   2.306  -1.336  0.00  0.00     0.063 C 
ATOM     13  C7  <0> d           2.826   3.552   0.806  0.00  0.00     0.046 C 
ATOM     14  C8  <0> d           3.287   1.120   0.684  0.00  0.00     0.046 C 
ENDBRANCH   1   3
BRANCH   1  15
ATOM     15  C9  <0> d           1.089   4.352  -4.053  0.00  0.00     0.172 C 
ATOM     16  S1  <0> d           0.341   5.644  -3.216  0.00  0.00    -0.041 SA
ATOM     17  N2  <0> d           1.222   4.405  -5.393  0.00  0.00    -0.333 N 
ATOM     18  H16 <0> d           1.700   3.703  -5.861  0.00  0.00     0.168 HD
BRANCH  17  19
ATOM     19  C10 <0> d           0.671   5.473  -6.109  0.00  0.00     0.034 A 
ATOM     20  C15 <0> d           0.840   6.775  -5.657  0.00  0.00     0.030 A 
ATOM     21  C14 <0> d           0.295   7.827  -6.367  0.00  0.00     0.018 A 
ATOM     22  C13 <0> d          -0.418   7.585  -7.527  0.00  0.00     0.048 A 
ATOM     23  C12 <0> d          -0.588   6.290  -7.980  0.00  0.00     0.018 A 
ATOM     24  C11 <0> d          -0.041   5.234  -7.277  0.00  0.00     0.030 A 
BRANCH  22  25
ATOM     25  C16 <0> d          -1.012   8.735  -8.298  0.00  0.00     0.417 C 
ATOM     26  F1  <0> d          -0.085   9.192  -9.241  0.00  0.00    -0.166 F 
ATOM     27  F2  <0> d          -2.172   8.308  -8.953  0.00  0.00    -0.166 F 
ATOM     28  F3  <0> d          -1.330   9.774  -7.416  0.00  0.00    -0.166 F 
ENDBRANCH  22  25
ENDBRANCH  17  19
ENDBRANCH   1  15
TORSDOF 4
