REMARK  6 active torsions:
REMARK  status: ('A' for Active; 'I' for Inactive)
REMARK    1  A    between atoms: C2_2  and  C3_3 
REMARK    2  A    between atoms: C3_3  and  C4_4 
REMARK    3  A    between atoms: C3_3  and  N3_20 
REMARK    4  A    between atoms: C8_8  and  S1_10 
REMARK    5  A    between atoms: S1_10  and  N1_13 
REMARK    6  A    between atoms: N1_13  and  C10_14 
ROOT
ATOM      1  C4  <0> d           0.632  -2.000  -1.327  0.00  0.00    -0.026 A 
ATOM      2  C5  <0> d           1.488  -2.779  -0.571  0.00  0.00     0.009 A 
ATOM      3  C6  <0> d           1.409  -4.157  -0.636  0.00  0.00     0.002 A 
ATOM      4  C7  <0> d           0.472  -4.757  -1.457  0.00  0.00     0.025 A 
ATOM      5  C8  <0> d          -0.384  -3.979  -2.213  0.00  0.00     0.080 A 
ATOM      6  C9  <0> d          -0.308  -2.601  -2.145  0.00  0.00     0.034 A 
ENDROOT
BRANCH   5   7
ATOM      7  S1  <0> d          -1.577  -4.745  -3.260  0.00  0.00     0.263 S 
ATOM      8  O1  <0> d          -1.892  -3.801  -4.274  0.00  0.00    -0.200 OA
ATOM      9  O2  <0> d          -1.083  -6.044  -3.556  0.00  0.00    -0.200 OA
BRANCH   7  10
ATOM     10  N1  <0> d          -2.953  -4.954  -2.363  0.00  0.00    -0.279 N 
ATOM     11  H11 <0> d          -3.269  -5.849  -2.161  0.00  0.00     0.179 HD
BRANCH  10  12
ATOM     12  C10 <0> d          -3.659  -3.843  -1.897  0.00  0.00     0.060 A 
ATOM     13  C14 <0> d          -3.913  -2.766  -2.737  0.00  0.00     0.146 A 
ATOM     14  N2  <0> d          -4.583  -1.718  -2.303  0.00  0.00    -0.271 NA
ATOM     15  C13 <0> d          -5.028  -1.642  -1.064  0.00  0.00     0.116 A 
ATOM     16  C12 <0> d          -4.810  -2.671  -0.167  0.00  0.00     0.021 A 
ATOM     17  C11 <0> d          -4.115  -3.795  -0.582  0.00  0.00     0.033 A 
ENDBRANCH  10  12
ENDBRANCH   7  10
ENDBRANCH   5   7
BRANCH   1  18
ATOM     18  C3  <0> d           0.718  -0.497  -1.257  0.00  0.00     0.218 C 
BRANCH  18  19
ATOM     19  C2  <0> d           0.002  -0.004   0.002  0.00  0.00     0.033 C 
ATOM     20  C1  <0> d          -0.019   1.526   0.010  0.00  0.00     0.007 C 
ENDBRANCH  18  19
BRANCH  18  21
ATOM     21  N3  <0> d           2.129  -0.090  -1.209  0.00  0.00    -0.071 N 
ATOM     22  C15 <0> d           2.788  -0.458  -2.470  0.00  0.00     0.267 C 
ATOM     23  H16 <0> d           2.186   0.909  -1.079  0.00  0.00     0.277 HD
ATOM     24  H20 <0> d           2.588  -0.556  -0.441  0.00  0.00     0.277 HD
ENDBRANCH  18  21
ENDBRANCH   1  18
TORSDOF 6
