REMARK  4 active torsions:
REMARK  status: ('A' for Active; 'I' for Inactive)
REMARK    1  A    between atoms: C4_6  and  S1_7 
REMARK    2  A    between atoms: S1_7  and  C5_8 
REMARK    3  A    between atoms: C5_8  and  C6_9 
REMARK       I    between atoms: C6_9  and  N3_11 
REMARK    4  A    between atoms: N3_11  and  C7_12 
ROOT
ATOM      1  C6  <0> d          -1.649  -3.758  -0.002  0.00  0.00     0.227 C 
ATOM      2  O1  <0> d          -2.826  -3.466   0.010  0.00  0.00    -0.273 OA
ATOM      3  N3  <0> d          -1.276  -5.053  -0.013  0.00  0.00    -0.355 N 
ATOM      4  H8  <0> d          -0.335  -5.287  -0.023  0.00  0.00     0.162 HD
ENDROOT
BRANCH   3   5
ATOM      5  C7  <0> d          -2.293  -6.108  -0.009  0.00  0.00     0.092 C 
ATOM      6  C15 <0> d          -1.711  -7.379  -0.631  0.00  0.00     0.009 C 
ATOM      7  C14 <0> d          -0.499  -7.836   0.182  0.00  0.00     0.011 C 
ATOM      8  C16 <0> d          -2.773  -8.480  -0.627  0.00  0.00     0.011 C 
ATOM      9  C12 <0> d          -0.930  -8.124   1.622  0.00  0.00    -0.013 C 
ATOM     10  C11 <0> d          -1.992  -9.226   1.626  0.00  0.00     0.009 C 
ATOM     11  C13 <0> d          -1.511  -6.853   2.244  0.00  0.00     0.011 C 
ATOM     12  C10 <0> d          -3.204  -8.768   0.813  0.00  0.00    -0.013 C 
ATOM     13  C9  <0> d          -3.785  -7.497   1.435  0.00  0.00     0.011 C 
ATOM     14  C8  <0> d          -2.724  -6.395   1.431  0.00  0.00     0.009 C 
ENDBRANCH   3   5
BRANCH   1  15
ATOM     15  C5  <0> d          -0.603  -2.673  -0.006  0.00  0.00     0.185 C 
BRANCH  15  16
ATOM     16  S1  <0> d          -1.413  -1.054   0.010  0.00  0.00    -0.083 SA
BRANCH  16  17
ATOM     17  C4  <0> d           0.002  -0.004   0.002  0.00  0.00     0.168 A 
ATOM     18  N1  <0> d          -0.016   1.357   0.009  0.00  0.00    -0.339 N 
ATOM     19  C1  <0> d          -1.206   2.212   0.020  0.00  0.00     0.158 C 
ATOM     20  C2  <0> d           1.295   1.777  -0.001  0.00  0.00     0.112 A 
ATOM     21  C3  <0> d           2.060   0.673  -0.014  0.00  0.00     0.136 A 
ATOM     22  N2  <0> d           1.253  -0.401  -0.012  0.00  0.00    -0.235 NA
ENDBRANCH  16  17
ENDBRANCH  15  16
ENDBRANCH   1  15
TORSDOF 4
