REMARK  5 active torsions:
REMARK  status: ('A' for Active; 'I' for Inactive)
REMARK    1  A    between atoms: C3_3  and  C5_6 
REMARK    2  A    between atoms: C5_6  and  N1_7 
REMARK    3  A    between atoms: C7_9  and  C10_13 
REMARK       I    between atoms: C10_13  and  N2_15 
REMARK    4  A    between atoms: N2_15  and  C11_16 
REMARK    5  A    between atoms: C14_19  and  C17_22 
ROOT
ATOM      1  C10 <0> d           3.514   0.763  -0.478  0.00  0.00     0.228 C 
ATOM      2  O3  <0> d           3.687  -0.001  -1.405  0.00  0.00    -0.273 OA
ATOM      3  N2  <0> d           4.489   1.623  -0.123  0.00  0.00    -0.327 N 
ATOM      4  H11 <0> d           4.302   2.374   0.659  0.00  0.00     0.169 HD
ENDROOT
BRANCH   3   5
ATOM      5  C11 <0> d           5.739   1.561  -0.748  0.00  0.00     0.034 A 
ATOM      6  C16 <0> d           6.472   2.724  -0.951  0.00  0.00     0.030 A 
ATOM      7  C15 <0> d           7.704   2.665  -1.567  0.00  0.00     0.016 A 
ATOM      8  C14 <0> d           8.215   1.438  -1.985  0.00  0.00    -0.006 A 
ATOM      9  C13 <0> d           7.478   0.272  -1.780  0.00  0.00     0.016 A 
ATOM     10  C12 <0> d           6.249   0.335  -1.159  0.00  0.00     0.030 A 
BRANCH   8  11
ATOM     11  C17 <0> d           9.541   1.372  -2.648  0.00  0.00     0.086 A 
ATOM     12  N4  <0> d          10.348   2.420  -2.911  0.00  0.00    -0.222 NA
ATOM     13  C21 <0> d          11.426   1.985  -3.495  0.00  0.00     0.177 A 
ATOM     14  N3  <0> d          11.369   0.624  -3.652  0.00  0.00    -0.309 N 
ATOM     15  S1  <0> d          12.998   2.397  -4.215  0.00  0.00    -0.062 SA
ATOM     16  C18 <0> d          10.149   0.248  -3.100  0.00  0.00     0.131 A 
ATOM     17  C19 <0> d          12.447   0.022  -4.265  0.00  0.00     0.106 A 
ATOM     18  C20 <0> d          13.487   0.743  -4.680  0.00  0.00     0.071 A 
ENDBRANCH   8  11
ENDBRANCH   3   5
BRANCH   1  19
ATOM     19  C7  <0> d           2.209   0.750   0.275  0.00  0.00     0.105 C 
ATOM     20  C6  <0> d           1.246  -0.310  -0.305  0.00  0.00     0.140 C 
ATOM     21  N1  <0> d          -0.093   0.283  -0.210  0.00  0.00    -0.345 N 
ATOM     22  C9  <0> d          -0.026   1.612  -0.025  0.00  0.00     0.221 C 
ATOM     23  C8  <0> d           1.419   2.058   0.035  0.00  0.00     0.118 C 
ATOM     24  O2  <0> d          -0.984   2.349   0.075  0.00  0.00    -0.273 OA
BRANCH  21  25
ATOM     25  C5  <0> d          -1.342  -0.477  -0.305  0.00  0.00     0.190 C 
BRANCH  25  26
ATOM     26  C3  <0> d          -1.782  -0.540  -1.745  0.00  0.00     0.070 A 
ATOM     27  C2  <0> d          -1.438  -1.491  -2.632  0.00  0.00     0.036 A 
ATOM     28  C1  <0> d          -2.073  -1.163  -3.852  0.00  0.00     0.027 A 
ATOM     29  C4  <0> d          -2.760  -0.026  -3.640  0.00  0.00     0.142 A 
ATOM     30  O1  <0> d          -2.581   0.346  -2.362  0.00  0.00    -0.325 OA
ENDBRANCH  25  26
ENDBRANCH  21  25
ENDBRANCH   1  19
TORSDOF 5
