REMARK  2 active torsions:
REMARK  status: ('A' for Active; 'I' for Inactive)
REMARK    1  A    between atoms: C3_3  and  C6_7 
REMARK       I    between atoms: C6_7  and  N1_9 
REMARK    2  A    between atoms: C13_17  and  N2_18 
ROOT
ATOM      1  C6  <0> d          -1.768  -0.034  -1.652  0.00  0.00     0.256 C 
ATOM      2  O2  <0> d          -2.056   1.148  -1.644  0.00  0.00    -0.267 OA
ATOM      3  N1  <0> d          -2.710  -0.959  -1.380  0.00  0.00    -0.343 N 
ATOM      4  C7  <0> d          -4.111  -0.578  -1.148  0.00  0.00     0.131 C 
ATOM      5  C8  <0> d          -4.990  -1.167  -2.251  0.00  0.00     0.060 C 
ATOM      6  C9  <0> d          -4.653  -2.645  -2.432  0.00  0.00    -0.025 A 
ATOM      7  C10 <0> d          -3.474  -3.145  -1.997  0.00  0.00     0.010 A 
ATOM      8  S1  <0> d          -3.510  -4.869  -2.415  0.00  0.00    -0.072 SA
ATOM      9  C11 <0> d          -5.104  -4.924  -3.168  0.00  0.00     0.114 A 
ATOM     10  C12 <0> d          -5.560  -3.585  -3.070  0.00  0.00     0.053 A 
ATOM     11  C13 <0> d          -6.850  -3.305  -3.605  0.00  0.00     0.136 A 
ATOM     12  N3  <0> d          -7.492  -4.340  -4.143  0.00  0.00    -0.224 NA
ATOM     13  C14 <0> d          -7.003  -5.563  -4.198  0.00  0.00     0.236 A 
ATOM     14  N4  <0> d          -5.809  -5.891  -3.719  0.00  0.00    -0.234 NA
ATOM     15  C15 <0> d          -2.377  -2.395  -1.310  0.00  0.00     0.172 C 
ENDROOT
BRANCH   1  16
ATOM     16  C3  <0> d          -0.389  -0.454  -1.957  0.00  0.00     0.063 A 
ATOM     17  C2  <0> d           0.477   0.132  -2.834  0.00  0.00     0.064 A 
ATOM     18  C1  <0> d           0.188   1.347  -3.679  0.00  0.00     0.077 C 
ATOM     19  O1  <0> d           1.622  -0.557  -2.820  0.00  0.00    -0.326 OA
ATOM     20  C5  <0> d           1.554  -1.581  -1.956  0.00  0.00     0.143 A 
ATOM     21  C4  <0> d           0.342  -1.592  -1.381  0.00  0.00     0.044 A 
ENDBRANCH   1  16
BRANCH  11  22
ATOM     22  N2  <0> d          -7.402  -2.037  -3.568  0.00  0.00    -0.383 N 
ATOM     23  H10 <0> d          -6.834  -1.265  -3.417  0.00  0.00     0.157 HD
ATOM     24  H14 <0> d          -8.357  -1.920  -3.692  0.00  0.00     0.157 HD
ENDBRANCH  11  22
TORSDOF 2
