REMARK  10 active torsions:
REMARK  status: ('A' for Active; 'I' for Inactive)
REMARK    1  A    between atoms: C2_2  and  C3_3 
REMARK    2  A    between atoms: C2_2  and  N4_33 
REMARK    3  A    between atoms: C8_8  and  O1_9 
REMARK    4  A    between atoms: O1_9  and  C9_10 
REMARK    5  A    between atoms: C9_10  and  C10_11 
REMARK    6  A    between atoms: C10_11  and  C11_12 
REMARK    7  A    between atoms: C10_11  and  O2_22 
REMARK    8  A    between atoms: C11_12  and  N5_35 
REMARK    9  A    between atoms: C21_23  and  C22_24 
REMARK   10  A    between atoms: C21_23  and  N4_33 
ROOT
ATOM      1  C3  <0> d          -0.675   1.601   8.454  0.00  0.00     0.001 A 
ATOM      2  C4  <0> d          -0.250   1.097   9.668  0.00  0.00     0.012 A 
ATOM      3  C5  <0> d           0.628   0.030   9.706  0.00  0.00     0.001 A 
ATOM      4  C6  <0> d           1.083  -0.535   8.528  0.00  0.00     0.003 A 
ATOM      5  C7  <0> d           0.657  -0.038   7.312  0.00  0.00     0.037 A 
ATOM      6  C8  <0> d          -0.220   1.037   7.272  0.00  0.00     0.076 A 
ENDROOT
BRANCH   6   7
ATOM      7  O1  <0> d          -0.636   1.531   6.077  0.00  0.00    -0.348 OA
BRANCH   7   8
ATOM      8  C9  <0> d          -0.126   0.900   4.901  0.00  0.00     0.209 C 
BRANCH   8   9
ATOM      9  C10 <0> d          -0.703   1.589   3.662  0.00  0.00     0.168 C 
BRANCH   9  10
ATOM     10  C11 <0> d          -0.257   0.837   2.406  0.00  0.00     0.268 C 
BRANCH  10  11
ATOM     11  N5  <0> d          -0.921   1.397   1.207  0.00  0.00    -0.064 N 
ATOM     12  C12 <0> d          -0.432   2.767   0.951  0.00  0.00     0.240 C 
ATOM     13  C13 <0> d          -0.872   3.167  -0.458  0.00  0.00     0.067 C 
ATOM     14  C14 <0> d          -2.348   2.917  -0.627  0.00  0.00    -0.049 A 
ATOM     15  C19 <0> d          -3.047   2.102   0.237  0.00  0.00    -0.026 A 
ATOM     16  C15 <0> d          -3.006   3.528  -1.684  0.00  0.00     0.007 A 
ATOM     17  C18 <0> d          -4.405   1.896   0.041  0.00  0.00     0.009 A 
ATOM     18  C20 <0> d          -2.380   1.421   1.403  0.00  0.00     0.274 C 
ATOM     19  C17 <0> d          -5.058   2.503  -1.012  0.00  0.00     0.001 A 
ATOM     20  C16 <0> d          -4.357   3.322  -1.877  0.00  0.00     0.001 A 
ATOM     21  H31 <0> d          -0.702   0.805   0.397  0.00  0.00     0.280 HD
ENDBRANCH  10  11
ENDBRANCH   9  10
BRANCH   9  22
ATOM     22  O2  <0> d          -0.231   2.936   3.603  0.00  0.00    -0.392 OA
ATOM     23  H27 <0> d           0.732   3.014   3.550  0.00  0.00     0.210 HD
ENDBRANCH   9  22
ENDBRANCH   8   9
ENDBRANCH   7   8
ENDBRANCH   6   7
BRANCH   1  24
ATOM     24  C2  <0> d          -1.633   2.764   8.415  0.00  0.00     0.276 C 
BRANCH  24  25
ATOM     25  N4  <0> d          -3.000   2.248   8.189  0.00  0.00    -0.064 N 
ATOM     26  C1  <0> d          -3.107   1.678   6.830  0.00  0.00     0.270 C 
ATOM     27  H30 <0> d          -3.196   1.511   8.877  0.00  0.00     0.280 HD
BRANCH  25  28
ATOM     28  C21 <0> d          -3.985   3.337   8.359  0.00  0.00     0.314 C 
BRANCH  28  29
ATOM     29  C22 <0> d          -5.371   2.746   8.343  0.00  0.00     0.154 A 
ATOM     30  N3  <0> d          -5.653   1.493   8.182  0.00  0.00    -0.155 NA
ATOM     31  N2  <0> d          -7.047   1.350   8.231  0.00  0.00    -0.227 N 
ATOM     32  C23 <0> d          -7.570   2.579   8.420  0.00  0.00     0.342 A 
ATOM     33  H3  <0> d          -7.543   0.521   8.142  0.00  0.00     0.194 HD
ATOM     34  N1  <0> d          -6.542   3.448   8.491  0.00  0.00    -0.292 N 
ATOM     35  O3  <0> d          -8.753   2.853   8.511  0.00  0.00    -0.245 OA
ATOM     36  H2  <0> d          -6.616   4.406   8.623  0.00  0.00     0.172 HD
ENDBRANCH  28  29
ENDBRANCH  25  28
ENDBRANCH  24  25
ENDBRANCH   1  24
TORSDOF 10
