REMARK  5 active torsions:
REMARK  status: ('A' for Active; 'I' for Inactive)
REMARK    1  A    between atoms: N2_6  and  C5_7 
REMARK    2  A    between atoms: C5_7  and  C6_8 
REMARK    3  A    between atoms: C6_8  and  C7_9 
REMARK       I    between atoms: C7_9  and  N3_11 
REMARK    4  A    between atoms: N3_11  and  C8_12 
REMARK    5  A    between atoms: C15_20  and  N6_22 
ROOT
ATOM      1  C8  <0> d           5.770   3.711   2.686  0.00  0.00     0.121 C 
ATOM      2  C9  <0> d           6.579   4.623   1.764  0.00  0.00     0.030 C 
ATOM      3  C10 <0> d           8.033   4.639   2.251  0.00  0.00     0.008 C 
ATOM      4  C11 <0> d           8.092   5.393   3.578  0.00  0.00     0.060 C 
ATOM      5  C12 <0> d           7.066   4.851   4.537  0.00  0.00     0.063 A 
ATOM      6  C13 <0> d           5.999   4.082   4.125  0.00  0.00     0.008 A 
ATOM      7  C14 <0> d           5.097   3.630   5.081  0.00  0.00     0.147 A 
ATOM      8  N4  <0> d           5.286   3.944   6.351  0.00  0.00    -0.075 NA
ATOM      9  C15 <0> d           6.324   4.682   6.715  0.00  0.00     0.723 A 
ATOM     10  N5  <0> d           7.199   5.129   5.829  0.00  0.00    -0.067 NA
ENDROOT
BRANCH   1  11
ATOM     11  N3  <0> d           4.346   3.845   2.372  0.00  0.00    -0.352 N 
ATOM     12  C7  <0> d           3.496   2.838   2.654  0.00  0.00     0.219 C 
ATOM     13  O1  <0> d           3.910   1.821   3.168  0.00  0.00    -0.274 OA
ATOM     14  H11 <0> d           4.014   4.658   1.961  0.00  0.00     0.163 HD
BRANCH  12  15
ATOM     15  C6  <0> d           2.030   2.976   2.331  0.00  0.00     0.123 C 
BRANCH  15  16
ATOM     16  C5  <0> d           1.294   1.702   2.749  0.00  0.00     0.139 C 
BRANCH  16  17
ATOM     17  N2  <0> d          -0.131   1.836   2.435  0.00  0.00    -0.344 N 
ATOM     18  C2  <0> d          -0.718   1.572   1.248  0.00  0.00     0.101 A 
ATOM     19  C1  <0> d          -0.013   1.086   0.008  0.00  0.00     0.091 C 
ATOM     20  N1  <0> d          -1.996   1.813   1.351  0.00  0.00    -0.246 NA
ATOM     21  C3  <0> d          -2.270   2.227   2.597  0.00  0.00     0.136 A 
ATOM     22  C4  <0> d          -1.116   2.251   3.290  0.00  0.00     0.111 A 
ENDBRANCH  16  17
ENDBRANCH  15  16
ENDBRANCH  12  15
ENDBRANCH   1  11
BRANCH   9  23
ATOM     23  N6  <0> d           6.497   4.993   8.053  0.00  0.00    -0.223 N 
ATOM     24  C16 <0> d           7.639   5.808   8.473  0.00  0.00     0.168 C 
ATOM     25  C17 <0> d           5.539   4.506   9.048  0.00  0.00     0.168 C 
ENDBRANCH   9  23
TORSDOF 5
