REMARK  2 active torsions:
REMARK  status: ('A' for Active; 'I' for Inactive)
REMARK    1  A    between atoms: C4_4  and  C9_10 
REMARK    2  A    between atoms: C7_7  and  O1_8 
ROOT
ATOM      1  C1  <0> d           4.846   0.611   1.011  0.00  0.00     0.051 C 
ATOM      2  C2  <0> d           3.654   1.469   0.670  0.00  0.00    -0.028 A 
ATOM      3  C3  <0> d           2.417   0.890   0.503  0.00  0.00     0.021 A 
ATOM      4  C4  <0> d           1.310   1.688   0.188  0.00  0.00    -0.034 A 
ATOM      5  C5  <0> d           1.471   3.071   0.039  0.00  0.00     0.021 A 
ATOM      6  C6  <0> d           2.712   3.640   0.213  0.00  0.00    -0.028 A 
ATOM      7  C7  <0> d           3.807   2.843   0.527  0.00  0.00     0.077 A 
ATOM      8  C8  <0> d           2.885   5.129   0.059  0.00  0.00     0.051 C 
ENDROOT
BRANCH   4   9
ATOM      9  C9  <0> d          -0.013   1.076   0.008  0.00  0.00     0.036 C 
ATOM     10  C10 <0> d          -0.127  -0.118  -0.628  0.00  0.00     0.079 A 
ATOM     11  S1  <0> d          -1.556  -1.174  -0.819  0.00  0.00    -0.024 SA
ATOM     12  C11 <0> d           0.892  -0.897  -1.358  0.00  0.00     0.266 A 
ATOM     13  C12 <0> d          -0.776  -2.472  -1.765  0.00  0.00     0.291 A 
ATOM     14  N1  <0> d           0.498  -2.045  -1.883  0.00  0.00    -0.283 N 
ATOM     15  O3  <0> d          -1.273  -3.494  -2.198  0.00  0.00    -0.260 OA
ATOM     16  H11 <0> d           1.137  -2.589  -2.368  0.00  0.00     0.172 HD
ATOM     17  O2  <0> d           2.039  -0.505  -1.467  0.00  0.00    -0.267 OA
ENDBRANCH   4   9
BRANCH   7  18
ATOM     18  O1  <0> d           5.030   3.409   0.693  0.00  0.00    -0.360 OA
ATOM     19  H6  <0> d           5.551   3.464  -0.119  0.00  0.00     0.217 HD
ENDBRANCH   7  18
TORSDOF 2
