REMARK  3 active torsions:
REMARK  status: ('A' for Active; 'I' for Inactive)
REMARK    1  A    between atoms: C3_4  and  S1_7 
REMARK    2  A    between atoms: S1_7  and  N3_10 
REMARK    3  A    between atoms: N3_10  and  C5_11 
ROOT
ATOM      1  C5  <0> d          -1.830  -5.072  -2.707  0.00  0.00     0.093 A 
ATOM      2  C6  <0> d          -0.805  -5.838  -3.246  0.00  0.00     0.034 A 
ATOM      3  C7  <0> d          -1.100  -6.949  -4.012  0.00  0.00     0.005 A 
ATOM      4  C8  <0> d          -2.416  -7.309  -4.249  0.00  0.00     0.044 A 
ATOM      5  C9  <0> d          -3.450  -6.561  -3.721  0.00  0.00     0.139 A 
ATOM      6  C10 <0> d          -3.166  -5.435  -2.939  0.00  0.00     0.112 A 
ATOM      7  C11 <0> d          -4.231  -4.656  -2.383  0.00  0.00     0.105 C 
ATOM      8  N4  <0> d          -5.077  -4.038  -1.942  0.00  0.00    -0.191 NA
ATOM      9  F1  <0> d          -4.731  -6.916  -3.956  0.00  0.00    -0.204 F 
ENDROOT
BRANCH   1  10
ATOM     10  N3  <0> d          -1.534  -3.954  -1.936  0.00  0.00    -0.157 NA
BRANCH  10  11
ATOM     11  S1  <0> d           0.044  -3.529  -1.664  0.00  0.00     0.300 S 
ATOM     12  O1  <0> d           0.583  -3.145  -2.921  0.00  0.00    -0.197 OA
ATOM     13  O2  <0> d           0.613  -4.565  -0.875  0.00  0.00    -0.197 OA
BRANCH  11  14
ATOM     14  C3  <0> d           0.028  -2.081  -0.660  0.00  0.00     0.167 A 
ATOM     15  C2  <0> d           0.008  -0.810  -1.104  0.00  0.00     0.135 A 
ATOM     16  N1  <0> d           0.002  -0.004   0.002  0.00  0.00    -0.354 N 
ATOM     17  C1  <0> d          -0.018   1.461   0.010  0.00  0.00     0.156 C 
ATOM     18  C4  <0> d           0.024  -0.811   1.085  0.00  0.00     0.183 A 
ATOM     19  N2  <0> d           0.034  -2.052   0.681  0.00  0.00    -0.340 N 
ATOM     20  H9  <0> d           0.048  -2.831   1.260  0.00  0.00     0.167 HD
ENDBRANCH  11  14
ENDBRANCH  10  11
ENDBRANCH   1  10
TORSDOF 3
