REMARK  4 active torsions:
REMARK  status: ('A' for Active; 'I' for Inactive)
REMARK    1  A    between atoms: C4_4  and  O1_7 
REMARK    2  A    between atoms: O1_7  and  S1_8 
REMARK    3  A    between atoms: S1_8  and  P1_11 
REMARK    4  A    between atoms: C11_19  and  O6_26 
ROOT
ATOM      1  P1  <0> d           3.000  -2.544   2.135  0.00  0.00     0.454 P 
ATOM      2  O4  <0> d           3.152  -3.748   1.288  0.00  0.00    -0.245 OA
ATOM      3  N1  <0> d           3.464  -2.869   3.686  0.00  0.00    -0.162 N 
ATOM      4  N2  <0> d           2.583  -3.559   4.490  0.00  0.00     0.019 N 
ATOM      5  C7  <0> d           3.199  -3.604   5.825  0.00  0.00     0.272 C 
ATOM      6  C8  <0> d           2.319  -4.365   6.808  0.00  0.00     0.045 C 
ATOM      7  C9  <0> d           2.118  -5.784   6.346  0.00  0.00     0.007 C 
ATOM      8  C10 <0> d           1.066  -6.473   6.782  0.00  0.00     0.063 C 
ATOM      9  C11 <0> d           0.121  -5.837   7.721  0.00  0.00     0.083 C 
ATOM     10  C12 <0> d           0.056  -4.506   7.794  0.00  0.00     0.017 C 
ATOM     11  C13 <0> d           0.954  -3.677   6.908  0.00  0.00     0.022 C 
ATOM     12  C14 <0> d           0.344  -3.599   5.508  0.00  0.00     0.047 C 
ATOM     13  C15 <0> d           1.292  -2.870   4.547  0.00  0.00     0.238 C 
ATOM     14  C16 <0> d           0.607  -2.843   3.174  0.00  0.00     0.214 C 
ATOM     15  O5  <0> d           1.431  -2.123   2.240  0.00  0.00    -0.303 OA
ATOM     16 Cl1  <0> d           0.807  -8.105   6.250  0.00  0.00    -0.082 Cl
ATOM     17  H9  <0> d           4.329  -2.583   4.020  0.00  0.00     0.198 HD
ATOM     18  H19 <0> d           2.454  -4.493   4.130  0.00  0.00     0.309 HD
ENDROOT
BRANCH   1  19
ATOM     19  S1  <0> d           4.140  -0.941   1.346  0.00  0.00     0.372 S 
ATOM     20  O2  <0> d           5.458  -1.436   1.154  0.00  0.00    -0.186 OA
ATOM     21  O3  <0> d           3.863   0.192   2.158  0.00  0.00    -0.186 OA
BRANCH  19  22
ATOM     22  O1  <0> d           3.586  -0.632  -0.037  0.00  0.00    -0.225 OA
BRANCH  22  23
ATOM     23  C4  <0> d           2.399   0.030  -0.021  0.00  0.00     0.089 A 
ATOM     24  C3  <0> d           2.377   1.417  -0.013  0.00  0.00     0.038 A 
ATOM     25  C2  <0> d           1.170   2.088   0.002  0.00  0.00     0.003 A 
ATOM     26  C1  <0> d          -0.017   1.378   0.010  0.00  0.00     0.000 A 
ATOM     27  C6  <0> d           0.002  -0.004   0.002  0.00  0.00     0.003 A 
ATOM     28  C5  <0> d           1.207  -0.680  -0.013  0.00  0.00     0.038 A 
ENDBRANCH  22  23
ENDBRANCH  19  22
ENDBRANCH   1  19
BRANCH   9  29
ATOM     29  O6  <0> d          -0.679  -6.604   8.508  0.00  0.00    -0.359 OA
ATOM     30  H18 <0> d          -0.559  -7.555   8.383  0.00  0.00     0.217 HD
ENDBRANCH   9  29
TORSDOF 4
