REMARK  2 active torsions:
REMARK  status: ('A' for Active; 'I' for Inactive)
REMARK    1  A    between atoms: C5_5  and  C7_8 
REMARK       I    between atoms: C7_8  and  N2_10 
REMARK    2  A    between atoms: N2_10  and  C8_11 
ROOT
ATOM      1  C8  <0> d           0.333  -4.260   3.749  0.00  0.00     0.088 C 
ATOM      2  C9  <0> d          -1.052  -4.818   4.088  0.00  0.00     0.052 C 
ATOM      3  C10 <0> d          -0.904  -6.015   5.029  0.00  0.00     0.235 C 
ATOM      4  N3  <0> d          -0.270  -5.583   6.281  0.00  0.00    -0.066 N 
ATOM      5  C11 <0> d           1.063  -5.044   5.999  0.00  0.00     0.127 C 
ATOM      6  C12 <0> d           1.039  -3.850   5.046  0.00  0.00     0.064 C 
ATOM      7  C13 <0> d           1.906  -4.804   7.258  0.00  0.00     0.039 C 
ATOM      8  C14 <0> d           2.405  -6.250   7.102  0.00  0.00     0.005 C 
ATOM      9  C15 <0> d           2.086  -6.117   5.603  0.00  0.00     0.039 C 
ATOM     10  H15 <0> d          -0.836  -4.870   6.716  0.00  0.00     0.278 HD
ATOM     11  H24 <0> d          -0.188  -6.372   6.905  0.00  0.00     0.278 HD
ENDROOT
BRANCH   1  12
ATOM     12  N2  <0> d           0.191  -3.091   2.878  0.00  0.00    -0.351 N 
ATOM     13  C7  <0> d           0.078  -3.253   1.545  0.00  0.00     0.268 C 
ATOM     14  O1  <0> d           0.001  -4.372   1.073  0.00  0.00    -0.266 OA
ATOM     15  H10 <0> d           0.178  -2.199   3.261  0.00  0.00     0.163 HD
BRANCH  13  16
ATOM     16  C5  <0> d           0.047  -2.082   0.663  0.00  0.00     0.102 A 
ATOM     17  C4  <0> d           0.028  -0.762   1.062  0.00  0.00     0.037 A 
ATOM     18  C3  <0> d           0.003   0.017  -0.099  0.00  0.00     0.027 A 
ATOM     19  C2  <0> d           0.006  -0.821  -1.163  0.00  0.00     0.008 A 
ATOM     20  C1  <0> d          -0.017  -0.402  -2.610  0.00  0.00     0.068 C 
ATOM     21  N1  <0> d           0.028  -2.100  -0.713  0.00  0.00    -0.351 N 
ATOM     22  C6  <0> d           0.035  -3.301  -1.552  0.00  0.00     0.156 C 
ENDBRANCH  13  16
ENDBRANCH   1  12
TORSDOF 2
