REMARK  4 active torsions:
REMARK  status: ('A' for Active; 'I' for Inactive)
REMARK    1  A    between atoms: C6_6  and  O1_7 
REMARK    2  A    between atoms: C10_11  and  N1_12 
REMARK    3  A    between atoms: N1_12  and  C11_13 
REMARK    4  A    between atoms: C11_13  and  C12_14 
ROOT
ATOM      1  C1  <0> d           0.032   1.210  -0.222  0.00  0.00     0.037 A 
ATOM      2  C2  <0> d           1.183   1.966  -0.151  0.00  0.00     0.012 A 
ATOM      3  C3  <0> d           2.429   1.355  -0.095  0.00  0.00    -0.021 A 
ATOM      4  C4  <0> d           2.518  -0.020  -0.113  0.00  0.00    -0.047 A 
ATOM      5  C5  <0> d           1.361  -0.784  -0.180  0.00  0.00     0.044 A 
ATOM      6  C6  <0> d           0.119  -0.174  -0.235  0.00  0.00     0.066 A 
ATOM      7  C7  <0> d           3.836  -0.748  -0.070  0.00  0.00     0.039 C 
ATOM      8  C8  <0> d           4.945   0.177   0.428  0.00  0.00     0.007 C 
ATOM      9  C9  <0> d           4.902   1.470  -0.395  0.00  0.00     0.038 C 
ATOM     10  C10 <0> d           3.642   2.244  -0.011  0.00  0.00     0.219 C 
ENDROOT
BRANCH  10  11
ATOM     11  N1  <0> d           3.474   3.380  -0.927  0.00  0.00    -0.064 N 
ATOM     12  H13 <0> d           3.460   3.046  -1.879  0.00  0.00     0.278 HD
ATOM     13  H22 <0> d           2.605   3.851  -0.723  0.00  0.00     0.278 HD
BRANCH  11  14
ATOM     14  C11 <0> d           4.591   4.318  -0.754  0.00  0.00     0.267 C 
BRANCH  14  15
ATOM     15  C12 <0> d           4.351   5.562  -1.612  0.00  0.00     0.170 C 
ATOM     16  O3  <0> d           4.259   5.183  -2.989  0.00  0.00    -0.380 OA
ATOM     17  C15 <0> d           4.083   6.291  -3.877  0.00  0.00     0.194 C 
ATOM     18  C14 <0> d           5.249   7.268  -3.700  0.00  0.00     0.193 C 
ATOM     19  O2  <0> d           5.339   7.647  -2.323  0.00  0.00    -0.386 OA
ATOM     20  C13 <0> d           5.516   6.539  -1.435  0.00  0.00     0.201 C 
ENDBRANCH  14  15
ENDBRANCH  11  14
ENDBRANCH  10  11
BRANCH   6  21
ATOM     21  O1  <0> d          -1.010  -0.929  -0.302  0.00  0.00    -0.361 OA
ATOM     22  H6  <0> d          -1.292  -1.136  -1.203  0.00  0.00     0.217 HD
ENDBRANCH   6  21
TORSDOF 4
