REMARK  5 active torsions:
REMARK  status: ('A' for Active; 'I' for Inactive)
REMARK    1  A    between atoms: N2_6  and  C5_7 
REMARK    2  A    between atoms: C5_7  and  C7_9 
REMARK       I    between atoms: C7_9  and  N3_11 
REMARK    3  A    between atoms: C8_12  and  C12_19 
REMARK    4  A    between atoms: C8_12  and  O2_22 
REMARK    5  A    between atoms: C10_14  and  C11_16 
ROOT
ATOM      1  C7  <0> d           2.544   3.433   1.227  0.00  0.00     0.267 C 
ATOM      2  O1  <0> d           2.755   2.539   2.018  0.00  0.00    -0.269 OA
ATOM      3  N3  <0> d           3.063   4.659   1.442  0.00  0.00    -0.194 N 
ATOM      4  C8  <0> d           3.897   5.048   2.590  0.00  0.00     0.222 A 
ATOM      5  C9  <0> d           4.198   6.537   2.321  0.00  0.00     0.131 A 
ATOM      6  C10 <0> d           3.480   6.820   1.020  0.00  0.00     0.101 A 
ATOM      7  N4  <0> d           2.902   5.766   0.611  0.00  0.00    -0.170 NA
ENDROOT
BRANCH   1   8
ATOM      8  C5  <0> d           1.704   3.175   0.003  0.00  0.00     0.200 C 
ATOM      9  C6  <0> d           2.533   3.451  -1.253  0.00  0.00     0.044 C 
BRANCH   8  10
ATOM     10  N2  <0> d           1.263   1.778  -0.001  0.00  0.00    -0.261 N 
ATOM     11  C2  <0> d          -0.016   1.349   0.009  0.00  0.00     0.029 A 
ATOM     12  C1  <0> d          -1.245   2.221   0.020  0.00  0.00     0.070 C 
ATOM     13  C3  <0> d           0.002  -0.004   0.002  0.00  0.00     0.047 A 
ATOM     14  C4  <0> d           1.339  -0.416  -0.013  0.00  0.00     0.141 A 
ATOM     15  N1  <0> d           2.095   0.651  -0.015  0.00  0.00    -0.184 NA
ENDBRANCH   8  10
ENDBRANCH   1   8
BRANCH   4  16
ATOM     16  C12 <0> d           3.126   4.878   3.901  0.00  0.00     0.410 C 
ATOM     17  F3  <0> d           2.777   3.534   4.065  0.00  0.00    -0.209 F 
ATOM     18  F4  <0> d           3.929   5.286   4.971  0.00  0.00    -0.209 F 
ENDBRANCH   4  16
BRANCH   4  19
ATOM     19  O2  <0> d           5.106   4.287   2.616  0.00  0.00    -0.364 OA
ATOM     20  H14 <0> d           4.969   3.334   2.711  0.00  0.00     0.213 HD
ENDBRANCH   4  19
BRANCH   6  21
ATOM     21  C11 <0> d           3.460   8.150   0.313  0.00  0.00     0.402 C 
ATOM     22  F1  <0> d           2.260   8.284  -0.394  0.00  0.00    -0.208 F 
ATOM     23  F2  <0> d           3.564   9.180   1.254  0.00  0.00    -0.208 F 
ENDBRANCH   6  21
TORSDOF 5
