REMARK  1 active torsions:
REMARK  status: ('A' for Active; 'I' for Inactive)
REMARK    1  A    between atoms: C5_5  and  C7_7 
ROOT
ATOM      1  C7  <0> d           1.254  -2.153  -0.023  0.00  0.00     0.039 C 
ATOM      2  C8  <0> d           0.099  -2.855   0.087  0.00  0.00     0.077 A 
ATOM      3  C9  <0> d          -1.294  -2.366   0.119  0.00  0.00     0.264 A 
ATOM      4  O1  <0> d          -1.554  -1.180   0.043  0.00  0.00    -0.267 OA
ATOM      5  N1  <0> d          -2.246  -3.276   0.235  0.00  0.00    -0.301 N 
ATOM      6  C10 <0> d          -1.929  -4.617   0.320  0.00  0.00     0.167 A 
ATOM      7  N2  <0> d          -2.737  -5.635   0.436  0.00  0.00    -0.278 NA
ATOM      8  S1  <0> d          -0.147  -4.619   0.224  0.00  0.00    -0.047 SA
ATOM      9  H6  <0> d          -3.175  -2.999   0.260  0.00  0.00     0.171 HD
ATOM     10  H7  <0> d          -2.378  -6.535   0.486  0.00  0.00     0.189 HD
ENDROOT
BRANCH   1  11
ATOM     11  C5  <0> d           1.232  -0.685   0.045  0.00  0.00     0.004 A 
ATOM     12  C4  <0> d           2.022   0.073  -0.829  0.00  0.00     0.126 A 
ATOM     13  C3  <0> d           1.994   1.453  -0.757  0.00  0.00     0.043 A 
ATOM     14  F1  <0> d           2.809  -0.542  -1.738  0.00  0.00    -0.205 F 
ATOM     15  C2  <0> d           1.188   2.083   0.173  0.00  0.00     0.003 A 
ATOM     16  C1  <0> d           0.404   1.340   1.040  0.00  0.00     0.001 A 
ATOM     17  C6  <0> d           0.420  -0.037   0.983  0.00  0.00     0.014 A 
ENDBRANCH   1  11
TORSDOF 1
