REMARK  5 active torsions:
REMARK  status: ('A' for Active; 'I' for Inactive)
REMARK    1  A    between atoms: C3_3  and  C5_6 
REMARK    2  A    between atoms: C5_6  and  N1_7 
REMARK    3  A    between atoms: C10_15  and  C12_19 
REMARK    4  A    between atoms: C10_15  and  N4_23 
REMARK    5  A    between atoms: N4_23  and  C13_24 
ROOT
ATOM      1  N1  <0> d           3.963   1.431   0.693  0.00  0.00    -0.277 N 
ATOM      2  C6  <0> d           4.296   2.370   1.650  0.00  0.00     0.151 A 
ATOM      3  C7  <0> d           4.688   1.912   2.916  0.00  0.00     0.089 A 
ATOM      4  C8  <0> d           4.734   0.581   3.182  0.00  0.00     0.196 A 
ATOM      5  O2  <0> d           5.111   0.143   4.401  0.00  0.00    -0.171 OA
ATOM      6  N2  <0> d           4.395  -0.315   2.200  0.00  0.00    -0.286 N 
ATOM      7  C9  <0> d           4.013   0.119   0.985  0.00  0.00     0.330 A 
ATOM      8  O3  <0> d           3.712  -0.692   0.131  0.00  0.00    -0.246 OA
ATOM      9  C10 <0> d           4.982   3.156   3.722  0.00  0.00     0.262 A 
ATOM     10  C11 <0> d           4.698   4.271   2.733  0.00  0.00     0.288 A 
ATOM     11  O4  <0> d           4.800   5.465   2.940  0.00  0.00    -0.268 OA
ATOM     12  N3  <0> d           4.320   3.699   1.603  0.00  0.00    -0.192 NA
ATOM     13  H6  <0> d           4.426  -1.267   2.384  0.00  0.00     0.172 HD
ENDROOT
BRANCH   9  14
ATOM     14  C12 <0> d           4.048   3.253   4.930  0.00  0.00     0.427 C 
ATOM     15  F1  <0> d           4.314   2.198   5.810  0.00  0.00    -0.167 F 
ATOM     16  F2  <0> d           4.258   4.471   5.585  0.00  0.00    -0.167 F 
ATOM     17  F3  <0> d           2.719   3.178   4.500  0.00  0.00    -0.167 F 
ENDBRANCH   9  14
BRANCH   9  18
ATOM     18  N4  <0> d           6.385   3.182   4.144  0.00  0.00    -0.190 N 
ATOM     19  H7  <0> d           6.606   3.276   5.084  0.00  0.00     0.180 HD
BRANCH  18  20
ATOM     20  C13 <0> d           7.393   3.072   3.203  0.00  0.00     0.723 A 
ATOM     21  N6  <0> d           8.652   2.992   3.609  0.00  0.00    -0.075 NA
ATOM     22  C16 <0> d           9.639   2.881   2.736  0.00  0.00     0.138 A 
ATOM     23  C15 <0> d           9.344   2.860   1.381  0.00  0.00     0.040 A 
ATOM     24  C14 <0> d           8.017   2.951   0.991  0.00  0.00     0.138 A 
ATOM     25  N5  <0> d           7.077   3.054   1.916  0.00  0.00    -0.075 NA
ENDBRANCH  18  20
ENDBRANCH   9  18
BRANCH   1  26
ATOM     26  C5  <0> d           3.548   1.866  -0.643  0.00  0.00     0.200 C 
BRANCH  26  27
ATOM     27  C3  <0> d           2.054   2.060  -0.666  0.00  0.00     0.070 A 
ATOM     28  C2  <0> d           1.405   3.203  -0.380  0.00  0.00     0.036 A 
ATOM     29  C1  <0> d           0.024   2.937  -0.527  0.00  0.00     0.027 A 
ATOM     30  C4  <0> d          -0.088   1.648  -0.894  0.00  0.00     0.142 A 
ATOM     31  O1  <0> d           1.145   1.121  -0.977  0.00  0.00    -0.325 OA
ENDBRANCH  26  27
ENDBRANCH   1  26
TORSDOF 5
