REMARK  3 active torsions:
REMARK  status: ('A' for Active; 'I' for Inactive)
REMARK    1  A    between atoms: C6_6  and  N1_7 
REMARK    2  A    between atoms: N1_7  and  C7_8 
REMARK    3  A    between atoms: C7_8  and  C8_9 
ROOT
ATOM      1  C1  <0> d          -0.017   1.386   0.010  0.00  0.00     0.032 A 
ATOM      2  C2  <0> d           1.167   2.097   0.002  0.00  0.00     0.042 A 
ATOM      3  C3  <0> d           2.379   1.426  -0.013  0.00  0.00     0.107 A 
ATOM      4  C4  <0> d           2.400   0.031  -0.021  0.00  0.00     0.073 A 
ATOM      5  C5  <0> d           1.213  -0.682  -0.013  0.00  0.00     0.061 A 
ATOM      6  C6  <0> d           0.002  -0.004   0.002  0.00  0.00     0.030 A 
ATOM      7  N2  <0> d           3.743  -0.347  -0.036  0.00  0.00    -0.300 N 
ATOM      8  H1  <0> d           4.083  -1.255  -0.044  0.00  0.00     0.171 HD
ATOM      9  C12 <0> d           4.481   0.780  -0.037  0.00  0.00     0.370 A 
ATOM     10  O2  <0> d           5.697   0.823  -0.049  0.00  0.00    -0.238 OA
ATOM     11  O3  <0> d           3.668   1.848  -0.023  0.00  0.00    -0.259 OA
ENDROOT
BRANCH   6  12
ATOM     12  N1  <0> d          -1.200  -0.720   0.010  0.00  0.00    -0.384 N 
ATOM     13  H5  <0> d          -1.187  -1.689   0.005  0.00  0.00     0.160 HD
BRANCH  12  14
ATOM     14  C7  <0> d          -2.478  -0.004   0.027  0.00  0.00     0.184 C 
BRANCH  14  15
ATOM     15  C8  <0> d          -3.610  -0.999   0.032  0.00  0.00     0.071 A 
ATOM     16  O1  <0> d          -4.212  -1.511  -1.054  0.00  0.00    -0.307 OA
ATOM     17  C11 <0> d          -5.174  -2.366  -0.672  0.00  0.00     0.117 A 
ATOM     18  C10 <0> d          -5.202  -2.401   0.673  0.00  0.00     0.046 A 
ATOM     19  I1  <0> d          -6.424  -3.456  -1.952  0.00  0.00    -0.016 I 
ATOM     20  C9  <0> d          -4.194  -1.519   1.127  0.00  0.00     0.038 A 
ENDBRANCH  14  15
ENDBRANCH  12  14
ENDBRANCH   6  12
TORSDOF 3
