REMARK  4 active torsions:
REMARK  status: ('A' for Active; 'I' for Inactive)
REMARK    1  A    between atoms: C5_5  and  S1_10 
REMARK    2  A    between atoms: S1_10  and  N1_13 
REMARK    3  A    between atoms: N1_13  and  C10_14 
REMARK    4  A    between atoms: C14_18  and  N2_19 
ROOT
ATOM      1  S1  <0> d           1.162  -4.912  -0.422  0.00  0.00     0.260 S 
ATOM      2  O1  <0> d           1.700  -5.185  -1.709  0.00  0.00    -0.200 OA
ATOM      3  O2  <0> d           1.832  -5.276   0.776  0.00  0.00    -0.200 OA
ENDROOT
BRANCH   1   4
ATOM      4  C5  <0> d           0.900  -3.172  -0.344  0.00  0.00     0.092 A 
ATOM      5  C4  <0> d           0.870  -2.425  -1.507  0.00  0.00    -0.032 A 
ATOM      6  C3  <0> d           0.664  -1.059  -1.446  0.00  0.00    -0.048 A 
ATOM      7  C15 <0> d           1.062  -3.099  -2.841  0.00  0.00     0.050 C 
ATOM      8  C2  <0> d           0.487  -0.441  -0.222  0.00  0.00    -0.049 A 
ATOM      9  C16 <0> d           0.631  -0.244  -2.713  0.00  0.00     0.049 C 
ATOM     10  C1  <0> d           0.262   1.048  -0.155  0.00  0.00     0.049 C 
ATOM     11  C7  <0> d           0.522  -1.187   0.941  0.00  0.00    -0.048 A 
ATOM     12  C6  <0> d           0.724  -2.553   0.879  0.00  0.00    -0.032 A 
ATOM     13  C8  <0> d           0.336  -0.512   2.275  0.00  0.00     0.049 C 
ATOM     14  C9  <0> d           0.757  -3.368   2.147  0.00  0.00     0.050 C 
ENDBRANCH   1   4
BRANCH   1  15
ATOM     15  N1  <0> d          -0.327  -5.635  -0.370  0.00  0.00    -0.309 N 
ATOM     16  H12 <0> d          -0.572  -6.187   0.389  0.00  0.00     0.172 HD
BRANCH  15  17
ATOM     17  C10 <0> d          -1.275  -5.439  -1.470  0.00  0.00     0.123 C 
ATOM     18  C14 <0> d          -1.981  -6.769  -1.829  0.00  0.00     0.206 C 
ATOM     19  C13 <0> d          -3.303  -6.327  -2.495  0.00  0.00     0.035 C 
ATOM     20  C12 <0> d          -3.599  -4.905  -1.986  0.00  0.00     0.004 C 
ATOM     21  C11 <0> d          -2.451  -4.532  -1.026  0.00  0.00     0.028 C 
BRANCH  18  22
ATOM     22  N2  <0> d          -1.163  -7.548  -2.769  0.00  0.00    -0.073 N 
ATOM     23  H19 <0> d          -0.270  -7.754  -2.347  0.00  0.00     0.274 HD
ATOM     24  H20 <0> d          -1.636  -8.410  -2.993  0.00  0.00     0.274 HD
ATOM     25  H27 <0> d          -1.020  -7.013  -3.613  0.00  0.00     0.274 HD
ENDBRANCH  18  22
ENDBRANCH  15  17
ENDBRANCH   1  15
TORSDOF 4
