REMARK  4 active torsions:
REMARK  status: ('A' for Active; 'I' for Inactive)
REMARK    1  A    between atoms: N1_4  and  C6_8 
REMARK    2  A    between atoms: C6_8  and  C7_9 
REMARK    3  A    between atoms: C10_12  and  C11_14 
REMARK       I    between atoms: C11_14  and  N2_16 
REMARK    4  A    between atoms: N2_16  and  C12_17 
ROOT
ATOM      1  C11 <0> d           5.867  -0.058   4.418  0.00  0.00     0.275 C 
ATOM      2  O3  <0> d           5.985  -0.649   5.476  0.00  0.00    -0.265 OA
ATOM      3  N2  <0> d           6.453   1.144   4.249  0.00  0.00    -0.349 N 
ATOM      4  H11 <0> d           6.359   1.615   3.407  0.00  0.00     0.163 HD
ENDROOT
BRANCH   1   5
ATOM      5  C10 <0> d           5.087  -0.653   3.328  0.00  0.00     0.143 A 
ATOM      6  C9  <0> d           4.445  -1.858   3.366  0.00  0.00     0.045 A 
ATOM      7  C8  <0> d           3.830  -2.027   2.116  0.00  0.00     0.037 A 
ATOM      8  C7  <0> d           4.121  -0.932   1.379  0.00  0.00     0.072 A 
ATOM      9  O2  <0> d           4.882  -0.109   2.111  0.00  0.00    -0.308 OA
BRANCH   8  10
ATOM     10  C6  <0> d           3.668  -0.681  -0.037  0.00  0.00     0.196 C 
BRANCH  10  11
ATOM     11  N1  <0> d           2.385   0.027  -0.021  0.00  0.00    -0.319 N 
ATOM     12  C3  <0> d           2.369   1.385  -0.013  0.00  0.00     0.094 A 
ATOM     13  C2  <0> d           1.197   2.062   0.002  0.00  0.00     0.017 A 
ATOM     14  C1  <0> d          -0.016   1.360   0.009  0.00  0.00     0.007 A 
ATOM     15  C5  <0> d           0.002  -0.004   0.002  0.00  0.00     0.074 A 
ATOM     16  C4  <0> d           1.237  -0.675  -0.014  0.00  0.00     0.247 A 
ATOM     17  O1  <0> d           1.268  -1.895  -0.021  0.00  0.00    -0.268 OA
ENDBRANCH  10  11
ENDBRANCH   8  10
ENDBRANCH   1   5
BRANCH   3  18
ATOM     18  C12 <0> d           7.232   1.739   5.338  0.00  0.00     0.117 C 
ATOM     19  C15 <0> d           7.340   3.264   5.167  0.00  0.00     0.210 C 
ATOM     20  N3  <0> d           8.544   3.587   5.979  0.00  0.00    -0.065 N 
ATOM     21  C16 <0> d           6.168   4.030   5.764  0.00  0.00     0.035 C 
ATOM     22  C14 <0> d           9.532   2.565   5.629  0.00  0.00     0.237 C 
ATOM     23  C19 <0> d           8.926   4.964   5.705  0.00  0.00     0.235 C 
ATOM     24  H24 <0> d           8.304   3.496   6.955  0.00  0.00     0.280 HD
ATOM     25  C13 <0> d           8.720   1.299   5.261  0.00  0.00     0.055 C 
ATOM     26  C18 <0> d           7.813   5.877   6.245  0.00  0.00     0.028 C 
ATOM     27  C17 <0> d           6.468   5.529   5.607  0.00  0.00     0.004 C 
ENDBRANCH   3  18
TORSDOF 4
