REMARK  7 active torsions:
REMARK  status: ('A' for Active; 'I' for Inactive)
REMARK    1  A    between atoms: N1_2  and  C3_4 
REMARK    2  A    between atoms: C3_4  and  C4_5 
REMARK    3  A    between atoms: C3_4  and  C15_23 
REMARK    4  A    between atoms: C4_5  and  N2_6 
REMARK       I    between atoms: N2_6  and  C5_7 
REMARK    5  A    between atoms: C5_7  and  C6_9 
REMARK       I    between atoms: C6_9  and  N3_11 
REMARK    6  A    between atoms: N3_11  and  C7_12 
REMARK    7  A    between atoms: C10_15  and  N4_18 
ROOT
ATOM      1  N2  <0> d          -0.278  -2.800   0.861  0.00  0.00    -0.351 N 
ATOM      2  C5  <0> d          -0.073  -4.130   0.929  0.00  0.00     0.309 C 
ATOM      3  O1  <0> d          -0.574  -4.864   0.103  0.00  0.00    -0.262 OA
ATOM      4  H10 <0> d           0.123  -2.213   1.521  0.00  0.00     0.162 HD
ENDROOT
BRANCH   2   5
ATOM      5  C6  <0> d           0.771  -4.700   2.021  0.00  0.00     0.313 C 
ATOM      6  O2  <0> d           1.273  -3.966   2.847  0.00  0.00    -0.262 OA
ATOM      7  N3  <0> d           0.976  -6.031   2.089  0.00  0.00    -0.319 N 
ATOM      8  H11 <0> d           0.646  -6.609   1.384  0.00  0.00     0.169 HD
BRANCH   7   9
ATOM      9  C7  <0> d           1.663  -6.577   3.176  0.00  0.00     0.035 A 
ATOM     10  C12 <0> d           1.524  -6.016   4.440  0.00  0.00     0.032 A 
ATOM     11  C11 <0> d           2.198  -6.560   5.514  0.00  0.00     0.036 A 
ATOM     12  C10 <0> d           3.025  -7.660   5.330  0.00  0.00     0.079 A 
ATOM     13  C9  <0> d           3.170  -8.217   4.067  0.00  0.00     0.036 A 
ATOM     14  C8  <0> d           2.491  -7.678   2.993  0.00  0.00     0.032 A 
BRANCH  12  15
ATOM     15  N4  <0> d           3.715  -8.208   6.421  0.00  0.00    -0.152 N 
ATOM     16  N6  <0> d           3.647  -7.765   7.627  0.00  0.00    -0.161 NA
ATOM     17  C14 <0> d           4.412  -8.508   8.394  0.00  0.00     0.162 A 
ATOM     18  C13 <0> d           4.982  -9.467   7.552  0.00  0.00     0.162 A 
ATOM     19  N5  <0> d           4.506  -9.220   6.352  0.00  0.00    -0.161 NA
ENDBRANCH  12  15
ENDBRANCH   7   9
ENDBRANCH   2   5
BRANCH   1  20
ATOM     20  C4  <0> d          -1.106  -2.240  -0.210  0.00  0.00     0.161 C 
BRANCH  20  21
ATOM     21  C3  <0> d          -1.280  -0.736   0.013  0.00  0.00     0.238 C 
BRANCH  21  22
ATOM     22  N1  <0> d          -2.085  -0.170  -1.077  0.00  0.00    -0.069 N 
ATOM     23  C1  <0> d          -2.167   1.288  -0.918  0.00  0.00     0.270 C 
ATOM     24  C2  <0> d          -1.456  -0.487  -2.366  0.00  0.00     0.270 C 
ATOM     25  H22 <0> d          -3.014  -0.564  -1.050  0.00  0.00     0.279 HD
ENDBRANCH  21  22
BRANCH  21  26
ATOM     26  C15 <0> d          -1.979  -0.501   1.328  0.00  0.00    -0.023 A 
ATOM     27  C20 <0> d          -1.247  -0.149   2.445  0.00  0.00     0.051 A 
ATOM     28  C19 <0> d          -1.890   0.073   3.652  0.00  0.00     0.117 A 
ATOM     29  C18 <0> d          -3.264  -0.070   3.739  0.00  0.00     0.042 A 
ATOM     30  F1  <0> d          -1.177   0.424   4.744  0.00  0.00    -0.206 F 
ATOM     31  C17 <0> d          -3.994  -0.429   2.621  0.00  0.00     0.004 A 
ATOM     32  C16 <0> d          -3.351  -0.644   1.416  0.00  0.00     0.009 A 
ENDBRANCH  21  26
ENDBRANCH  20  21
ENDBRANCH   1  20
TORSDOF 7
