REMARK  4 active torsions:
REMARK  status: ('A' for Active; 'I' for Inactive)
REMARK    1  A    between atoms: C3_3  and  N2_10 
REMARK    2  A    between atoms: C6_6  and  C7_7 
REMARK       I    between atoms: C7_7  and  N1_9 
REMARK       I    between atoms: N2_10  and  C8_11 
REMARK    3  A    between atoms: C8_11  and  C9_13 
REMARK    4  A    between atoms: C10_14  and  N4_25 
ROOT
ATOM      1  C9  <0> d           5.963   2.208   0.165  0.00  0.00     0.102 A 
ATOM      2  C10 <0> d           7.249   1.722   0.256  0.00  0.00     0.062 A 
ATOM      3  C11 <0> d           8.343   2.676   0.347  0.00  0.00     0.028 A 
ATOM      4  C12 <0> d           9.732   2.423   0.449  0.00  0.00     0.026 A 
ATOM      5  C13 <0> d          10.607   3.485   0.526  0.00  0.00    -0.032 A 
ATOM      6  C14 <0> d          10.127   4.787   0.504  0.00  0.00     0.042 A 
ATOM      7  N3  <0> d           8.829   5.016   0.409  0.00  0.00    -0.245 NA
ATOM      8  C15 <0> d           7.957   4.035   0.333  0.00  0.00     0.111 A 
ATOM      9  S1  <0> d           6.188   3.976   0.193  0.00  0.00    -0.062 SA
ATOM     10  C16 <0> d          11.285   5.758   0.602  0.00  0.00     0.060 C 
ATOM     11  C17 <0> d          12.472   4.922   1.125  0.00  0.00     0.011 C 
ATOM     12  C18 <0> d          12.117   3.501   0.639  0.00  0.00     0.041 C 
ENDROOT
BRANCH   1  13
ATOM     13  C8  <0> d           4.753   1.478   0.066  0.00  0.00     0.265 C 
ATOM     14  N2  <0> d           3.577   2.131  -0.021  0.00  0.00    -0.322 N 
ATOM     15  H7  <0> d           3.563   3.099  -0.083  0.00  0.00     0.169 HD
ATOM     16  O2  <0> d           4.775   0.261   0.060  0.00  0.00    -0.267 OA
BRANCH  14  17
ATOM     17  C3  <0> d           2.381   1.416  -0.022  0.00  0.00     0.035 A 
ATOM     18  C2  <0> d           1.254   1.948   0.597  0.00  0.00     0.030 A 
ATOM     19  C1  <0> d           0.071   1.244   0.598  0.00  0.00     0.019 A 
ATOM     20  C6  <0> d           0.003  -0.005  -0.024  0.00  0.00     0.032 A 
ATOM     21  C5  <0> d           1.137  -0.536  -0.646  0.00  0.00     0.019 A 
ATOM     22  C4  <0> d           2.317   0.172  -0.642  0.00  0.00     0.030 A 
BRANCH  20  23
ATOM     23  C7  <0> d          -1.264  -0.763  -0.025  0.00  0.00     0.249 C 
ATOM     24  O1  <0> d          -2.249  -0.300   0.515  0.00  0.00    -0.268 OA
ATOM     25  N1  <0> d          -1.328  -1.968  -0.626  0.00  0.00    -0.366 N 
ATOM     26  H5  <0> d          -0.542  -2.337  -1.057  0.00  0.00     0.159 HD
ATOM     27  H6  <0> d          -2.160  -2.466  -0.626  0.00  0.00     0.159 HD
ENDBRANCH  20  23
ENDBRANCH  14  17
ENDBRANCH   1  13
BRANCH   2  28
ATOM     28  N4  <0> d           7.494   0.356   0.260  0.00  0.00    -0.397 N 
ATOM     29  H15 <0> d           6.755  -0.270   0.198  0.00  0.00     0.156 HD
ATOM     30  H16 <0> d           8.404   0.026   0.325  0.00  0.00     0.156 HD
ENDBRANCH   2  28
TORSDOF 4
