REMARK  6 active torsions:
REMARK  status: ('A' for Active; 'I' for Inactive)
REMARK    1  A    between atoms: C5_5  and  C15_17 
REMARK    2  A    between atoms: C6_6  and  N1_8 
REMARK    3  A    between atoms: N1_8  and  C9_10 
REMARK    4  A    between atoms: C9_10  and  C10_11 
REMARK    5  A    between atoms: C10_11  and  N2_12 
REMARK    6  A    between atoms: C15_17  and  N3_18 
ROOT
ATOM      1  C1  <0> d           0.084   1.621  -0.044  0.00  0.00     0.048 C 
ATOM      2  C2  <0> d           0.058   0.117   0.029  0.00  0.00    -0.060 A 
ATOM      3  C3  <0> d           0.025  -0.629  -1.139  0.00  0.00     0.008 A 
ATOM      4  C4  <0> d          -0.000  -2.006  -1.085  0.00  0.00     0.018 A 
ATOM      5  C5  <0> d           0.009  -2.655   0.151  0.00  0.00     0.034 A 
ATOM      6  C6  <0> d           0.042  -1.898   1.331  0.00  0.00     0.044 A 
ATOM      7  C7  <0> d           0.072  -0.511   1.258  0.00  0.00     0.037 A 
ENDROOT
BRANCH   6   8
ATOM      8  N1  <0> d           0.051  -2.532   2.567  0.00  0.00    -0.383 N 
ATOM      9  C8  <0> d          -1.209  -2.966   3.177  0.00  0.00     0.150 C 
BRANCH   8  10
ATOM     10  C9  <0> d           1.319  -2.766   3.262  0.00  0.00     0.150 C 
BRANCH  10  11
ATOM     11  C10 <0> d           1.571  -1.634   4.259  0.00  0.00     0.254 C 
BRANCH  11  12
ATOM     12  N2  <0> d           2.844  -1.869   4.955  0.00  0.00    -0.070 N 
ATOM     13  C14 <0> d           3.045  -0.849   6.008  0.00  0.00     0.235 C 
ATOM     14  C13 <0> d           4.553  -0.541   6.056  0.00  0.00     0.029 C 
ATOM     15  C12 <0> d           5.180  -1.422   4.950  0.00  0.00     0.029 C 
ATOM     16  C11 <0> d           3.980  -1.708   4.013  0.00  0.00     0.235 C 
ATOM     17  H25 <0> d           2.854  -2.793   5.360  0.00  0.00     0.279 HD
ENDBRANCH  11  12
ENDBRANCH  10  11
ENDBRANCH   8  10
ENDBRANCH   6   8
BRANCH   5  18
ATOM     18  C15 <0> d          -0.018  -4.130   0.215  0.00  0.00     0.104 C 
ATOM     19  N4  <0> d           0.946  -4.786   0.860  0.00  0.00    -0.385 N 
ATOM     20  H23 <0> d           1.629  -4.294   1.342  0.00  0.00     0.157 HD
ATOM     21  H24 <0> d           0.964  -5.756   0.848  0.00  0.00     0.157 HD
BRANCH  18  22
ATOM     22  N3  <0> d          -1.006  -4.804  -0.372  0.00  0.00    -0.385 N 
ATOM     23  H22 <0> d          -1.746  -4.326  -0.778  0.00  0.00     0.157 HD
ATOM     24  H26 <0> d          -0.986  -5.774  -0.393  0.00  0.00     0.157 HD
ENDBRANCH  18  22
ENDBRANCH   5  18
TORSDOF 6
