REMARK  4 active torsions:
REMARK  status: ('A' for Active; 'I' for Inactive)
REMARK    1  A    between atoms: C4_4  and  N5_12 
REMARK    2  A    between atoms: C7_8  and  N4_11 
REMARK    3  A    between atoms: N5_12  and  N6_13 
REMARK    4  A    between atoms: C8_14  and  C9_15 
ROOT
ATOM      1  C1  <0> d          -0.018   1.503   0.010  0.00  0.00     0.049 C 
ATOM      2  C2  <0> d           0.002  -0.004   0.002  0.00  0.00    -0.044 C 
ATOM      3  C3  <0> d           0.007  -0.740  -1.151  0.00  0.00     0.057 C 
ATOM      4  C4  <0> d           0.089  -2.202  -1.071  0.00  0.00     0.119 C 
ATOM      5  N1  <0> d          -0.124  -2.877   0.029  0.00  0.00    -0.347 N 
ATOM      6  C5  <0> d          -0.561  -2.183   1.231  0.00  0.00     0.268 C 
ATOM      7  C6  <0> d           0.024  -0.774   1.181  0.00  0.00     0.048 C 
ATOM      8  C7  <0> d           0.518  -0.588   2.411  0.00  0.00     0.253 C 
ATOM      9  N2  <0> d           0.533  -1.757   3.078  0.00  0.00    -0.127 NA
ATOM     10  N3  <0> d          -0.033  -2.712   2.484  0.00  0.00    -0.160 NA
ATOM     11  H14 <0> d           0.009  -3.838   0.043  0.00  0.00     0.163 HD
ENDROOT
BRANCH   4  12
ATOM     12  N5  <0> d           0.409  -2.902  -2.217  0.00  0.00    -0.263 N 
ATOM     13  H8  <0> d           0.470  -3.870  -2.193  0.00  0.00     0.190 HD
BRANCH  12  14
ATOM     14  N6  <0> d           0.644  -2.215  -3.415  0.00  0.00    -0.185 NA
ATOM     15  C8  <0> d           0.944  -2.874  -4.493  0.00  0.00     0.150 C 
BRANCH  15  16
ATOM     16  C9  <0> d           1.192  -2.151  -5.754  0.00  0.00    -0.015 A 
ATOM     17  C14 <0> d           1.515  -2.856  -6.915  0.00  0.00     0.036 A 
ATOM     18  C13 <0> d           1.739  -2.172  -8.094  0.00  0.00     0.034 A 
ATOM     19  C12 <0> d           1.656  -0.791  -8.123  0.00  0.00     0.024 A 
ATOM     20 Cl1  <0> d           2.134  -3.047  -9.541  0.00  0.00    -0.084 Cl
ATOM     21  C11 <0> d           1.342  -0.086  -6.974  0.00  0.00     0.003 A 
ATOM     22  C10 <0> d           1.110  -0.756  -5.791  0.00  0.00     0.013 A 
ENDBRANCH  15  16
ENDBRANCH  12  14
ENDBRANCH   4  12
BRANCH   8  23
ATOM     23  N4  <0> d           0.953   0.637   2.925  0.00  0.00    -0.030 N 
ATOM     24  H6  <0> d           0.182   1.107   3.375  0.00  0.00     0.283 HD
ATOM     25  H7  <0> d           1.688   0.478   3.598  0.00  0.00     0.283 HD
ATOM     26  H15 <0> d           1.305   1.212   2.174  0.00  0.00     0.283 HD
ENDBRANCH   8  23
TORSDOF 4
