REMARK  3 active torsions:
REMARK  status: ('A' for Active; 'I' for Inactive)
REMARK    1  A    between atoms: C7_7  and  N1_8 
REMARK    2  A    between atoms: C8_9  and  N3_16 
REMARK       I    between atoms: N3_16  and  C13_17 
REMARK    3  A    between atoms: C13_17  and  C14_19 
ROOT
ATOM      1  N1  <0> d           0.375   0.154   2.340  0.00  0.00    -0.216 N 
ATOM      2  C8  <0> d           0.359  -0.367   3.592  0.00  0.00     0.141 A 
ATOM      3  C9  <0> d           0.109   0.665   4.468  0.00  0.00     0.024 A 
ATOM      4  C10 <0> d          -0.028   1.827   3.727  0.00  0.00     0.075 A 
ATOM      5  N2  <0> d           0.136   1.525   2.447  0.00  0.00    -0.169 NA
ATOM      6  C11 <0> d          -0.313   3.110   4.506  0.00  0.00     0.136 C 
ATOM      7  S1  <0> d          -0.828   2.449   6.144  0.00  0.00    -0.158 SA
ATOM      8  C12 <0> d          -0.040   0.795   5.983  0.00  0.00     0.118 C 
ENDROOT
BRANCH   2   9
ATOM      9  N3  <0> d           0.560  -1.703   3.931  0.00  0.00    -0.305 N 
ATOM     10  C13 <0> d           1.053  -2.025   5.144  0.00  0.00     0.277 C 
ATOM     11  O1  <0> d           1.425  -1.149   5.900  0.00  0.00    -0.266 OA
ATOM     12  H12 <0> d           0.345  -2.402   3.294  0.00  0.00     0.170 HD
BRANCH  10  13
ATOM     13  C14 <0> d           1.140  -3.445   5.554  0.00  0.00     0.141 A 
ATOM     14  N5  <0> d           0.825  -4.409   4.694  0.00  0.00    -0.253 NA
ATOM     15  C17 <0> d           0.909  -5.672   5.062  0.00  0.00     0.136 A 
ATOM     16  C16 <0> d           1.315  -5.997   6.348  0.00  0.00     0.135 A 
ATOM     17  N4  <0> d           1.624  -5.043   7.208  0.00  0.00    -0.269 NA
ATOM     18  C15 <0> d           1.548  -3.775   6.847  0.00  0.00     0.153 A 
ENDBRANCH  10  13
ENDBRANCH   2   9
BRANCH   1  19
ATOM     19  C7  <0> d           0.597  -0.557   1.153  0.00  0.00     0.066 A 
ATOM     20  C2  <0> d          -0.245  -0.372   0.064  0.00  0.00    -0.033 A 
ATOM     21  C1  <0> d          -1.398   0.594   0.158  0.00  0.00     0.050 C 
ATOM     22  C3  <0> d          -0.020  -1.069  -1.107  0.00  0.00     0.009 A 
ATOM     23  C4  <0> d           1.038  -1.955  -1.194  0.00  0.00     0.001 A 
ATOM     24  C5  <0> d           1.874  -2.146  -0.109  0.00  0.00     0.002 A 
ATOM     25  C6  <0> d           1.655  -1.452   1.065  0.00  0.00     0.032 A 
ENDBRANCH   1  19
TORSDOF 3
