REMARK  3 active torsions:
REMARK  status: ('A' for Active; 'I' for Inactive)
REMARK    1  A    between atoms: C4_4  and  C10_10 
REMARK    2  A    between atoms: C4_4  and  N1_13 
REMARK    3  A    between atoms: N1_13  and  C11_14 
ROOT
ATOM      1  C1  <0> d          -0.098   0.448  -3.299  0.00  0.00     0.010 C 
ATOM      2  C2  <0> d           0.006  -0.632  -2.220  0.00  0.00    -0.015 C 
ATOM      3  C3  <0> d          -1.386  -1.196  -1.926  0.00  0.00     0.055 C 
ATOM      4  C4  <0> d          -1.282  -2.275  -0.847  0.00  0.00     0.214 C 
ATOM      5  C5  <0> d          -0.699  -1.665   0.430  0.00  0.00     0.059 C 
ATOM      6  C6  <0> d           0.693  -1.101   0.136  0.00  0.00    -0.045 C 
ATOM      7  C7  <0> d           0.589  -0.022  -0.943  0.00  0.00     0.013 C 
ATOM      8  C8  <0> d           1.276  -0.491   1.413  0.00  0.00     0.015 C 
ATOM      9  C9  <0> d           1.606  -2.227  -0.354  0.00  0.00     0.015 C 
ENDROOT
BRANCH   4  10
ATOM     10  C10 <0> d          -2.652  -2.830  -0.557  0.00  0.00     0.210 C 
ATOM     11  O1  <0> d          -3.135  -3.676  -1.291  0.00  0.00    -0.646 OA
ATOM     12  O2  <0> d          -3.279  -2.434   0.411  0.00  0.00    -0.646 OA
ENDBRANCH   4  10
BRANCH   4  13
ATOM     13  N1  <0> d          -0.405  -3.355  -1.318  0.00  0.00    -0.047 N 
ATOM     14  H17 <0> d          -0.706  -3.658  -2.232  0.00  0.00     0.279 HD
ATOM     15  H27 <0> d           0.545  -3.019  -1.370  0.00  0.00     0.279 HD
BRANCH  13  16
ATOM     16  C11 <0> d          -0.474  -4.485  -0.381  0.00  0.00     0.137 C 
ATOM     17  C14 <0> d           0.527  -5.566  -0.836  0.00  0.00     0.178 C 
ATOM     18  S1  <0> d           1.552  -5.850   0.666  0.00  0.00     0.146 S 
ATOM     19  C13 <0> d           0.417  -5.087   1.908  0.00  0.00     0.143 C 
ATOM     20  O3  <0> d           2.738  -5.072   0.577  0.00  0.00    -0.228 OA
ATOM     21  O4  <0> d           1.643  -7.246   0.913  0.00  0.00    -0.228 OA
ATOM     22  C12 <0> d          -0.210  -3.967   1.032  0.00  0.00     0.054 C 
ATOM     23  C15 <0> d          -1.886  -5.074  -0.428  0.00  0.00     0.047 C 
ENDBRANCH  13  16
ENDBRANCH   4  13
TORSDOF 3
