REMARK  5 active torsions:
REMARK  status: ('A' for Active; 'I' for Inactive)
REMARK    1  A    between atoms: N2_5  and  C6_8 
REMARK    2  A    between atoms: C6_8  and  C7_9 
REMARK    3  A    between atoms: C7_9  and  C8_10 
REMARK    4  A    between atoms: C10_13  and  C11_15 
REMARK    5  A    between atoms: C11_15  and  O1_16 
ROOT
ATOM      1  C6  <0> d           1.453  -3.974  -0.034  0.00  0.00     0.279 C 
ENDROOT
BRANCH   1   2
ATOM      2  N2  <0> d           1.378  -2.507  -0.025  0.00  0.00     0.092 N 
ATOM      3  C3  <0> d           0.693  -2.008  -1.226  0.00  0.00     0.300 C 
ATOM      4  C2  <0> d           0.688  -0.477  -1.207  0.00  0.00     0.264 C 
ATOM      5  N1  <0> d           0.002  -0.004   0.002  0.00  0.00    -0.072 N 
ATOM      6  C1  <0> d          -0.018   1.465   0.010  0.00  0.00     0.269 C 
ATOM      7  C5  <0> d           0.713  -0.490   1.192  0.00  0.00     0.264 C 
ATOM      8  H20 <0> d          -0.945  -0.353   0.010  0.00  0.00     0.279 HD
ATOM      9  C4  <0> d           0.717  -2.021   1.194  0.00  0.00     0.300 C 
ENDBRANCH   1   2
BRANCH   1  10
ATOM     10  C7  <0> d           2.381  -4.444   1.088  0.00  0.00     0.097 C 
BRANCH  10  11
ATOM     11  C8  <0> d           2.458  -5.949   1.080  0.00  0.00     0.076 A 
ATOM     12  S1  <0> d           1.484  -7.051   1.898  0.00  0.00    -0.076 SA
ATOM     13  C10 <0> d           2.267  -8.547   1.320  0.00  0.00     0.025 A 
ATOM     14  C9  <0> d           3.243  -8.030   0.530  0.00  0.00     0.134 A 
ATOM     15  N3  <0> d           3.303  -6.717   0.437  0.00  0.00    -0.257 NA
BRANCH  13  16
ATOM     16  C11 <0> d           1.940  -9.986   1.628  0.00  0.00     0.211 C 
BRANCH  16  17
ATOM     17  O1  <0> d           2.672 -10.405   2.782  0.00  0.00    -0.396 OA
ATOM     18  H19 <0> d           2.510 -11.323   3.038  0.00  0.00     0.209 HD
ENDBRANCH  16  17
ENDBRANCH  13  16
ENDBRANCH  10  11
ENDBRANCH   1  10
TORSDOF 5
