REMARK  2 active torsions:
REMARK  status: ('A' for Active; 'I' for Inactive)
REMARK    1  A    between atoms: C5_7  and  C14_21 
REMARK    2  A    between atoms: C6_8  and  C7_10 
ROOT
ATOM      1  C1  <0> d           0.561   1.679   0.365  0.00  0.00     0.069 C 
ATOM      2  C2  <0> d           0.456   0.185   0.194  0.00  0.00     0.022 A 
ATOM      3  C3  <0> d           0.590  -0.350  -1.021  0.00  0.00     0.078 A 
ATOM      4  S1  <0> d           0.387  -2.091  -0.678  0.00  0.00    -0.061 SA
ATOM      5  C4  <0> d           0.138  -1.956   1.078  0.00  0.00     0.178 A 
ATOM      6  N1  <0> d           0.229  -0.610   1.292  0.00  0.00    -0.289 N 
ATOM      7  C5  <0> d           0.043  -0.449   2.678  0.00  0.00     0.109 A 
ATOM      8  C6  <0> d          -0.144  -1.729   3.208  0.00  0.00     0.100 A 
ATOM      9  N2  <0> d          -0.085  -2.598   2.197  0.00  0.00    -0.221 NA
ENDROOT
BRANCH   8  10
ATOM     10  C7  <0> d          -0.378  -2.059   4.632  0.00  0.00    -0.002 A 
ATOM     11  C12 <0> d           0.309  -3.119   5.223  0.00  0.00     0.053 A 
ATOM     12  C11 <0> d           0.091  -3.421   6.555  0.00  0.00     0.108 A 
ATOM     13  C10 <0> d          -0.824  -2.671   7.298  0.00  0.00     0.071 A 
ATOM     14  O1  <0> d           0.602  -4.366   7.383  0.00  0.00    -0.259 OA
ATOM     15  C9  <0> d          -1.511  -1.621   6.706  0.00  0.00     0.033 A 
ATOM     16  N3  <0> d          -0.828  -3.209   8.583  0.00  0.00    -0.300 N 
ATOM     17  C8  <0> d          -1.292  -1.314   5.381  0.00  0.00     0.016 A 
ATOM     18  C13 <0> d           0.047  -4.234   8.598  0.00  0.00     0.370 A 
ATOM     19  H1  <0> d          -1.364  -2.902   9.331  0.00  0.00     0.171 HD
ATOM     20  O2  <0> d           0.295  -4.931   9.562  0.00  0.00    -0.238 OA
ENDBRANCH   8  10
BRANCH   7  21
ATOM     21  C14 <0> d           0.047   0.757   3.388  0.00  0.00     0.291 C 
ATOM     22  O3  <0> d          -0.025   0.749   4.602  0.00  0.00    -0.300 OA
ENDBRANCH   7  21
TORSDOF 2
