REMARK  6 active torsions:
REMARK  status: ('A' for Active; 'I' for Inactive)
REMARK    1  A    between atoms: C6_6  and  C8_8 
REMARK    2  A    between atoms: C8_8  and  S1_9 
REMARK    3  A    between atoms: S1_9  and  C9_10 
REMARK    4  A    between atoms: C16_22  and  C17_23 
REMARK    5  A    between atoms: C20_26  and  O4_31 
REMARK    6  A    between atoms: C21_27  and  O3_29 
ROOT
ATOM      1  C9  <0> d          -2.404   5.261   0.401  0.00  0.00     0.173 A 
ATOM      2  N1  <0> d          -1.359   5.969   0.025  0.00  0.00    -0.185 NA
ATOM      3  C10 <0> d          -0.223   5.369  -0.364  0.00  0.00     0.280 A 
ATOM      4  O1  <0> d           0.740   6.038  -0.710  0.00  0.00    -0.265 OA
ATOM      5  C11 <0> d          -0.149   3.961  -0.370  0.00  0.00     0.065 A 
ATOM      6  C12 <0> d          -1.234   3.238   0.020  0.00  0.00     0.124 A 
ATOM      7  N2  <0> d          -2.370   3.898   0.407  0.00  0.00    -0.316 N 
ATOM      8  C13 <0> d          -3.550   3.139   0.830  0.00  0.00     0.160 C 
ATOM      9  N3  <0> d          -1.192   1.860   0.018  0.00  0.00    -0.312 N 
ATOM     10  C14 <0> d          -0.014   1.208   0.009  0.00  0.00     0.224 C 
ATOM     11  O2  <0> d           0.002  -0.004   0.002  0.00  0.00    -0.273 OA
ATOM     12  C15 <0> d           1.283   1.973   0.000  0.00  0.00     0.117 C 
ATOM     13  C16 <0> d           1.113   3.264  -0.803  0.00  0.00     0.070 C 
ATOM     14  H14 <0> d          -2.020   1.355   0.027  0.00  0.00     0.170 HD
ENDROOT
BRANCH  13  15
ATOM     15  C17 <0> d           1.027   2.935  -2.271  0.00  0.00    -0.046 A 
ATOM     16  C22 <0> d           1.956   3.458  -3.150  0.00  0.00     0.047 A 
ATOM     17  C21 <0> d           1.882   3.152  -4.500  0.00  0.00     0.101 A 
ATOM     18  C20 <0> d           0.863   2.328  -4.968  0.00  0.00     0.099 A 
ATOM     19  C19 <0> d          -0.068   1.811  -4.082  0.00  0.00     0.040 A 
ATOM     20  C18 <0> d           0.015   2.115  -2.736  0.00  0.00     0.011 A 
BRANCH  17  21
ATOM     21  O3  <0> d           2.798   3.662  -5.365  0.00  0.00    -0.353 OA
ATOM     22  C23 <0> d           3.816   4.501  -4.814  0.00  0.00     0.210 C 
ENDBRANCH  17  21
BRANCH  18  23
ATOM     23  O4  <0> d           0.782   2.030  -6.292  0.00  0.00    -0.358 OA
ATOM     24  H23 <0> d           0.245   2.651  -6.803  0.00  0.00     0.217 HD
ENDBRANCH  18  23
ENDBRANCH  13  15
BRANCH   1  25
ATOM     25  S1  <0> d          -3.875   6.090   0.903  0.00  0.00    -0.087 SA
BRANCH  25  26
ATOM     26  C8  <0> d          -3.352   7.811   0.696  0.00  0.00     0.121 C 
BRANCH  26  27
ATOM     27  C6  <0> d          -4.483   8.729   1.079  0.00  0.00    -0.048 A 
ATOM     28  C5  <0> d          -4.607   9.167   2.384  0.00  0.00     0.008 A 
ATOM     29  C4  <0> d          -5.645  10.010   2.735  0.00  0.00     0.001 A 
ATOM     30  C3  <0> d          -6.559  10.416   1.781  0.00  0.00     0.007 A 
ATOM     31  C2  <0> d          -6.435   9.978   0.475  0.00  0.00    -0.061 A 
ATOM     32  C1  <0> d          -7.431  10.421  -0.565  0.00  0.00     0.048 C 
ATOM     33  C7  <0> d          -5.394   9.140   0.123  0.00  0.00     0.014 A 
ENDBRANCH  26  27
ENDBRANCH  25  26
ENDBRANCH   1  25
TORSDOF 6
