REMARK  6 active torsions:
REMARK  status: ('A' for Active; 'I' for Inactive)
REMARK    1  A    between atoms: C2_2  and  N1_3 
REMARK    2  A    between atoms: N2_6  and  C7_9 
REMARK    3  A    between atoms: C7_9  and  C8_10 
REMARK    4  A    between atoms: C8_10  and  N3_11 
REMARK       I    between atoms: N3_11  and  C9_12 
REMARK    5  A    between atoms: C9_12  and  C10_14 
REMARK    6  A    between atoms: C18_24  and  C19_25 
ROOT
ATOM      1  C10 <0> d           1.349  -2.986   0.190  0.00  0.00     0.034 A 
ATOM      2  C11 <0> d           2.706  -2.652   0.250  0.00  0.00     0.018 A 
ATOM      3  C12 <0> d           3.076  -1.340   0.443  0.00  0.00     0.022 A 
ATOM      4  C13 <0> d           2.107  -0.353   0.578  0.00  0.00     0.032 A 
ATOM      5  C14 <0> d           0.745  -0.670   0.518  0.00  0.00     0.053 A 
ATOM      6  C15 <0> d           0.376  -1.996   0.324  0.00  0.00     0.048 A 
ATOM      7  N4  <0> d          -0.258   0.283   0.645  0.00  0.00    -0.321 N 
ATOM      8  C16 <0> d          -0.134   1.600   0.459  0.00  0.00     0.263 C 
ATOM      9  O2  <0> d          -1.119   2.312   0.512  0.00  0.00    -0.267 OA
ATOM     10  C17 <0> d           1.191   2.200   0.183  0.00  0.00     0.074 C 
ATOM     11  C18 <0> d           1.325   3.347  -0.523  0.00  0.00     0.036 C 
ATOM     12  S1  <0> d           2.593   1.328   0.831  0.00  0.00    -0.083 SA
ATOM     13  H22 <0> d          -1.276  -0.024   0.924  0.00  0.00     0.169 HD
ENDROOT
BRANCH   1  14
ATOM     14  C9  <0> d           0.946  -4.390  -0.017  0.00  0.00     0.251 C 
ATOM     15  N3  <0> d           1.885  -5.348  -0.146  0.00  0.00    -0.355 N 
ATOM     16  H18 <0> d           2.951  -5.084  -0.098  0.00  0.00     0.162 HD
ATOM     17  O1  <0> d          -0.233  -4.683  -0.070  0.00  0.00    -0.268 OA
BRANCH  15  18
ATOM     18  C8  <0> d           1.484  -6.743  -0.351  0.00  0.00     0.153 C 
BRANCH  18  19
ATOM     19  C7  <0> d           2.732  -7.620  -0.466  0.00  0.00     0.292 C 
BRANCH  19  20
ATOM     20  N2  <0> d           2.331  -9.018  -0.671  0.00  0.00     0.093 N 
ATOM     21  C4  <0> d           3.489  -9.853  -1.022  0.00  0.00     0.300 C 
ATOM     22  C3  <0> d           3.018 -11.281  -1.304  0.00  0.00     0.265 C 
ATOM     23  N1  <0> d           2.330 -11.811  -0.119  0.00  0.00    -0.068 N 
ATOM     24  C6  <0> d           1.173 -10.977   0.232  0.00  0.00     0.265 C 
ATOM     25  H28 <0> d           3.037 -11.784   0.724  0.00  0.00     0.280 HD
ATOM     26  C5  <0> d           1.643  -9.548   0.514  0.00  0.00     0.300 C 
BRANCH  23  27
ATOM     27  C2  <0> d           1.929 -13.209  -0.324  0.00  0.00     0.230 C 
ATOM     28  C1  <0> d           1.446 -13.801   1.002  0.00  0.00     0.034 C 
ENDBRANCH  23  27
ENDBRANCH  19  20
ENDBRANCH  18  19
ENDBRANCH  15  18
ENDBRANCH   1  14
BRANCH  11  29
ATOM     29  C19 <0> d           0.160   3.931  -1.206  0.00  0.00    -0.033 A 
ATOM     30  C24 <0> d          -0.805   3.100  -1.783  0.00  0.00     0.035 A 
ATOM     31  C23 <0> d          -1.898   3.656  -2.417  0.00  0.00     0.034 A 
ATOM     32  C22 <0> d          -2.034   5.032  -2.491  0.00  0.00     0.024 A 
ATOM     33 Cl1  <0> d          -3.102   2.628  -3.130  0.00  0.00    -0.084 Cl
ATOM     34  C21 <0> d          -1.079   5.861  -1.926  0.00  0.00     0.003 A 
ATOM     35  C20 <0> d           0.015   5.321  -1.285  0.00  0.00     0.011 A 
ENDBRANCH  11  29
TORSDOF 6
