REMARK  5 active torsions:
REMARK  status: ('A' for Active; 'I' for Inactive)
REMARK    1  A    between atoms: C5_9  and  C6_10 
REMARK       I    between atoms: C6_10  and  N3_12 
REMARK    2  A    between atoms: N3_12  and  C7_13 
REMARK    3  A    between atoms: C10_16  and  S1_19 
REMARK    4  A    between atoms: S1_19  and  N4_22 
REMARK    5  A    between atoms: N4_22  and  C13_23 
ROOT
ATOM      1  C7  <0> d           0.471  -0.135   4.855  0.00  0.00     0.035 A 
ATOM      2  C8  <0> d           0.347   1.246   4.937  0.00  0.00     0.031 A 
ATOM      3  C9  <0> d           0.353   1.867   6.171  0.00  0.00     0.027 A 
ATOM      4  C10 <0> d           0.482   1.115   7.324  0.00  0.00     0.082 A 
ATOM      5  C11 <0> d           0.606  -0.260   7.246  0.00  0.00     0.027 A 
ATOM      6  C12 <0> d           0.594  -0.888   6.016  0.00  0.00     0.031 A 
ENDROOT
BRANCH   1   7
ATOM      7  N3  <0> d           0.464  -0.766   3.607  0.00  0.00    -0.323 N 
ATOM      8  C6  <0> d          -0.171  -0.194   2.566  0.00  0.00     0.262 C 
ATOM      9  O2  <0> d          -0.630   0.927   2.675  0.00  0.00    -0.267 OA
ATOM     10  H5  <0> d           0.917  -1.616   3.492  0.00  0.00     0.169 HD
BRANCH   8  11
ATOM     11  C5  <0> d          -0.308  -0.925   1.294  0.00  0.00     0.109 A 
ATOM     12  C2  <0> d          -0.790  -0.299   0.146  0.00  0.00    -0.015 A 
ATOM     13  C1  <0> d          -1.188   1.154   0.165  0.00  0.00     0.052 C 
ATOM     14  C3  <0> d          -0.887  -1.058  -1.026  0.00  0.00     0.058 A 
ATOM     15  N1  <0> d          -0.540  -2.316  -1.033  0.00  0.00    -0.176 NA
ATOM     16  C17 <0> d          -1.398  -0.417  -2.291  0.00  0.00     0.072 C 
ATOM     17  N2  <0> d          -0.097  -2.925   0.005  0.00  0.00    -0.242 N 
ATOM     18  H1  <0> d           0.144  -3.862  -0.065  0.00  0.00     0.192 HD
ATOM     19  C4  <0> d           0.042  -2.301   1.191  0.00  0.00     0.277 A 
ATOM     20  O1  <0> d           0.465  -2.906   2.162  0.00  0.00    -0.266 OA
ENDBRANCH   8  11
ENDBRANCH   1   7
BRANCH   4  21
ATOM     21  S1  <0> d           0.489   1.910   8.896  0.00  0.00     0.298 S 
ATOM     22  O3  <0> d           1.169   1.039   9.789  0.00  0.00    -0.198 OA
ATOM     23  O4  <0> d           0.908   3.250   8.672  0.00  0.00    -0.198 OA
BRANCH  21  24
ATOM     24  N4  <0> d          -1.082   1.986   9.414  0.00  0.00     0.034 NA
BRANCH  24  25
ATOM     25  C13 <0> d          -1.381   2.567  10.634  0.00  0.00     0.759 A 
ATOM     26  N6  <0> d          -2.644   2.620  11.033  0.00  0.00    -0.073 NA
ATOM     27  C16 <0> d          -2.963   3.164  12.195  0.00  0.00     0.138 A 
ATOM     28  C15 <0> d          -1.961   3.692  12.993  0.00  0.00     0.040 A 
ATOM     29  C14 <0> d          -0.651   3.626  12.543  0.00  0.00     0.138 A 
ATOM     30  N5  <0> d          -0.399   3.063  11.372  0.00  0.00    -0.073 NA
ENDBRANCH  24  25
ENDBRANCH  21  24
ENDBRANCH   4  21
TORSDOF 5
