REMARK  5 active torsions:
REMARK  status: ('A' for Active; 'I' for Inactive)
REMARK    1  A    between atoms: C5_6  and  N2_8 
REMARK    2  A    between atoms: C14_18  and  S1_19 
REMARK    3  A    between atoms: S1_19  and  C15_20 
REMARK    4  A    between atoms: C15_20  and  C17_22 
REMARK       I    between atoms: C17_22  and  N4_24 
REMARK       I    between atoms: N4_24  and  C18_25 
REMARK       I    between atoms: C18_25  and  N5_27 
REMARK    5  A    between atoms: N5_27  and  C19_28 
ROOT
ATOM      1  N2  <0> d           9.419   1.139   3.416  0.00  0.00    -0.241 N 
ATOM      2  C7  <0> d          10.630   1.727   3.283  0.00  0.00     0.268 A 
ATOM      3  O1  <0> d          11.550   1.451   4.031  0.00  0.00    -0.267 OA
ATOM      4  C8  <0> d          10.793   2.713   2.207  0.00  0.00     0.059 A 
ATOM      5  C9  <0> d          12.001   3.376   1.992  0.00  0.00     0.019 A 
ATOM      6  C10 <0> d          12.099   4.285   0.975  0.00  0.00     0.001 A 
ATOM      7  C11 <0> d          11.009   4.554   0.156  0.00  0.00     0.002 A 
ATOM      8  C12 <0> d           9.815   3.918   0.344  0.00  0.00     0.030 A 
ATOM      9  C13 <0> d           9.683   2.984   1.375  0.00  0.00     0.050 A 
ATOM     10  N3  <0> d           8.518   2.331   1.596  0.00  0.00    -0.335 N 
ATOM     11  C14 <0> d           8.396   1.455   2.563  0.00  0.00     0.156 A 
ATOM     12  H28 <0> d           7.645   2.531   0.957  0.00  0.00     0.168 HD
ENDROOT
BRANCH  11  13
ATOM     13  S1  <0> d           6.843   0.652   2.779  0.00  0.00    -0.079 SA
BRANCH  13  14
ATOM     14  C15 <0> d           5.901   1.424   1.440  0.00  0.00     0.143 C 
ATOM     15  C16 <0> d           6.503   1.019   0.093  0.00  0.00     0.031 C 
BRANCH  14  16
ATOM     16  C17 <0> d           4.466   0.967   1.506  0.00  0.00     0.239 C 
ATOM     17  O2  <0> d           4.180  -0.046   2.108  0.00  0.00    -0.272 OA
ATOM     18  N4  <0> d           3.502   1.684   0.897  0.00  0.00    -0.278 N 
ATOM     19  C18 <0> d           2.219   1.276   0.957  0.00  0.00     0.323 C 
ATOM     20  H15 <0> d           3.761   2.603   0.351  0.00  0.00     0.173 HD
ATOM     21  O3  <0> d           1.932   0.260   1.560  0.00  0.00    -0.247 OA
ATOM     22  N5  <0> d           1.254   1.993   0.347  0.00  0.00    -0.338 N 
ATOM     23  H16 <0> d           1.514   2.912  -0.198  0.00  0.00     0.164 HD
BRANCH  22  24
ATOM     24  C19 <0> d          -0.140   1.548   0.412  0.00  0.00     0.086 C 
ATOM     25  C24 <0> d          -0.908   2.101  -0.791  0.00  0.00     0.025 C 
ATOM     26  C23 <0> d          -2.364   1.637  -0.723  0.00  0.00     0.002 C 
ATOM     27  C22 <0> d          -3.003   2.150   0.569  0.00  0.00     0.000 C 
ATOM     28  C21 <0> d          -2.236   1.597   1.772  0.00  0.00     0.002 C 
ATOM     29  C20 <0> d          -0.780   2.061   1.704  0.00  0.00     0.025 C 
ENDBRANCH  22  24
ENDBRANCH  14  16
ENDBRANCH  13  14
ENDBRANCH  11  13
BRANCH   1  30
ATOM     30  C5  <0> d           9.212   0.198   4.427  0.00  0.00     0.139 A 
ATOM     31  N1  <0> d           9.427  -1.084   4.184  0.00  0.00    -0.243 NA
ATOM     32  C4  <0> d           9.245  -2.005   5.111  0.00  0.00     0.119 A 
ATOM     33  C3  <0> d           8.818  -1.659   6.378  0.00  0.00     0.026 A 
ATOM     34  C2  <0> d           8.581  -0.324   6.674  0.00  0.00    -0.057 A 
ATOM     35  C1  <0> d           8.115   0.091   8.046  0.00  0.00     0.048 C 
ATOM     36  C6  <0> d           8.787   0.619   5.682  0.00  0.00     0.058 A 
ENDBRANCH   1  30
TORSDOF 5
