REMARK  4 active torsions:
REMARK  status: ('A' for Active; 'I' for Inactive)
REMARK    1  A    between atoms: C5_6  and  N2_8 
REMARK    2  A    between atoms: N4_15  and  C13_18 
REMARK    3  A    between atoms: C12_16  and  N5_17 
REMARK    4  A    between atoms: C13_18  and  C14_19 
ROOT
ATOM      1  N2  <0> d           0.052  -2.840   2.328  0.00  0.00    -0.283 N 
ATOM      2  C7  <0> d           0.076  -4.211   2.409  0.00  0.00     0.023 A 
ATOM      3  C8  <0> d           0.086  -4.590   3.697  0.00  0.00    -0.021 A 
ATOM      4  C9  <0> d           0.066  -3.368   4.500  0.00  0.00     0.062 A 
ATOM      5  C10 <0> d           0.051  -2.297   3.587  0.00  0.00     0.151 A 
ATOM      6  N3  <0> d           0.036  -1.054   4.064  0.00  0.00    -0.225 NA
ATOM      7  C11 <0> d           0.040  -0.832   5.361  0.00  0.00     0.213 A 
ATOM      8  N4  <0> d           0.057  -1.807   6.252  0.00  0.00    -0.323 N 
ATOM      9  C12 <0> d           0.065  -3.082   5.873  0.00  0.00     0.117 A 
ATOM     10  C19 <0> d           0.113  -6.005   4.216  0.00  0.00     0.051 C 
ATOM     11  C20 <0> d           0.090  -5.148   1.229  0.00  0.00     0.069 C 
ENDROOT
BRANCH   1  12
ATOM     12  C5  <0> d           0.036  -2.107   1.140  0.00  0.00     0.136 A 
ATOM     13  N1  <0> d           0.040  -2.742  -0.022  0.00  0.00    -0.243 NA
ATOM     14  C4  <0> d           0.025  -2.088  -1.167  0.00  0.00     0.119 A 
ATOM     15  C3  <0> d           0.006  -0.707  -1.195  0.00  0.00     0.026 A 
ATOM     16  C2  <0> d           0.002  -0.004   0.002  0.00  0.00    -0.057 A 
ATOM     17  C1  <0> d          -0.018   1.503   0.010  0.00  0.00     0.048 C 
ATOM     18  C6  <0> d           0.023  -0.718   1.187  0.00  0.00     0.057 A 
ENDBRANCH   1  12
BRANCH   9  19
ATOM     19  N5  <0> d           0.085  -4.099   6.810  0.00  0.00    -0.384 N 
ATOM     20  H8  <0> d           0.101  -5.025   6.520  0.00  0.00     0.157 HD
ATOM     21  H21 <0> d           0.084  -3.887   7.756  0.00  0.00     0.157 HD
ENDBRANCH   9  19
BRANCH   8  22
ATOM     22  C13 <0> d           0.060  -1.478   7.680  0.00  0.00     0.171 C 
BRANCH  22  23
ATOM     23  C14 <0> d           1.478  -1.467   8.190  0.00  0.00    -0.022 A 
ATOM     24  C18 <0> d           2.223  -0.304   8.160  0.00  0.00     0.124 A 
ATOM     25  N6  <0> d           3.462  -0.285   8.611  0.00  0.00    -0.273 NA
ATOM     26  C17 <0> d           4.042  -1.367   9.092  0.00  0.00     0.116 A 
ATOM     27  C16 <0> d           3.360  -2.568   9.148  0.00  0.00     0.020 A 
ATOM     28  C15 <0> d           2.053  -2.626   8.690  0.00  0.00     0.012 A 
ENDBRANCH  22  23
ENDBRANCH   8  22
TORSDOF 4
