REMARK  4 active torsions:
REMARK  status: ('A' for Active; 'I' for Inactive)
REMARK    1  A    between atoms: C2_3  and  N3_11 
REMARK       I    between atoms: N3_11  and  C7_12 
REMARK    2  A    between atoms: C7_12  and  C8_14 
REMARK    3  A    between atoms: C11_17  and  C12_19 
REMARK    4  A    between atoms: C12_19  and  N4_20 
ROOT
ATOM      1  N3  <0> d          -0.282   3.654   0.411  0.00  0.00    -0.307 N 
ATOM      2  C7  <0> d           0.191   3.133  -0.739  0.00  0.00     0.281 C 
ATOM      3  O3  <0> d           0.068   1.943  -0.963  0.00  0.00    -0.265 OA
ATOM      4  H8  <0> d          -0.246   4.741   0.578  0.00  0.00     0.170 HD
ENDROOT
BRANCH   2   5
ATOM      5  C8  <0> d           0.852   3.999  -1.718  0.00  0.00     0.143 A 
ATOM      6  O4  <0> d           1.053   5.327  -1.594  0.00  0.00    -0.308 OA
ATOM      7  C11 <0> d           1.688   5.784  -2.681  0.00  0.00     0.079 A 
ATOM      8  C10 <0> d           1.906   4.751  -3.525  0.00  0.00     0.037 A 
ATOM      9  C9  <0> d           1.379   3.602  -2.915  0.00  0.00     0.045 A 
BRANCH   7  10
ATOM     10  C12 <0> d           2.094   7.215  -2.924  0.00  0.00     0.299 C 
BRANCH  10  11
ATOM     11  N4  <0> d           1.007   7.922  -3.614  0.00  0.00    -0.065 N 
ATOM     12  C16 <0> d           1.265   9.378  -3.658  0.00  0.00     0.235 C 
ATOM     13  C15 <0> d          -0.101  10.082  -3.551  0.00  0.00     0.029 C 
ATOM     14  C14 <0> d          -1.134   8.941  -3.414  0.00  0.00     0.029 C 
ATOM     15  C13 <0> d          -0.279   7.761  -2.888  0.00  0.00     0.235 C 
ATOM     16  H21 <0> d           0.963   7.490  -4.625  0.00  0.00     0.280 HD
ENDBRANCH  10  11
ENDBRANCH   7  10
ENDBRANCH   2   5
BRANCH   1  17
ATOM     17  C2  <0> d          -0.810   2.826   1.376  0.00  0.00     0.119 A 
ATOM     18  N1  <0> d          -2.165   2.609   1.436  0.00  0.00    -0.289 N 
ATOM     19  C1  <0> d          -3.051   3.261   0.468  0.00  0.00     0.163 C 
ATOM     20  C5  <0> d          -2.684   1.796   2.375  0.00  0.00     0.332 A 
ATOM     21  N2  <0> d          -1.893   1.185   3.276  0.00  0.00    -0.271 N 
ATOM     22  O2  <0> d          -3.885   1.612   2.411  0.00  0.00    -0.246 OA
ATOM     23  C4  <0> d          -0.558   1.375   3.256  0.00  0.00     0.254 A 
ATOM     24  C6  <0> d          -2.486   0.306   4.286  0.00  0.00     0.164 C 
ATOM     25  C3  <0> d           0.008   2.219   2.284  0.00  0.00     0.123 A 
ATOM     26  O1  <0> d           0.153   0.817   4.074  0.00  0.00    -0.268 OA
ENDBRANCH   1  17
TORSDOF 4
