REMARK  4 active torsions:
REMARK  status: ('A' for Active; 'I' for Inactive)
REMARK    1  A    between atoms: C2_2  and  C3_3 
REMARK    2  A    between atoms: C3_3  and  S1_4 
REMARK    3  A    between atoms: S1_4  and  C4_5 
REMARK    4  A    between atoms: C8_12  and  C15_21 
ROOT
ATOM      1  C15 <0> d          -0.319  -0.494  -1.386  0.00  0.00    -0.045 A 
ATOM      2  C16 <0> d           0.489  -0.131  -2.449  0.00  0.00     0.010 A 
ATOM      3  C17 <0> d           0.203  -0.581  -3.722  0.00  0.00     0.023 A 
ATOM      4  C18 <0> d          -0.911  -1.394  -3.938  0.00  0.00     0.044 A 
ATOM      5  C19 <0> d          -1.725  -1.752  -2.861  0.00  0.00     0.023 A 
ATOM      6  C20 <0> d          -1.425  -1.301  -1.593  0.00  0.00     0.010 A 
ATOM      7  C21 <0> d          -1.217  -1.859  -5.257  0.00  0.00     0.099 C 
ATOM      8  N4  <0> d          -1.460  -2.228  -6.304  0.00  0.00    -0.191 NA
ENDROOT
BRANCH   1   9
ATOM      9  C8  <0> d           0.002  -0.004   0.002  0.00  0.00     0.099 C 
ATOM     10  C6  <0> d           1.345  -0.533   0.410  0.00  0.00     0.069 A 
ATOM     11  C5  <0> d           2.447   0.265   0.392  0.00  0.00     0.143 A 
ATOM     12  C7  <0> d           1.485  -1.877   0.818  0.00  0.00     0.258 A 
ATOM     13  N1  <0> d           3.658  -0.255   0.764  0.00  0.00    -0.206 NA
ATOM     14  N3  <0> d           2.342   1.581   0.003  0.00  0.00    -0.343 N 
ATOM     15  C4  <0> d           3.753  -1.559   1.149  0.00  0.00     0.171 A 
ATOM     16  N2  <0> d           2.693  -2.341   1.172  0.00  0.00    -0.302 N 
ATOM     17  H18 <0> d           2.791  -3.390   1.486  0.00  0.00     0.171 HD
ATOM     18  C10 <0> d           1.129   2.214   0.003  0.00  0.00     0.021 C 
ATOM     19  H7  <0> d           3.239   2.134  -0.312  0.00  0.00     0.167 HD
ATOM     20  C9  <0> d          -0.018   1.503   0.010  0.00  0.00     0.024 C 
ATOM     21  C11 <0> d           1.109   3.723  -0.011  0.00  0.00     0.058 C 
ATOM     22  C14 <0> d          -1.268   2.147   0.032  0.00  0.00     0.158 C 
ATOM     23  C13 <0> d          -1.373   3.647   0.042  0.00  0.00     0.084 C 
ATOM     24  O2  <0> d          -2.283   1.478   0.037  0.00  0.00    -0.293 OA
ATOM     25  C12 <0> d          -0.132   4.228   0.727  0.00  0.00     0.014 C 
ATOM     26  O1  <0> d           0.511  -2.615   0.848  0.00  0.00    -0.267 OA
BRANCH  15  27
ATOM     27  S1  <0> d           5.320  -2.210   1.621  0.00  0.00    -0.088 SA
BRANCH  27  28
ATOM     28  C3  <0> d           4.848  -3.913   2.013  0.00  0.00     0.108 C 
BRANCH  28  29
ATOM     29  C2  <0> d           6.065  -4.683   2.455  0.00  0.00    -0.026 C 
ATOM     30  C1  <0> d           6.145  -5.136   3.682  0.00  0.00     0.007 C 
ENDBRANCH  28  29
ENDBRANCH  27  28
ENDBRANCH  15  27
ENDBRANCH   1   9
TORSDOF 4
