REMARK  10 active torsions:
REMARK  status: ('A' for Active; 'I' for Inactive)
REMARK    1  A    between atoms: C3_4  and  C5_7 
REMARK    2  A    between atoms: C5_7  and  N3_8 
REMARK    3  A    between atoms: N3_8  and  C7_10 
REMARK    4  A    between atoms: C7_10  and  C8_11 
REMARK    5  A    between atoms: C11_14  and  O1_17 
REMARK    6  A    between atoms: O1_17  and  C14_18 
REMARK    7  A    between atoms: C14_18  and  C15_19 
REMARK    8  A    between atoms: C15_19  and  C16_20 
REMARK    9  A    between atoms: C15_19  and  O2_28 
REMARK   10  A    between atoms: C16_20  and  N4_21 
ROOT
ATOM      1  C8  <0> d          -4.376   2.013   4.572  0.00  0.00    -0.032 A 
ATOM      2  C9  <0> d          -4.860   1.138   3.617  0.00  0.00     0.011 A 
ATOM      3  C10 <0> d          -4.076   0.794   2.533  0.00  0.00     0.037 A 
ATOM      4  C11 <0> d          -2.803   1.328   2.402  0.00  0.00     0.068 A 
ATOM      5  C12 <0> d          -2.317   2.201   3.364  0.00  0.00     0.037 A 
ATOM      6  C13 <0> d          -3.107   2.547   4.444  0.00  0.00     0.011 A 
ENDROOT
BRANCH   4   7
ATOM      7  O1  <0> d          -2.030   0.991   1.336  0.00  0.00    -0.349 OA
BRANCH   7   8
ATOM      8  C14 <0> d          -0.729   1.579   1.267  0.00  0.00     0.209 C 
BRANCH   8   9
ATOM      9  C15 <0> d          -0.013   1.086   0.008  0.00  0.00     0.170 C 
BRANCH   9  10
ATOM     10  C16 <0> d           1.423   1.615  -0.003  0.00  0.00     0.306 C 
BRANCH  10  11
ATOM     11  N4  <0> d           2.110   1.142  -1.212  0.00  0.00     0.094 N 
ATOM     12  C20 <0> d           3.405   1.816  -1.379  0.00  0.00     0.300 C 
ATOM     13  C19 <0> d           4.052   1.355  -2.688  0.00  0.00     0.264 C 
ATOM     14  N5  <0> d           4.221  -0.105  -2.659  0.00  0.00    -0.072 N 
ATOM     15  C18 <0> d           2.926  -0.779  -2.491  0.00  0.00     0.264 C 
ATOM     16  C21 <0> d           4.909  -0.579  -3.868  0.00  0.00     0.269 C 
ATOM     17  H35 <0> d           4.850  -0.357  -1.793  0.00  0.00     0.279 HD
ATOM     18  C17 <0> d           2.280  -0.318  -1.183  0.00  0.00     0.300 C 
ENDBRANCH  10  11
ENDBRANCH   9  10
BRANCH   9  19
ATOM     19  O2  <0> d          -0.704   1.559  -1.150  0.00  0.00    -0.392 OA
ATOM     20  H33 <0> d          -0.334   1.304  -2.154  0.00  0.00     0.210 HD
ENDBRANCH   9  19
ENDBRANCH   8   9
ENDBRANCH   7   8
ENDBRANCH   4   7
BRANCH   1  21
ATOM     21  C7  <0> d          -5.233   2.386   5.754  0.00  0.00     0.273 C 
BRANCH  21  22
ATOM     22  N3  <0> d          -4.992   1.441   6.852  0.00  0.00    -0.067 N 
ATOM     23  C6  <0> d          -5.454   0.092   6.497  0.00  0.00     0.270 C 
ATOM     24  H34 <0> d          -3.906   1.392   7.023  0.00  0.00     0.280 HD
BRANCH  22  25
ATOM     25  C5  <0> d          -5.624   1.904   8.094  0.00  0.00     0.276 C 
BRANCH  25  26
ATOM     26  C3  <0> d          -5.157   1.050   9.245  0.00  0.00     0.004 A 
ATOM     27  C2  <0> d          -5.748  -0.084   9.686  0.00  0.00     0.122 A 
ATOM     28  N1  <0> d          -5.024  -0.547  10.727  0.00  0.00    -0.285 N 
ATOM     29  C1  <0> d          -5.307  -1.756  11.503  0.00  0.00     0.179 C 
ATOM     30  N2  <0> d          -3.958   0.337  10.937  0.00  0.00    -0.185 NA
ATOM     31  C4  <0> d          -4.038   1.294  10.048  0.00  0.00     0.149 A 
ENDBRANCH  25  26
ENDBRANCH  22  25
ENDBRANCH  21  22
ENDBRANCH   1  21
TORSDOF 10
