REMARK  5 active torsions:
REMARK  status: ('A' for Active; 'I' for Inactive)
REMARK    1  A    between atoms: C2_2  and  C3_3 
REMARK    2  A    between atoms: C6_9  and  C8_13 
REMARK    3  A    between atoms: C8_13  and  S2_14 
REMARK    4  A    between atoms: S2_14  and  C9_15 
REMARK    5  A    between atoms: C9_15  and  N5_18 
ROOT
ATOM      1  C3  <0> d          -4.012   2.168  -4.767  0.00  0.00     0.099 A 
ATOM      2  N1  <0> d          -2.905   2.803  -4.530  0.00  0.00    -0.160 NA
ATOM      3  N2  <0> d          -2.096   2.481  -3.444  0.00  0.00    -0.172 N 
ATOM      4  C4  <0> d          -0.916   3.070  -3.090  0.00  0.00     0.272 A 
ATOM      5  O1  <0> d          -0.466   3.987  -3.757  0.00  0.00    -0.266 OA
ATOM      6  C5  <0> d          -0.227   2.621  -1.962  0.00  0.00     0.104 A 
ATOM      7  C6  <0> d          -0.742   1.585  -1.213  0.00  0.00     0.052 A 
ATOM      8  N3  <0> d          -1.891   1.030  -1.590  0.00  0.00    -0.226 NA
ATOM      9  C7  <0> d          -2.534   1.460  -2.645  0.00  0.00     0.199 A 
ATOM     10  S1  <0> d          -4.058   0.983  -3.432  0.00  0.00    -0.033 SA
ENDROOT
BRANCH   7  11
ATOM     11  C8  <0> d          -0.013   1.086   0.008  0.00  0.00     0.142 C 
BRANCH  11  12
ATOM     12  S2  <0> d          -0.860   1.669   1.497  0.00  0.00    -0.089 SA
BRANCH  12  13
ATOM     13  C9  <0> d           0.174   0.961   2.735  0.00  0.00     0.133 C 
ATOM     14  N4  <0> d           1.211   0.248   2.390  0.00  0.00    -0.376 N 
ATOM     15  C10 <0> d           2.071  -0.341   3.419  0.00  0.00     0.148 C 
ATOM     16  H14 <0> d           1.439   0.090   1.325  0.00  0.00     0.161 HD
BRANCH  13  17
ATOM     17  N5  <0> d          -0.112   1.159   4.066  0.00  0.00    -0.380 N 
ATOM     18  H12 <0> d           0.534   0.716   4.839  0.00  0.00     0.158 HD
ATOM     19  H13 <0> d          -0.986   1.759   4.358  0.00  0.00     0.158 HD
ENDBRANCH  13  17
ENDBRANCH  12  13
ENDBRANCH  11  12
ENDBRANCH   7  11
BRANCH   1  20
ATOM     20  C2  <0> d          -5.005   2.378  -5.881  0.00  0.00     0.064 C 
ATOM     21  C1  <0> d          -4.526   3.518  -6.783  0.00  0.00     0.012 C 
ENDBRANCH   1  20
TORSDOF 5
