REMARK  7 active torsions:
REMARK  status: ('A' for Active; 'I' for Inactive)
REMARK    1  A    between atoms: C5_5  and  S1_10 
REMARK    2  A    between atoms: C7_7  and  C8_8 
REMARK    3  A    between atoms: S1_10  and  N1_13 
REMARK    4  A    between atoms: N1_13  and  N2_14 
REMARK       I    between atoms: N2_14  and  C9_15 
REMARK    5  A    between atoms: C9_15  and  C10_17 
REMARK    6  A    between atoms: C10_17  and  N3_18 
REMARK    7  A    between atoms: C13_21  and  C14_23 
ROOT
ATOM      1  N1  <0> d          -2.812   0.993  -0.162  0.00  0.00    -0.220 N 
ATOM      2  H7  <0> d          -3.154   0.319  -0.770  0.00  0.00     0.200 HD
ENDROOT
BRANCH   1   3
ATOM      3  S1  <0> d          -3.669   1.390   1.199  0.00  0.00     0.276 S 
ATOM      4  O2  <0> d          -4.904   0.692   1.119  0.00  0.00    -0.199 OA
ATOM      5  O3  <0> d          -2.779   1.240   2.297  0.00  0.00    -0.199 OA
BRANCH   3   6
ATOM      6  C5  <0> d          -4.052   3.106   1.091  0.00  0.00     0.082 A 
ATOM      7  C4  <0> d          -3.181   4.042   1.620  0.00  0.00     0.026 A 
ATOM      8  C3  <0> d          -3.471   5.392   1.535  0.00  0.00     0.009 A 
ATOM      9  C2  <0> d          -4.638   5.814   0.930  0.00  0.00    -0.045 A 
ATOM     10  C1  <0> d          -4.955   7.284   0.843  0.00  0.00     0.049 C 
ATOM     11  C7  <0> d          -5.523   4.874   0.398  0.00  0.00     0.048 A 
ATOM     12  C6  <0> d          -5.221   3.513   0.483  0.00  0.00     0.044 A 
BRANCH  11  13
ATOM     13  C8  <0> d          -6.774   5.318  -0.251  0.00  0.00     0.209 C 
ATOM     14  O1  <0> d          -7.089   6.490  -0.225  0.00  0.00    -0.644 OA
ATOM     15  O5  <0> d          -7.564   4.422  -0.874  0.00  0.00    -0.644 OA
ENDBRANCH  11  13
ENDBRANCH   3   6
ENDBRANCH   1   3
BRANCH   1  16
ATOM     16  N2  <0> d          -1.595   1.629  -0.433  0.00  0.00    -0.259 N 
ATOM     17  C9  <0> d          -0.481   0.897  -0.634  0.00  0.00     0.256 C 
ATOM     18  O4  <0> d          -0.534  -0.314  -0.580  0.00  0.00    -0.270 OA
ATOM     19  H8  <0> d          -1.552   2.597  -0.477  0.00  0.00     0.190 HD
BRANCH  17  20
ATOM     20  C10 <0> d           0.828   1.582  -0.933  0.00  0.00     0.254 C 
BRANCH  20  21
ATOM     21  N3  <0> d           1.875   0.574  -1.116  0.00  0.00    -0.272 N 
ATOM     22  N4  <0> d           2.220  -0.431  -0.204  0.00  0.00    -0.168 NA
ATOM     23  C13 <0> d           3.197  -1.133  -0.719  0.00  0.00     0.162 A 
ATOM     24  C12 <0> d           3.506  -0.597  -1.973  0.00  0.00     0.057 A 
ATOM     25  C11 <0> d           2.675   0.447  -2.196  0.00  0.00     0.115 A 
BRANCH  23  26
ATOM     26  C14 <0> d           3.874  -2.314  -0.071  0.00  0.00     0.436 C 
ATOM     27  F1  <0> d           3.222  -2.626   1.127  0.00  0.00    -0.165 F 
ATOM     28  F2  <0> d           3.817  -3.414  -0.933  0.00  0.00    -0.165 F 
ATOM     29  F3  <0> d           5.211  -1.997   0.194  0.00  0.00    -0.165 F 
ENDBRANCH  23  26
ENDBRANCH  20  21
ENDBRANCH  17  20
ENDBRANCH   1  16
TORSDOF 7
