REMARK  5 active torsions:
REMARK  status: ('A' for Active; 'I' for Inactive)
REMARK    1  A    between atoms: C2_2  and  C3_3 
REMARK    2  A    between atoms: C8_8  and  N1_9 
REMARK       I    between atoms: N1_9  and  C9_10 
REMARK    3  A    between atoms: C9_10  and  C10_12 
REMARK       I    between atoms: C10_12  and  N2_14 
REMARK    4  A    between atoms: N2_14  and  C11_15 
REMARK    5  A    between atoms: C11_15  and  C12_16 
ROOT
ATOM      1  C10 <0> d           4.874  -0.085   1.204  0.00  0.00     0.310 C 
ATOM      2  O2  <0> d           4.296   0.396   2.156  0.00  0.00    -0.262 OA
ATOM      3  N2  <0> d           6.197  -0.335   1.274  0.00  0.00    -0.346 N 
ATOM      4  H10 <0> d           6.659  -0.720   0.512  0.00  0.00     0.163 HD
ENDROOT
BRANCH   1   5
ATOM      5  C9  <0> d           4.120  -0.401  -0.046  0.00  0.00     0.314 C 
ATOM      6  N1  <0> d           2.797  -0.150  -0.116  0.00  0.00    -0.318 N 
ATOM      7  H9  <0> d           2.348   0.291   0.621  0.00  0.00     0.169 HD
ATOM      8  O1  <0> d           4.698  -0.882  -0.999  0.00  0.00    -0.262 OA
BRANCH   6   9
ATOM      9  C8  <0> d           2.075  -0.527  -1.251  0.00  0.00     0.047 A 
ATOM     10  C3  <0> d           1.667   0.435  -2.167  0.00  0.00    -0.031 A 
ATOM     11  C4  <0> d           0.957   0.059  -3.291  0.00  0.00     0.009 A 
ATOM     12  C5  <0> d           0.648  -1.272  -3.502  0.00  0.00     0.001 A 
ATOM     13  C6  <0> d           1.047  -2.232  -2.589  0.00  0.00     0.009 A 
ATOM     14  C7  <0> d           1.756  -1.863  -1.463  0.00  0.00    -0.035 A 
ATOM     15  C20 <0> d           2.190  -2.908  -0.468  0.00  0.00     0.050 C 
BRANCH  10  16
ATOM     16  C2  <0> d           2.003   1.886  -1.938  0.00  0.00     0.036 C 
ATOM     17  C1  <0> d           3.404   2.176  -2.480  0.00  0.00     0.010 C 
ENDBRANCH  10  16
ENDBRANCH   6   9
ENDBRANCH   1   5
BRANCH   3  18
ATOM     18  C11 <0> d           6.937  -0.026   2.500  0.00  0.00     0.201 C 
BRANCH  18  19
ATOM     19  C12 <0> d           8.386  -0.398   2.319  0.00  0.00     0.124 A 
ATOM     20  N4  <0> d           9.350   0.434   1.838  0.00  0.00    -0.336 N 
ATOM     21  C18 <0> d          10.535  -0.274   1.829  0.00  0.00     0.064 A 
ATOM     22  C19 <0> d           9.164   1.823   1.412  0.00  0.00     0.158 C 
ATOM     23  C13 <0> d          10.226  -1.555   2.315  0.00  0.00     0.085 A 
ATOM     24  C17 <0> d          11.838   0.028   1.459  0.00  0.00     0.032 A 
ATOM     25  N3  <0> d           8.897  -1.562   2.595  0.00  0.00    -0.231 NA
ATOM     26  C14 <0> d          11.237  -2.514   2.419  0.00  0.00     0.034 A 
ATOM     27  C15 <0> d          12.514  -2.199   2.049  0.00  0.00     0.002 A 
ATOM     28  C16 <0> d          12.820  -0.933   1.570  0.00  0.00     0.002 A 
ENDBRANCH  18  19
ENDBRANCH   3  18
TORSDOF 5
