REMARK  11 active torsions:
REMARK  status: ('A' for Active; 'I' for Inactive)
REMARK    1  A    between atoms: C7_7  and  N1_8 
REMARK       I    between atoms: N1_8  and  C8_9 
REMARK    2  A    between atoms: C8_9  and  C9_11 
REMARK    3  A    between atoms: C9_11  and  N2_12 
REMARK       I    between atoms: N2_12  and  C10_13 
REMARK    4  A    between atoms: C10_13  and  C11_15 
REMARK    5  A    between atoms: C11_15  and  O3_16 
REMARK    6  A    between atoms: O3_16  and  C12_17 
REMARK    7  A    between atoms: C12_17  and  C13_19 
REMARK    8  A    between atoms: C18_24  and  N3_25 
REMARK    9  A    between atoms: N3_25  and  C19_26 
REMARK   10  A    between atoms: C19_26  and  C20_27 
REMARK   11  A    between atoms: C20_27  and  O5_28 
ROOT
ATOM      1  N2  <0> d          -2.098  -2.810   0.196  0.00  0.00    -0.350 N 
ATOM      2  C10 <0> d          -2.191  -4.153   0.257  0.00  0.00     0.242 C 
ATOM      3  O2  <0> d          -1.226  -4.840  -0.003  0.00  0.00    -0.271 OA
ATOM      4  H10 <0> d          -2.869  -2.261   0.404  0.00  0.00     0.163 HD
ENDROOT
BRANCH   2   5
ATOM      5  C11 <0> d          -3.494  -4.802   0.649  0.00  0.00     0.281 C 
BRANCH   5   6
ATOM      6  O3  <0> d          -3.338  -6.245   0.640  0.00  0.00    -0.308 OA
BRANCH   6   7
ATOM      7  C12 <0> d          -4.419  -6.979   0.971  0.00  0.00     0.296 C 
ATOM      8  O4  <0> d          -5.463  -6.428   1.257  0.00  0.00    -0.259 OA
BRANCH   7   9
ATOM      9  C13 <0> d          -4.334  -8.450   0.984  0.00  0.00     0.065 A 
ATOM     10  C18 <0> d          -5.487  -9.221   1.202  0.00  0.00     0.044 A 
ATOM     11  C17 <0> d          -5.393 -10.608   1.212  0.00  0.00     0.030 A 
ATOM     12  C16 <0> d          -4.174 -11.220   1.008  0.00  0.00     0.002 A 
ATOM     13  C15 <0> d          -3.035 -10.461   0.792  0.00  0.00     0.001 A 
ATOM     14  C14 <0> d          -3.107  -9.086   0.773  0.00  0.00     0.020 A 
BRANCH  10  15
ATOM     15  N3  <0> d          -6.713  -8.603   1.407  0.00  0.00    -0.387 N 
ATOM     16  H17 <0> d          -6.761  -7.637   1.485  0.00  0.00     0.159 HD
BRANCH  15  17
ATOM     17  C19 <0> d          -7.932  -9.409   1.504  0.00  0.00     0.146 C 
BRANCH  17  18
ATOM     18  C20 <0> d          -9.134  -8.489   1.728  0.00  0.00     0.183 C 
BRANCH  18  19
ATOM     19  O5  <0> d          -9.320  -7.660   0.580  0.00  0.00    -0.399 OA
ATOM     20  H22 <0> d         -10.067  -7.049   0.652  0.00  0.00     0.209 HD
ENDBRANCH  18  19
ENDBRANCH  17  18
ENDBRANCH  15  17
ENDBRANCH  10  15
ENDBRANCH   7   9
ENDBRANCH   6   7
ENDBRANCH   5   6
ENDBRANCH   2   5
BRANCH   1  21
ATOM     21  C9  <0> d          -0.831  -2.180  -0.185  0.00  0.00     0.225 C 
BRANCH  21  22
ATOM     22  C8  <0> d          -0.993  -0.682  -0.176  0.00  0.00     0.239 C 
ATOM     23  N1  <0> d           0.049   0.110  -0.496  0.00  0.00    -0.325 N 
ATOM     24  H7  <0> d           0.879  -0.283  -0.810  0.00  0.00     0.169 HD
ATOM     25  O1  <0> d          -2.061  -0.189   0.119  0.00  0.00    -0.271 OA
BRANCH  23  26
ATOM     26  C7  <0> d          -0.065   1.500  -0.376  0.00  0.00     0.046 A 
ATOM     27  C2  <0> d           0.827   2.205   0.422  0.00  0.00    -0.035 A 
ATOM     28  C1  <0> d           1.919   1.474   1.159  0.00  0.00     0.050 C 
ATOM     29  C3  <0> d           0.716   3.577   0.534  0.00  0.00     0.009 A 
ATOM     30  C4  <0> d          -0.290   4.247  -0.138  0.00  0.00     0.001 A 
ATOM     31  C5  <0> d          -1.184   3.547  -0.928  0.00  0.00     0.009 A 
ATOM     32  C6  <0> d          -1.074   2.176  -1.049  0.00  0.00    -0.035 A 
ATOM     33  C21 <0> d          -2.047   1.414  -1.911  0.00  0.00     0.050 C 
ENDBRANCH  23  26
ENDBRANCH  21  22
ENDBRANCH   1  21
TORSDOF 11
