REMARK  10 active torsions:
REMARK  status: ('A' for Active; 'I' for Inactive)
REMARK    1  A    between atoms: C2_2  and  C3_3 
REMARK    2  A    between atoms: C3_3  and  C4_4 
REMARK    3  A    between atoms: C4_4  and  C5_5 
REMARK    4  A    between atoms: C7_9  and  C8_11 
REMARK    5  A    between atoms: C8_11  and  N3_12 
REMARK    6  A    between atoms: N4_15  and  C15_21 
REMARK    7  A    between atoms: C11_16  and  C13_18 
REMARK    8  A    between atoms: C13_18  and  C14_19 
REMARK    9  A    between atoms: C14_19  and  O1_20 
REMARK   10  A    between atoms: C15_21  and  C16_22 
ROOT
ATOM      1  N3  <0> d          -6.705  -2.547  -1.919  0.00  0.00     0.098 N 
ATOM      2  C9  <0> d          -7.379  -1.927  -0.769  0.00  0.00     0.303 C 
ATOM      3  C10 <0> d          -8.057  -0.630  -1.217  0.00  0.00     0.303 C 
ATOM      4  N4  <0> d          -9.018  -0.927  -2.289  0.00  0.00     0.102 N 
ATOM      5  C11 <0> d          -8.345  -1.547  -3.439  0.00  0.00     0.253 C 
ATOM      6  C12 <0> d          -7.666  -2.844  -2.991  0.00  0.00     0.308 C 
ENDROOT
BRANCH   1   7
ATOM      7  C8  <0> d          -5.978  -3.756  -1.514  0.00  0.00     0.330 C 
BRANCH   7   8
ATOM      8  C7  <0> d          -4.842  -3.377  -0.599  0.00  0.00     0.054 A 
ATOM      9  C6  <0> d          -4.876  -3.375   0.747  0.00  0.00     0.116 A 
ATOM     10  N1  <0> d          -3.641  -2.969   1.174  0.00  0.00    -0.354 N 
ATOM     11  C5  <0> d          -2.894  -2.735   0.073  0.00  0.00     0.081 A 
ATOM     12  H1  <0> d          -3.355  -2.867   2.095  0.00  0.00     0.166 HD
ATOM     13  N2  <0> d          -3.621  -2.976  -0.984  0.00  0.00    -0.347 N 
ATOM     14  H34 <0> d          -3.324  -2.882  -1.903  0.00  0.00     0.167 HD
BRANCH  11  15
ATOM     15  C4  <0> d          -1.462  -2.268   0.066  0.00  0.00     0.076 C 
BRANCH  15  16
ATOM     16  C3  <0> d          -1.424  -0.738   0.059  0.00  0.00     0.007 C 
BRANCH  16  17
ATOM     17  C2  <0> d           0.030  -0.263   0.052  0.00  0.00    -0.004 C 
ATOM     18  C1  <0> d           0.068   1.266   0.045  0.00  0.00     0.005 C 
ENDBRANCH  16  17
ENDBRANCH  15  16
ENDBRANCH  11  15
ENDBRANCH   7   8
ENDBRANCH   1   7
BRANCH   5  19
ATOM     19  C13 <0> d          -9.375  -1.859  -4.526  0.00  0.00     0.063 C 
BRANCH  19  20
ATOM     20  C14 <0> d          -8.666  -2.457  -5.743  0.00  0.00     0.166 C 
BRANCH  20  21
ATOM     21  O1  <0> d          -9.608  -2.634  -6.803  0.00  0.00    -0.401 OA
ATOM     22  H25 <0> d          -9.228  -3.010  -7.609  0.00  0.00     0.209 HD
ENDBRANCH  20  21
ENDBRANCH  19  20
ENDBRANCH   5  19
BRANCH   4  23
ATOM     23  C15 <0> d          -9.746   0.282  -2.694  0.00  0.00     0.332 C 
BRANCH  23  24
ATOM     24  C16 <0> d         -10.699   0.686  -1.599  0.00  0.00     0.063 A 
ATOM     25  N5  <0> d         -11.895   0.135  -1.541  0.00  0.00    -0.257 NA
ATOM     26  C20 <0> d         -12.760   0.454  -0.597  0.00  0.00     0.031 A 
ATOM     27  C19 <0> d         -12.442   1.393   0.365  0.00  0.00     0.027 A 
ATOM     28  C21 <0> d         -14.113  -0.210  -0.572  0.00  0.00     0.070 C 
ATOM     29  C18 <0> d         -11.195   1.998   0.333  0.00  0.00     0.004 A 
ATOM     30  C17 <0> d         -10.310   1.634  -0.671  0.00  0.00     0.029 A 
ENDBRANCH  23  24
ENDBRANCH   4  23
TORSDOF 10
