REMARK  7 active torsions:
REMARK  status: ('A' for Active; 'I' for Inactive)
REMARK    1  A    between atoms: O1_2  and  C2_3 
REMARK    2  A    between atoms: C2_3  and  C3_4 
REMARK    3  A    between atoms: C3_4  and  N1_5 
REMARK       I    between atoms: N1_5  and  C4_6 
REMARK    4  A    between atoms: C4_6  and  C5_8 
REMARK    5  A    between atoms: N2_10  and  C7_13 
REMARK    6  A    between atoms: C7_13  and  C8_14 
REMARK       I    between atoms: N5_18  and  C13_20 
REMARK    7  A    between atoms: C13_20  and  C14_22 
ROOT
ATOM      1  C8  <0> d           2.715   1.216  -2.303  0.00  0.00     0.024 C 
ATOM      2  C9  <0> d           3.795   0.587  -3.186  0.00  0.00     0.009 C 
ATOM      3  C10 <0> d           4.165   1.558  -4.311  0.00  0.00     0.020 C 
ATOM      4  C11 <0> d           4.727   2.847  -3.703  0.00  0.00     0.126 C 
ATOM      5  N5  <0> d           3.752   3.380  -2.742  0.00  0.00    -0.347 N 
ATOM      6  C12 <0> d           3.259   2.501  -1.673  0.00  0.00     0.132 C 
ATOM      7  C13 <0> d           3.317   4.652  -2.840  0.00  0.00     0.257 C 
ATOM      8  O3  <0> d           2.435   5.052  -2.103  0.00  0.00    -0.267 OA
ENDROOT
BRANCH   1   9
ATOM      9  C7  <0> d           2.322   0.232  -1.199  0.00  0.00     0.158 C 
BRANCH   9  10
ATOM     10  N2  <0> d           1.207   0.785  -0.426  0.00  0.00    -0.260 N 
ATOM     11  C6  <0> d           0.018   0.194  -0.194  0.00  0.00     0.153 A 
ATOM     12  C5  <0> d          -0.714   1.061   0.566  0.00  0.00     0.165 A 
ATOM     13  N4  <0> d           0.025   2.161   0.788  0.00  0.00    -0.125 NA
ATOM     14  N3  <0> d           1.171   2.032   0.214  0.00  0.00    -0.066 NA
BRANCH  12  15
ATOM     15  C4  <0> d          -2.085   0.829   1.059  0.00  0.00     0.273 C 
ATOM     16  N1  <0> d          -2.701   1.769   1.804  0.00  0.00    -0.353 N 
ATOM     17  H9  <0> d          -2.243   2.598   2.015  0.00  0.00     0.162 HD
ATOM     18  O2  <0> d          -2.659  -0.210   0.795  0.00  0.00    -0.266 OA
BRANCH  16  19
ATOM     19  C3  <0> d          -4.062   1.539   2.294  0.00  0.00     0.149 C 
BRANCH  19  20
ATOM     20  C2  <0> d          -4.524   2.751   3.106  0.00  0.00     0.186 C 
BRANCH  20  21
ATOM     21  O1  <0> d          -4.618   3.890   2.249  0.00  0.00    -0.394 OA
ATOM     22  C1  <0> d          -5.044   5.082   2.912  0.00  0.00     0.201 C 
ENDBRANCH  20  21
ENDBRANCH  19  20
ENDBRANCH  16  19
ENDBRANCH  12  15
ENDBRANCH   9  10
ENDBRANCH   1   9
BRANCH   7  23
ATOM     23  C14 <0> d           3.908   5.556  -3.835  0.00  0.00     0.081 A 
ATOM     24  C16 <0> d           3.222   6.489  -4.630  0.00  0.00     0.092 A 
ATOM     25  N7  <0> d           4.158   7.113  -5.408  0.00  0.00    -0.242 N 
ATOM     26  C17 <0> d           1.874   6.857  -4.748  0.00  0.00     0.149 A 
ATOM     27  N6  <0> d           5.406   6.564  -5.103  0.00  0.00    -0.179 NA
ATOM     28  C19 <0> d           3.751   8.079  -6.280  0.00  0.00     0.138 A 
ATOM     29  C15 <0> d           5.267   5.648  -4.178  0.00  0.00     0.158 A 
ATOM     30  C18 <0> d           2.439   8.397  -6.367  0.00  0.00     0.135 A 
ATOM     31  N8  <0> d           1.528   7.790  -5.606  0.00  0.00    -0.269 NA
ENDBRANCH   7  23
TORSDOF 7
