REMARK  7 active torsions:
REMARK  status: ('A' for Active; 'I' for Inactive)
REMARK    1  A    between atoms: C2_2  and  C3_3 
REMARK    2  A    between atoms: C3_3  and  C4_4 
REMARK    3  A    between atoms: C4_4  and  C6_6 
REMARK       I    between atoms: C6_6  and  N1_8 
REMARK    4  A    between atoms: C8_10  and  C15_18 
REMARK       I    between atoms: C15_18  and  N3_20 
REMARK    5  A    between atoms: N3_20  and  C16_21 
REMARK    6  A    between atoms: C16_21  and  C17_22 
REMARK    7  A    between atoms: C17_22  and  C18_23 
ROOT
ATOM      1  C6  <0> d          -2.982  -2.607   0.120  0.00  0.00     0.223 C 
ATOM      2  O1  <0> d          -3.923  -1.857   0.269  0.00  0.00    -0.273 OA
ATOM      3  N1  <0> d          -3.170  -3.941   0.168  0.00  0.00    -0.350 N 
ATOM      4  C7  <0> d          -2.152  -5.007   0.015  0.00  0.00     0.140 C 
ATOM      5  C8  <0> d          -2.552  -6.079   1.054  0.00  0.00     0.106 C 
ATOM      6  C9  <0> d          -4.055  -5.856   1.290  0.00  0.00    -0.007 C 
ATOM      7  C10 <0> d          -4.440  -4.673   0.391  0.00  0.00     0.136 C 
ATOM      8  C11 <0> d          -4.314  -5.504   2.752  0.00  0.00     0.039 C 
ATOM      9  C12 <0> d          -5.820  -5.343   2.975  0.00  0.00     0.233 C 
ATOM     10  N2  <0> d          -6.505  -6.592   2.622  0.00  0.00    -0.075 N 
ATOM     11  C13 <0> d          -6.328  -6.874   1.192  0.00  0.00     0.233 C 
ATOM     12  C14 <0> d          -4.843  -7.100   0.895  0.00  0.00     0.039 C 
ATOM     13  H22 <0> d          -6.119  -7.351   3.163  0.00  0.00     0.277 HD
ATOM     14  H39 <0> d          -7.489  -6.504   2.827  0.00  0.00     0.277 HD
ENDROOT
BRANCH   5  15
ATOM     15  C15 <0> d          -2.305  -7.460   0.504  0.00  0.00     0.224 C 
ATOM     16  O2  <0> d          -2.396  -7.664  -0.688  0.00  0.00    -0.273 OA
ATOM     17  N3  <0> d          -1.982  -8.469   1.338  0.00  0.00    -0.360 N 
ATOM     18  H27 <0> d          -1.908  -8.306   2.291  0.00  0.00     0.162 HD
BRANCH  17  19
ATOM     19  C16 <0> d          -1.741  -9.812   0.803  0.00  0.00     0.127 C 
BRANCH  19  20
ATOM     20  C17 <0> d          -1.395 -10.763   1.951  0.00  0.00     0.061 C 
BRANCH  20  21
ATOM     21  C18 <0> d          -1.147 -12.144   1.401  0.00  0.00    -0.022 A 
ATOM     22  C19 <0> d           0.137 -12.686   0.952  0.00  0.00    -0.001 A 
ATOM     23  C20 <0> d           1.435 -12.176   0.881  0.00  0.00     0.014 A 
ATOM     24  C24 <0> d          -0.123 -14.002   0.526  0.00  0.00     0.043 A 
ATOM     25  C21 <0> d           2.446 -12.957   0.399  0.00  0.00     0.001 A 
ATOM     26  C22 <0> d           2.194 -14.256  -0.022  0.00  0.00     0.002 A 
ATOM     27  C23 <0> d           0.921 -14.780   0.038  0.00  0.00     0.030 A 
ATOM     28  N4  <0> d          -1.469 -14.229   0.709  0.00  0.00    -0.359 N 
ATOM     29  H3  <0> d          -1.928 -15.057   0.498  0.00  0.00     0.166 HD
ATOM     30  C25 <0> d          -2.061 -13.114   1.236  0.00  0.00     0.013 A 
ATOM     31  C26 <0> d          -3.524 -12.990   1.577  0.00  0.00     0.068 C 
ENDBRANCH  20  21
ENDBRANCH  19  20
ENDBRANCH  17  19
ENDBRANCH   5  15
BRANCH   1  32
ATOM     32  C4  <0> d          -1.603  -2.048  -0.120  0.00  0.00     0.074 C 
ATOM     33  C5  <0> d          -1.079  -2.544  -1.469  0.00  0.00     0.020 C 
BRANCH  32  34
ATOM     34  C3  <0> d          -1.667  -0.520  -0.128  0.00  0.00     0.013 C 
BRANCH  34  35
ATOM     35  C2  <0> d          -0.251   0.049  -0.245  0.00  0.00    -0.004 C 
ATOM     36  C1  <0> d          -0.315   1.578  -0.253  0.00  0.00     0.005 C 
ENDBRANCH  34  35
ENDBRANCH  32  34
ENDBRANCH   1  32
TORSDOF 7
