REMARK  6 active torsions:
REMARK  status: ('A' for Active; 'I' for Inactive)
REMARK       I    between atoms: C2_2  and  N1_4 
REMARK    1  A    between atoms: N1_4  and  C3_5 
REMARK    2  A    between atoms: C3_5  and  C4_6 
REMARK    3  A    between atoms: C4_6  and  C5_7 
REMARK    4  A    between atoms: C12_16  and  C13_17 
REMARK    5  A    between atoms: C16_22  and  O4_33 
REMARK    6  A    between atoms: N4_23  and  C18_26 
ROOT
ATOM      1  C13 <0> d           3.792   4.795   0.508  0.00  0.00     0.053 C 
ATOM      2  C14 <0> d           3.051   5.938   0.769  0.00  0.00     0.105 A 
ATOM      3  C15 <0> d           3.544   7.280   0.397  0.00  0.00     0.286 A 
ATOM      4  O2  <0> d           4.624   7.419  -0.153  0.00  0.00    -0.265 OA
ATOM      5  N3  <0> d           2.772   8.344   0.675  0.00  0.00    -0.168 NA
ATOM      6  C16 <0> d           1.612   8.222   1.270  0.00  0.00     0.257 A 
ATOM      7  N4  <0> d           1.081   7.030   1.652  0.00  0.00    -0.241 N 
ATOM      8  C17 <0> d           1.738   5.870   1.435  0.00  0.00     0.271 A 
ATOM      9  O3  <0> d           1.262   4.804   1.778  0.00  0.00    -0.266 OA
ENDROOT
BRANCH   1  10
ATOM     10  C12 <0> d           3.225   3.523   0.726  0.00  0.00     0.041 A 
ATOM     11  C5  <0> d           3.873   2.439   1.283  0.00  0.00    -0.017 A 
ATOM     12  C6  <0> d           2.953   1.368   1.321  0.00  0.00    -0.001 A 
ATOM     13  C11 <0> d           1.742   1.839   0.773  0.00  0.00     0.043 A 
ATOM     14  C7  <0> d           3.042   0.042   1.771  0.00  0.00     0.014 A 
ATOM     15  C10 <0> d           0.651   0.979   0.689  0.00  0.00     0.030 A 
ATOM     16  N2  <0> d           1.927   3.155   0.417  0.00  0.00    -0.355 N 
ATOM     17  C9  <0> d           0.763  -0.318   1.138  0.00  0.00     0.002 A 
ATOM     18  C8  <0> d           1.958  -0.780   1.677  0.00  0.00     0.001 A 
ATOM     19  H1  <0> d           1.258   3.730   0.015  0.00  0.00     0.166 HD
BRANCH  11  20
ATOM     20  C4  <0> d           5.301   2.405   1.762  0.00  0.00     0.061 C 
BRANCH  20  21
ATOM     21  C3  <0> d           6.215   1.977   0.612  0.00  0.00     0.127 C 
BRANCH  21  22
ATOM     22  N1  <0> d           7.603   1.944   1.078  0.00  0.00    -0.361 N 
ATOM     23  C2  <0> d           8.590   1.592   0.231  0.00  0.00     0.213 C 
ATOM     24  C1  <0> d          10.019   1.558   0.710  0.00  0.00     0.117 C 
ATOM     25  O1  <0> d           8.329   1.303  -0.918  0.00  0.00    -0.274 OA
ATOM     26  H5  <0> d           7.812   2.175   1.997  0.00  0.00     0.162 HD
ENDBRANCH  21  22
ENDBRANCH  20  21
ENDBRANCH  11  20
ENDBRANCH   1  10
BRANCH   7  27
ATOM     27  C18 <0> d          -0.170   7.004   2.284  0.00  0.00     0.046 A 
ATOM     28  C23 <0> d          -1.270   6.471   1.625  0.00  0.00     0.032 A 
ATOM     29  C22 <0> d          -2.502   6.447   2.250  0.00  0.00     0.026 A 
ATOM     30  C21 <0> d          -2.639   6.952   3.531  0.00  0.00     0.034 A 
ATOM     31  C20 <0> d          -1.544   7.483   4.189  0.00  0.00     0.026 A 
ATOM     32 Cl1  <0> d          -4.189   6.920   4.313  0.00  0.00    -0.084 Cl
ATOM     33  C19 <0> d          -0.309   7.506   3.571  0.00  0.00     0.032 A 
ENDBRANCH   7  27
BRANCH   6  34
ATOM     34  O4  <0> d           0.904   9.342   1.517  0.00  0.00    -0.330 OA
ATOM     35  H19 <0> d           1.297  10.180   1.238  0.00  0.00     0.221 HD
ENDBRANCH   6  34
TORSDOF 6
