REMARK  6 active torsions:
REMARK  status: ('A' for Active; 'I' for Inactive)
REMARK    1  A    between atoms: N2_8  and  C6_9 
REMARK    2  A    between atoms: C6_9  and  C7_10 
REMARK    3  A    between atoms: C7_10  and  C8_11 
REMARK    4  A    between atoms: C7_10  and  O3_20 
REMARK    5  A    between atoms: C8_11  and  O2_12 
REMARK    6  A    between atoms: O2_12  and  C9_13 
ROOT
ATOM      1  C6  <0> d           2.138  -0.149   1.086  0.00  0.00     0.270 C 
ENDROOT
BRANCH   1   2
ATOM      2  N2  <0> d           0.720  -0.520   1.182  0.00  0.00    -0.050 N 
ATOM      3  C2  <0> d           0.011  -0.068  -0.022  0.00  0.00     0.200 C 
ATOM      4  C1  <0> d          -0.046   1.461  -0.034  0.00  0.00     0.057 C 
ATOM      5  C3  <0> d          -1.387  -0.618  -0.036  0.00  0.00     0.253 C 
ATOM      6  C15 <0> d           0.758  -0.557  -1.264  0.00  0.00     0.057 C 
ATOM      7  O1  <0> d          -2.210  -0.098  -0.759  0.00  0.00    -0.271 OA
ATOM      8  N1  <0> d          -1.761  -1.660   0.716  0.00  0.00    -0.357 N 
ATOM      9  C4  <0> d          -0.848  -2.334   1.636  0.00  0.00     0.150 C 
ATOM     10  H5  <0> d          -2.674  -1.980   0.648  0.00  0.00     0.162 HD
ATOM     11  C5  <0> d           0.599  -1.982   1.285  0.00  0.00     0.256 C 
ATOM     12  H22 <0> d           0.311  -0.088   1.997  0.00  0.00     0.281 HD
ENDBRANCH   1   2
BRANCH   1  13
ATOM     13  C7  <0> d           2.829  -0.426   2.422  0.00  0.00     0.168 C 
BRANCH  13  14
ATOM     14  C8  <0> d           4.245   0.154   2.394  0.00  0.00     0.209 C 
BRANCH  14  15
ATOM     15  O2  <0> d           4.849  -0.002   3.680  0.00  0.00    -0.349 OA
BRANCH  15  16
ATOM     16  C9  <0> d           6.117   0.465   3.826  0.00  0.00     0.070 A 
ATOM     17  C14 <0> d           6.764   0.347   5.048  0.00  0.00     0.055 A 
ATOM     18  C13 <0> d           8.056   0.816   5.192  0.00  0.00     0.013 A 
ATOM     19  C12 <0> d           8.699   1.414   4.123  0.00  0.00     0.019 A 
ATOM     20 Br1  <0> d           8.942   0.648   6.854  0.00  0.00    -0.051 Br
ATOM     21  C11 <0> d           8.053   1.538   2.907  0.00  0.00     0.004 A 
ATOM     22  C10 <0> d           6.764   1.065   2.756  0.00  0.00     0.037 A 
ENDBRANCH  15  16
ENDBRANCH  14  15
ENDBRANCH  13  14
BRANCH  13  23
ATOM     23  O3  <0> d           2.897  -1.837   2.640  0.00  0.00    -0.392 OA
ATOM     24  H18 <0> d           3.388  -2.317   1.960  0.00  0.00     0.210 HD
ENDBRANCH  13  23
ENDBRANCH   1  13
TORSDOF 6
