REMARK  7 active torsions:
REMARK  status: ('A' for Active; 'I' for Inactive)
REMARK    1  A    between atoms: N2_16  and  C13_17 
REMARK    2  A    between atoms: C13_17  and  C14_18 
REMARK    3  A    between atoms: C14_18  and  C15_19 
REMARK       I    between atoms: C15_19  and  N3_21 
REMARK    4  A    between atoms: N3_21  and  C16_22 
REMARK    5  A    between atoms: C21_27  and  O4_28 
REMARK    6  A    between atoms: O4_28  and  C22_29 
REMARK    7  A    between atoms: C22_29  and  C23_30 
ROOT
ATOM      1  C13 <0> d          -3.746   5.976  -0.177  0.00  0.00     0.138 C 
ENDROOT
BRANCH   1   2
ATOM      2  N2  <0> d          -2.505   5.201  -0.243  0.00  0.00    -0.320 N 
ATOM      3  C2  <0> d          -1.267   5.853  -0.667  0.00  0.00     0.115 C 
ATOM      4  C1  <0> d          -1.126   5.759  -2.187  0.00  0.00     0.064 C 
ATOM      5  N1  <0> d          -0.125   5.185  -0.017  0.00  0.00    -0.290 N 
ATOM      6  C3  <0> d          -1.227   7.321  -0.233  0.00  0.00     0.063 C 
ATOM      7  C5  <0> d           0.725   6.072   0.503  0.00  0.00     0.226 C 
ATOM      8  C6  <0> d          -0.043   3.791   0.021  0.00  0.00     0.055 A 
ATOM      9  C4  <0> d           0.117   7.453   0.507  0.00  0.00     0.107 C 
ATOM     10  O1  <0> d           1.834   5.806   0.915  0.00  0.00    -0.273 OA
ATOM     11  C11 <0> d          -1.273   3.103   0.055  0.00  0.00     0.059 A 
ATOM     12  C7  <0> d           1.147   3.097   0.012  0.00  0.00     0.031 A 
ATOM     13  C10 <0> d          -1.277   1.711   0.058  0.00  0.00     0.019 A 
ATOM     14  C12 <0> d          -2.517   3.891   0.087  0.00  0.00     0.258 C 
ATOM     15  C9  <0> d          -0.078   1.028   0.052  0.00  0.00     0.001 A 
ATOM     16  C8  <0> d           1.127   1.713   0.029  0.00  0.00     0.002 A 
ATOM     17  O2  <0> d          -3.560   3.359   0.416  0.00  0.00    -0.267 OA
ENDBRANCH   1   2
BRANCH   1  18
ATOM     18  C14 <0> d          -4.405   6.002  -1.557  0.00  0.00     0.123 C 
BRANCH  18  19
ATOM     19  C15 <0> d          -5.682   6.800  -1.489  0.00  0.00     0.223 C 
ATOM     20  O3  <0> d          -6.030   7.299  -0.439  0.00  0.00    -0.273 OA
ATOM     21  N3  <0> d          -6.437   6.959  -2.594  0.00  0.00    -0.325 N 
ATOM     22  H16 <0> d          -6.157   6.453  -3.529  0.00  0.00     0.169 HD
BRANCH  21  23
ATOM     23  C16 <0> d          -7.579   7.770  -2.551  0.00  0.00     0.068 A 
ATOM     24  C21 <0> d          -8.058   8.364  -3.716  0.00  0.00     0.095 A 
ATOM     25  C20 <0> d          -9.187   9.165  -3.668  0.00  0.00     0.039 A 
ATOM     26  C19 <0> d          -9.837   9.373  -2.465  0.00  0.00     0.003 A 
ATOM     27  C18 <0> d          -9.362   8.784  -1.308  0.00  0.00     0.002 A 
ATOM     28  C17 <0> d          -8.239   7.979  -1.349  0.00  0.00     0.032 A 
BRANCH  24  29
ATOM     29  O4  <0> d          -7.418   8.159  -4.898  0.00  0.00    -0.340 OA
BRANCH  29  30
ATOM     30  C22 <0> d          -7.965   8.800  -6.052  0.00  0.00     0.293 C 
BRANCH  30  31
ATOM     31  C23 <0> d          -7.117   8.455  -7.278  0.00  0.00     0.408 C 
ATOM     32  F1  <0> d          -7.117   7.069  -7.470  0.00  0.00    -0.169 F 
ATOM     33  F2  <0> d          -7.653   9.083  -8.408  0.00  0.00    -0.169 F 
ATOM     34  F3  <0> d          -5.805   8.898  -7.077  0.00  0.00    -0.169 F 
ENDBRANCH  30  31
ENDBRANCH  29  30
ENDBRANCH  24  29
ENDBRANCH  21  23
ENDBRANCH  18  19
ENDBRANCH   1  18
TORSDOF 7
