REMARK  5 active torsions:
REMARK  status: ('A' for Active; 'I' for Inactive)
REMARK    1  A    between atoms: C2_2  and  O1_3 
REMARK    2  A    between atoms: O1_3  and  N1_4 
REMARK    3  A    between atoms: N1_4  and  C3_5 
REMARK       I    between atoms: N1_4  and  C10_12 
REMARK    4  A    between atoms: C3_5  and  C4_6 
REMARK    5  A    between atoms: C10_12  and  C11_14 
ROOT
ATOM      1  C11 <0> d           2.889  -1.454  -0.025  0.00  0.00     0.292 C 
ATOM      2  C12 <0> d           2.226  -0.654   1.120  0.00  0.00     0.126 C 
ATOM      3  C13 <0> d           3.304  -0.518   2.186  0.00  0.00     0.179 C 
ATOM      4  C14 <0> d           4.515  -1.201   1.597  0.00  0.00     0.358 C 
ATOM      5  N2  <0> d           5.389  -1.782   2.596  0.00  0.00    -0.356 N 
ATOM      6  C15 <0> d           5.125  -3.052   3.115  0.00  0.00     0.037 A 
ATOM      7  C16 <0> d           5.854  -3.537   4.192  0.00  0.00     0.030 A 
ATOM      8  C17 <0> d           5.593  -4.801   4.685  0.00  0.00     0.002 A 
ATOM      9  C18 <0> d           4.607  -5.577   4.103  0.00  0.00     0.001 A 
ATOM     10  C19 <0> d           3.877  -5.092   3.034  0.00  0.00     0.011 A 
ATOM     11  C20 <0> d           4.127  -3.824   2.539  0.00  0.00    -0.006 A 
ATOM     12  C21 <0> d           3.303  -3.293   1.404  0.00  0.00     0.279 C 
ATOM     13  N3  <0> d           3.979  -2.218   0.663  0.00  0.00    -0.026 N 
ATOM     14  O3  <0> d           3.212   0.018   3.265  0.00  0.00    -0.294 OA
ATOM     15  H23 <0> d           6.162  -1.286   2.906  0.00  0.00     0.162 HD
ATOM     16  H24 <0> d           4.678  -2.559   0.020  0.00  0.00     0.284 HD
ENDROOT
BRANCH   1  17
ATOM     17  C10 <0> d           1.898  -2.396  -0.658  0.00  0.00     0.275 C 
ATOM     18  N1  <0> d           1.514  -2.212  -1.937  0.00  0.00    -0.220 N 
ATOM     19  O2  <0> d           1.446  -3.321  -0.016  0.00  0.00    -0.269 OA
BRANCH  18  20
ATOM     20  O1  <0> d           2.120  -1.199  -2.719  0.00  0.00    -0.275 OA
BRANCH  20  21
ATOM     21  C2  <0> d           1.499   0.082  -2.595  0.00  0.00     0.197 C 
ATOM     22  C1  <0> d           2.309   1.119  -3.375  0.00  0.00     0.036 C 
ENDBRANCH  20  21
ENDBRANCH  18  20
BRANCH  18  23
ATOM     23  C3  <0> d           0.469  -3.058  -2.517  0.00  0.00     0.198 C 
BRANCH  23  24
ATOM     24  C4  <0> d          -0.875  -2.636  -1.982  0.00  0.00    -0.038 A 
ATOM     25  C9  <0> d          -1.611  -1.672  -2.644  0.00  0.00     0.009 A 
ATOM     26  C8  <0> d          -2.846  -1.288  -2.156  0.00  0.00     0.001 A 
ATOM     27  C7  <0> d          -3.340  -1.861  -0.999  0.00  0.00     0.000 A 
ATOM     28  C6  <0> d          -2.602  -2.822  -0.333  0.00  0.00     0.001 A 
ATOM     29  C5  <0> d          -1.369  -3.209  -0.824  0.00  0.00     0.009 A 
ENDBRANCH  23  24
ENDBRANCH  18  23
ENDBRANCH   1  17
TORSDOF 5
