REMARK  4 active torsions:
REMARK  status: ('A' for Active; 'I' for Inactive)
REMARK    1  A    between atoms: N1_2  and  C2_3 
REMARK    2  A    between atoms: C2_3  and  C3_4 
REMARK    3  A    between atoms: N2_7  and  S1_10 
REMARK    4  A    between atoms: S1_10  and  C8_13 
ROOT
ATOM      1  S1  <0> d          -0.314  -5.646  -3.479  0.00  0.00     0.263 S 
ATOM      2  O1  <0> d           0.845  -6.309  -3.965  0.00  0.00    -0.200 OA
ATOM      3  O2  <0> d          -1.401  -6.346  -2.889  0.00  0.00    -0.200 OA
ENDROOT
BRANCH   1   4
ATOM      4  N2  <0> d           0.206  -4.546  -2.355  0.00  0.00    -0.307 N 
ATOM      5  C5  <0> d          -0.699  -4.068  -1.302  0.00  0.00     0.136 C 
ATOM      6  C4  <0> d          -0.721  -2.536  -1.328  0.00  0.00     0.027 C 
ATOM      7  C3  <0> d           0.710  -2.008  -1.215  0.00  0.00     0.014 C 
ATOM      8  C7  <0> d           1.534  -2.500  -2.408  0.00  0.00     0.027 C 
ATOM      9  C6  <0> d           1.581  -4.031  -2.393  0.00  0.00     0.136 C 
BRANCH   7  10
ATOM     10  C2  <0> d           0.690  -0.478  -1.207  0.00  0.00     0.236 C 
BRANCH  10  11
ATOM     11  N1  <0> d           0.002  -0.004   0.002  0.00  0.00    -0.079 N 
ATOM     12  C1  <0> d          -0.018   1.465   0.010  0.00  0.00     0.267 C 
ATOM     13  H5  <0> d           0.490  -0.338   0.820  0.00  0.00     0.276 HD
ATOM     14  H21 <0> d          -0.945  -0.353   0.009  0.00  0.00     0.276 HD
ENDBRANCH  10  11
ENDBRANCH   7  10
ENDBRANCH   1   4
BRANCH   1  15
ATOM     15  C8  <0> d          -0.978  -4.734  -4.833  0.00  0.00     0.109 A 
ATOM     16  C11 <0> d          -2.161  -3.873  -4.808  0.00  0.00     0.035 A 
ATOM     17  C10 <0> d          -2.300  -3.357  -6.111  0.00  0.00     0.139 A 
ATOM     18  C12 <0> d          -3.081  -3.507  -3.823  0.00  0.00     0.018 A 
ATOM     19  N3  <0> d          -1.275  -3.882  -6.861  0.00  0.00    -0.349 N 
ATOM     20  N4  <0> d          -3.298  -2.530  -6.391  0.00  0.00    -0.242 NA
ATOM     21  C9  <0> d          -0.497  -4.700  -6.086  0.00  0.00     0.116 A 
ATOM     22  H1  <0> d          -1.125  -3.701  -7.802  0.00  0.00     0.167 HD
ATOM     23  C14 <0> d          -4.180  -2.179  -5.479  0.00  0.00     0.119 A 
ATOM     24  C13 <0> d          -4.103  -2.645  -4.176  0.00  0.00     0.020 A 
ENDBRANCH   1  15
TORSDOF 4
