REMARK  4 active torsions:
REMARK  status: ('A' for Active; 'I' for Inactive)
REMARK    1  A    between atoms: C3_3  and  C14_18 
REMARK    2  A    between atoms: C6_6  and  C7_7 
REMARK    3  A    between atoms: C7_7  and  N1_8 
REMARK       I    between atoms: N1_8  and  C8_9 
REMARK    4  A    between atoms: C8_9  and  C9_11 
ROOT
ATOM      1  C7  <0> d           0.865   3.200  -0.040  0.00  0.00     0.112 C 
ATOM      2  H5  <0> d           0.348   5.167   0.015  0.00  0.00     0.157 HD
ATOM      3  N3  <0> d           0.008   4.208  -0.054  0.00  0.00    -0.385 N 
ATOM      4  H10 <0> d          -0.999   4.025  -0.135  0.00  0.00     0.157 HD
ENDROOT
BRANCH   1   5
ATOM      5  C6  <0> d           0.296   1.833  -0.042  0.00  0.00     0.007 A 
ATOM      6  C1  <0> d          -1.086   1.650  -0.054  0.00  0.00     0.016 A 
ATOM      7  C2  <0> d          -1.610   0.373  -0.056  0.00  0.00     0.017 A 
ATOM      8  C3  <0> d          -0.767  -0.724  -0.046  0.00  0.00     0.048 A 
ATOM      9  C4  <0> d           0.606  -0.548  -0.034  0.00  0.00     0.017 A 
ATOM     10  C5  <0> d           1.141   0.723  -0.031  0.00  0.00     0.016 A 
BRANCH   8  11
ATOM     11  C14 <0> d          -1.345  -2.115  -0.048  0.00  0.00     0.417 C 
ATOM     12  F1  <0> d          -1.513  -2.549  -1.367  0.00  0.00    -0.166 F 
ATOM     13  F2  <0> d          -0.475  -2.983   0.621  0.00  0.00    -0.166 F 
ATOM     14  F3  <0> d          -2.585  -2.106   0.601  0.00  0.00    -0.166 F 
ENDBRANCH   8  11
ENDBRANCH   1   5
BRANCH   1  15
ATOM     15  N1  <0> d           2.236   3.379  -0.028  0.00  0.00    -0.308 N 
ATOM     16  C8  <0> d           2.754   4.616   0.109  0.00  0.00     0.258 C 
ATOM     17  O1  <0> d           2.021   5.560   0.328  0.00  0.00    -0.267 OA
ATOM     18  H6  <0> d           2.826   2.614  -0.118  0.00  0.00     0.170 HD
BRANCH  16  19
ATOM     19  C9  <0> d           4.212   4.824  -0.007  0.00  0.00     0.050 A 
ATOM     20  C13 <0> d           5.064   3.747  -0.253  0.00  0.00     0.135 A 
ATOM     21  N2  <0> d           6.364   3.932  -0.361  0.00  0.00    -0.248 NA
ATOM     22  C12 <0> d           6.910   5.127  -0.234  0.00  0.00     0.125 A 
ATOM     23  C11 <0> d           6.132   6.246   0.016  0.00  0.00     0.045 A 
ATOM     24 Cl1  <0> d           8.631   5.299  -0.381  0.00  0.00    -0.062 Cl
ATOM     25  C10 <0> d           4.762   6.105   0.133  0.00  0.00     0.022 A 
ENDBRANCH  16  19
ENDBRANCH   1  15
TORSDOF 4
