REMARK  3 active torsions:
REMARK  status: ('A' for Active; 'I' for Inactive)
REMARK    1  A    between atoms: C6_6  and  C8_8 
REMARK       I    between atoms: C8_8  and  N1_10 
REMARK    2  A    between atoms: N1_10  and  C9_11 
REMARK    3  A    between atoms: C15_21  and  C16_22 
ROOT
ATOM      1  C9  <0> d           0.063  -2.894   4.837  0.00  0.00     0.161 A 
ATOM      2  C10 <0> d           0.056  -2.339   6.114  0.00  0.00     0.045 A 
ATOM      3  C11 <0> d           0.068  -3.365   7.020  0.00  0.00     0.137 A 
ATOM      4  N2  <0> d           0.093  -4.521   6.330  0.00  0.00    -0.256 N 
ATOM      5  N3  <0> d           0.081  -4.204   4.962  0.00  0.00    -0.152 NA
ATOM      6  C12 <0> d           0.124  -5.868   6.904  0.00  0.00     0.182 C 
ATOM      7  N4  <0> d           0.044  -3.133   8.395  0.00  0.00    -0.311 N 
ATOM      8  C13 <0> d          -0.195  -1.876   8.824  0.00  0.00     0.224 C 
ATOM      9  O2  <0> d          -0.034  -1.615   9.998  0.00  0.00    -0.273 OA
ATOM     10  C14 <0> d          -0.652  -0.788   7.894  0.00  0.00     0.118 C 
ATOM     11  C15 <0> d           0.046  -0.891   6.534  0.00  0.00     0.075 C 
ATOM     12  H12 <0> d           0.193  -3.856   9.025  0.00  0.00     0.170 HD
ENDROOT
BRANCH   1  13
ATOM     13  N1  <0> d           0.048  -2.182   3.631  0.00  0.00    -0.305 N 
ATOM     14  C8  <0> d           0.052  -2.845   2.457  0.00  0.00     0.257 C 
ATOM     15  O1  <0> d           0.068  -4.061   2.446  0.00  0.00    -0.267 OA
ATOM     16  H8  <0> d           0.035  -1.212   3.640  0.00  0.00     0.170 HD
BRANCH  14  17
ATOM     17  C6  <0> d           0.036  -2.095   1.184  0.00  0.00     0.033 A 
ATOM     18  C5  <0> d           0.040  -2.778  -0.033  0.00  0.00     0.023 A 
ATOM     19  C4  <0> d           0.024  -2.071  -1.217  0.00  0.00    -0.061 A 
ATOM     20  C3  <0> d           0.006  -0.688  -1.201  0.00  0.00     0.013 A 
ATOM     21  C20 <0> d           0.028  -2.807  -2.532  0.00  0.00     0.048 C 
ATOM     22  C2  <0> d           0.002  -0.004   0.002  0.00  0.00    -0.061 A 
ATOM     23  C1  <0> d          -0.018   1.503   0.010  0.00  0.00     0.048 C 
ATOM     24  C7  <0> d           0.023  -0.699   1.194  0.00  0.00     0.023 A 
ENDBRANCH  14  17
ENDBRANCH   1  13
BRANCH  11  25
ATOM     25  C16 <0> d          -0.705  -0.072   5.515  0.00  0.00    -0.008 A 
ATOM     26  S1  <0> d          -2.404  -0.217   4.988  0.00  0.00    -0.106 SA
ATOM     27  C19 <0> d          -2.414   1.116   3.800  0.00  0.00     0.050 A 
ATOM     28  C18 <0> d          -1.139   1.570   3.878  0.00  0.00     0.008 A 
ATOM     29  C17 <0> d          -0.263   0.961   4.758  0.00  0.00     0.016 A 
ENDBRANCH  11  25
TORSDOF 3
