REMARK  5 active torsions:
REMARK  status: ('A' for Active; 'I' for Inactive)
REMARK    1  A    between atoms: C3_3  and  C15_23 
REMARK    2  A    between atoms: C4_5  and  N2_7 
REMARK       I    between atoms: N2_7  and  C5_8 
REMARK    3  A    between atoms: C5_8  and  C6_10 
REMARK    4  A    between atoms: C9_13  and  C11_18 
REMARK    5  A    between atoms: C15_23  and  O4_25 
ROOT
ATOM      1  N2  <0> d           0.053  -2.888   2.172  0.00  0.00    -0.301 N 
ATOM      2  C5  <0> d           0.069  -4.219   1.965  0.00  0.00     0.263 C 
ATOM      3  O1  <0> d          -0.024  -4.660   0.835  0.00  0.00    -0.267 OA
ATOM      4  H5  <0> d           0.052  -2.538   3.076  0.00  0.00     0.171 HD
ENDROOT
BRANCH   2   5
ATOM      5  C6  <0> d           0.197  -5.137   3.102  0.00  0.00     0.100 A 
ATOM      6  C10 <0> d           0.316  -6.532   2.886  0.00  0.00     0.261 A 
ATOM      7  N3  <0> d           0.439  -7.369   3.933  0.00  0.00    -0.322 N 
ATOM      8  O2  <0> d           0.312  -6.974   1.750  0.00  0.00    -0.267 OA
ATOM      9  C9  <0> d           0.440  -6.892   5.216  0.00  0.00     0.052 A 
ATOM     10  H1  <0> d           0.524  -8.322   3.777  0.00  0.00     0.169 HD
ATOM     11  C8  <0> d           0.320  -5.531   5.468  0.00  0.00     0.032 A 
ATOM     12  C7  <0> d           0.197  -4.644   4.412  0.00  0.00     0.025 A 
BRANCH   9  13
ATOM     13  C11 <0> d           0.570  -7.827   6.336  0.00  0.00     0.031 A 
ATOM     14  S2  <0> d           0.602  -7.487   8.085  0.00  0.00    -0.100 SA
ATOM     15  C14 <0> d           0.769  -9.056   8.660  0.00  0.00     0.050 A 
ATOM     16  C13 <0> d           0.808  -9.819   7.539  0.00  0.00     0.008 A 
ATOM     17  C12 <0> d           0.707  -9.208   6.312  0.00  0.00     0.021 A 
ENDBRANCH   9  13
ENDBRANCH   2   5
BRANCH   1  18
ATOM     18  C4  <0> d           0.039  -2.021   1.095  0.00  0.00     0.174 A 
ATOM     19  S1  <0> d           0.037  -2.398  -0.545  0.00  0.00    -0.044 SA
ATOM     20  C3  <0> d           0.015  -0.730  -1.183  0.00  0.00     0.107 A 
ATOM     21  C2  <0> d           0.010  -0.004   0.002  0.00  0.00     0.057 A 
ATOM     22  C1  <0> d          -0.008   1.503   0.010  0.00  0.00     0.072 C 
ATOM     23  N1  <0> d           0.029  -0.700   1.110  0.00  0.00    -0.228 NA
BRANCH  20  24
ATOM     24  C15 <0> d           0.003  -0.260  -2.566  0.00  0.00     0.302 C 
ATOM     25  O3  <0> d          -0.013   0.933  -2.803  0.00  0.00    -0.259 OA
BRANCH  24  26
ATOM     26  O4  <0> d           0.010  -1.149  -3.581  0.00  0.00    -0.322 OA
ATOM     27  C16 <0> d          -0.003  -0.619  -4.908  0.00  0.00     0.213 C 
ENDBRANCH  24  26
ENDBRANCH  20  24
ENDBRANCH   1  18
TORSDOF 5
