REMARK  4 active torsions:
REMARK  status: ('A' for Active; 'I' for Inactive)
REMARK    1  A    between atoms: C5_6  and  N2_8 
REMARK    2  A    between atoms: N2_8  and  S1_10 
REMARK    3  A    between atoms: S1_10  and  C8_13 
REMARK    4  A    between atoms: C11_16  and  N3_20 
ROOT
ATOM      1  S1  <0> d           0.577  -3.404   3.551  0.00  0.00     0.264 S 
ATOM      2  O1  <0> d           1.288  -3.247   4.771  0.00  0.00    -0.200 OA
ATOM      3  O2  <0> d          -0.802  -3.086   3.425  0.00  0.00    -0.200 OA
ENDROOT
BRANCH   1   4
ATOM      4  N2  <0> d           1.377  -2.500   2.417  0.00  0.00    -0.305 N 
ATOM      5  C7  <0> d           2.795  -2.182   2.601  0.00  0.00     0.163 C 
BRANCH   4   6
ATOM      6  C5  <0> d           0.666  -2.018   1.230  0.00  0.00     0.121 C 
ATOM      7  C4  <0> d           1.336  -2.575  -0.029  0.00  0.00     0.029 C 
ATOM      8  C3  <0> d           0.634  -2.005  -1.264  0.00  0.00     0.030 C 
ATOM      9  C2  <0> d           0.681  -0.476  -1.210  0.00  0.00     0.234 C 
ATOM     10  N1  <0> d           0.002  -0.004   0.002  0.00  0.00    -0.073 N 
ATOM     11  C1  <0> d          -0.018   1.465   0.010  0.00  0.00     0.269 C 
ATOM     12  C6  <0> d           0.712  -0.489   1.192  0.00  0.00     0.260 C 
ATOM     13  H20 <0> d          -0.945  -0.352   0.012  0.00  0.00     0.279 HD
ENDBRANCH   4   6
ENDBRANCH   1   4
BRANCH   1  14
ATOM     14  C8  <0> d           0.748  -5.095   3.083  0.00  0.00     0.123 A 
ATOM     15  C13 <0> d           1.821  -5.835   3.548  0.00  0.00     0.061 A 
ATOM     16  C12 <0> d           1.955  -7.162   3.187  0.00  0.00     0.054 A 
ATOM     17 Cl1  <0> d           2.997  -5.097   4.590  0.00  0.00    -0.083 Cl
ATOM     18  C11 <0> d           1.017  -7.751   2.349  0.00  0.00     0.029 A 
ATOM     19  C10 <0> d          -0.057  -7.004   1.879  0.00  0.00     0.054 A 
ATOM     20  C9  <0> d          -0.188  -5.678   2.248  0.00  0.00     0.061 A 
ATOM     21 Cl2  <0> d          -1.529  -4.744   1.662  0.00  0.00    -0.083 Cl
BRANCH  18  22
ATOM     22  N3  <0> d           1.152  -9.091   1.979  0.00  0.00    -0.399 N 
ATOM     23  H18 <0> d           0.496  -9.501   1.393  0.00  0.00     0.156 HD
ATOM     24  H19 <0> d           1.902  -9.611   2.307  0.00  0.00     0.156 HD
ENDBRANCH  18  22
ENDBRANCH   1  14
TORSDOF 4
