REMARK  7 active torsions:
REMARK  status: ('A' for Active; 'I' for Inactive)
REMARK    1  A    between atoms: C5_5  and  O1_11 
REMARK    2  A    between atoms: C6_6  and  C8_8 
REMARK    3  A    between atoms: C8_8  and  N1_10 
REMARK    4  A    between atoms: O1_11  and  C10_12 
REMARK    5  A    between atoms: C10_12  and  C11_13 
REMARK    6  A    between atoms: C11_13  and  O2_14 
REMARK    7  A    between atoms: O2_14  and  C12_15 
ROOT
ATOM      1  C1  <0> d          -0.018   1.503   0.010  0.00  0.00     0.048 C 
ATOM      2  C2  <0> d           0.002  -0.004   0.002  0.00  0.00    -0.061 A 
ATOM      3  C3  <0> d           0.006  -0.688  -1.200  0.00  0.00     0.009 A 
ATOM      4  C4  <0> d           0.024  -2.069  -1.210  0.00  0.00     0.038 A 
ATOM      5  C5  <0> d           0.039  -2.770  -0.013  0.00  0.00     0.077 A 
ATOM      6  C6  <0> d           0.036  -2.082   1.191  0.00  0.00     0.005 A 
ATOM      7  C7  <0> d           0.023  -0.701   1.196  0.00  0.00     0.018 A 
ENDROOT
BRANCH   5   8
ATOM      8  O1  <0> d           0.057  -4.129  -0.021  0.00  0.00    -0.348 OA
BRANCH   8   9
ATOM      9  C10 <0> d           0.058  -4.771  -1.298  0.00  0.00     0.202 C 
BRANCH   9  10
ATOM     10  C11 <0> d           0.079  -6.289  -1.105  0.00  0.00     0.202 C 
BRANCH  10  11
ATOM     11  O2  <0> d          -1.133  -6.705  -0.474  0.00  0.00    -0.349 OA
BRANCH  11  12
ATOM     12  C12 <0> d          -1.276  -8.035  -0.230  0.00  0.00     0.068 A 
ATOM     13  C17 <0> d          -2.429  -8.509   0.380  0.00  0.00     0.038 A 
ATOM     14  C16 <0> d          -2.575  -9.861   0.622  0.00  0.00     0.022 A 
ATOM     15  C15 <0> d          -1.568 -10.741   0.268  0.00  0.00     0.011 A 
ATOM     16  C14 <0> d          -0.415 -10.269  -0.335  0.00  0.00     0.022 A 
ATOM     17 Br1  <0> d          -1.766 -12.590   0.609  0.00  0.00    -0.051 Br
ATOM     18  C13 <0> d          -0.268  -8.919  -0.585  0.00  0.00     0.038 A 
ENDBRANCH  11  12
ENDBRANCH  10  11
ENDBRANCH   9  10
ENDBRANCH   8   9
ENDBRANCH   5   8
BRANCH   6  19
ATOM     19  C8  <0> d           0.052  -2.841   2.493  0.00  0.00     0.215 C 
ATOM     20  C9  <0> d          -1.360  -3.333   2.815  0.00  0.00     0.045 C 
BRANCH  19  21
ATOM     21  N1  <0> d           0.520  -1.956   3.569  0.00  0.00    -0.071 N 
ATOM     22  H11 <0> d          -0.102  -1.166   3.649  0.00  0.00     0.275 HD
ATOM     23  H12 <0> d           0.531  -2.465   4.441  0.00  0.00     0.275 HD
ATOM     24  H21 <0> d           1.451  -1.632   3.357  0.00  0.00     0.275 HD
ENDBRANCH  19  21
ENDBRANCH   6  19
TORSDOF 7
