REMARK  5 active torsions:
REMARK  status: ('A' for Active; 'I' for Inactive)
REMARK    1  A    between atoms: C2_2  and  C4_4 
REMARK    2  A    between atoms: C4_4  and  N1_5 
REMARK    3  A    between atoms: C9_14  and  C17_23 
REMARK    4  A    between atoms: C9_14  and  C18_27 
REMARK    5  A    between atoms: C10_15  and  C11_17 
ROOT
ATOM      1  N1  <0> d          -1.213  -0.368  -1.590  0.00  0.00    -0.305 N 
ATOM      2  C5  <0> d          -1.851   0.403  -2.529  0.00  0.00     0.126 A 
ATOM      3  C6  <0> d          -3.134   0.107  -2.887  0.00  0.00     0.100 A 
ATOM      4  C7  <0> d          -3.778  -0.983  -2.277  0.00  0.00     0.260 A 
ATOM      5  O1  <0> d          -4.926  -1.265  -2.576  0.00  0.00    -0.267 OA
ATOM      6  N2  <0> d          -3.116  -1.714  -1.357  0.00  0.00    -0.299 N 
ATOM      7  H1  <0> d          -3.558  -2.466  -0.934  0.00  0.00     0.171 HD
ATOM      8  C8  <0> d          -1.848  -1.412  -1.025  0.00  0.00     0.182 A 
ATOM      9  S1  <0> d          -1.031  -2.367   0.137  0.00  0.00    -0.040 SA
ATOM     10  C9  <0> d          -3.848   0.928  -3.923  0.00  0.00     0.264 C 
ATOM     11  C10 <0> d          -1.957   2.429  -3.772  0.00  0.00     0.114 C 
ATOM     12  N3  <0> d          -1.214   1.474  -3.107  0.00  0.00    -0.327 N 
ATOM     13  H9  <0> d          -0.249   1.558  -3.049  0.00  0.00     0.169 HD
ATOM     14  N4  <0> d          -3.215   2.266  -4.195  0.00  0.00    -0.347 N 
ATOM     15  H15 <0> d          -3.722   3.015  -4.681  0.00  0.00     0.162 HD
ENDROOT
BRANCH  10  16
ATOM     16  C17 <0> d          -3.900   0.144  -5.235  0.00  0.00     0.426 C 
ATOM     17  F1  <0> d          -4.585  -1.059  -5.034  0.00  0.00    -0.168 F 
ATOM     18  F2  <0> d          -4.564   0.902  -6.206  0.00  0.00    -0.168 F 
ATOM     19  F3  <0> d          -2.597  -0.128  -5.667  0.00  0.00    -0.168 F 
ENDBRANCH  10  16
BRANCH  10  20
ATOM     20  C18 <0> d          -5.277   1.202  -3.447  0.00  0.00     0.426 C 
ATOM     21  F4  <0> d          -5.256   1.570  -2.097  0.00  0.00    -0.168 F 
ATOM     22  F5  <0> d          -5.830   2.239  -4.205  0.00  0.00    -0.168 F 
ATOM     23  F6  <0> d          -6.050   0.047  -3.603  0.00  0.00    -0.168 F 
ENDBRANCH  10  20
BRANCH  11  24
ATOM     24  C11 <0> d          -1.349   3.749  -4.057  0.00  0.00     0.008 A 
ATOM     25  C16 <0> d          -2.083   4.727  -4.728  0.00  0.00     0.015 A 
ATOM     26  C15 <0> d          -1.511   5.955  -4.990  0.00  0.00     0.001 A 
ATOM     27  C14 <0> d          -0.213   6.217  -4.589  0.00  0.00     0.000 A 
ATOM     28  C13 <0> d           0.520   5.251  -3.924  0.00  0.00     0.001 A 
ATOM     29  C12 <0> d          -0.043   4.020  -3.651  0.00  0.00     0.015 A 
ENDBRANCH  11  24
BRANCH   1  30
ATOM     30  C4  <0> d           0.166  -0.057  -1.206  0.00  0.00     0.166 C 
BRANCH  30  31
ATOM     31  C2  <0> d           0.160   0.905  -0.046  0.00  0.00    -0.075 C 
ATOM     32  C1  <0> d           0.049   2.387  -0.296  0.00  0.00     0.044 C 
ATOM     33  C3  <0> d           0.252   0.452   1.180  0.00  0.00     0.015 C 
ENDBRANCH  30  31
ENDBRANCH   1  30
TORSDOF 5
