REMARK  4 active torsions:
REMARK  status: ('A' for Active; 'I' for Inactive)
REMARK    1  A    between atoms: C2_2  and  N1_3 
REMARK    2  A    between atoms: C5_7  and  C6_8 
REMARK    3  A    between atoms: C6_8  and  C7_9 
REMARK    4  A    between atoms: C6_8  and  N3_16 
ROOT
ATOM      1  C6  <0> d          -1.788  -0.409  -2.494  0.00  0.00     0.318 C 
ENDROOT
BRANCH   1   2
ATOM      2  C5  <0> d          -2.167  -0.694  -1.064  0.00  0.00     0.121 A 
ATOM      3  N1  <0> d          -1.372  -0.511   0.012  0.00  0.00    -0.344 N 
ATOM      4  C3  <0> d          -2.093  -0.883   1.115  0.00  0.00     0.109 A 
ATOM      5  C4  <0> d          -3.300  -1.284   0.675  0.00  0.00     0.106 A 
ATOM      6  N2  <0> d          -3.317  -1.161  -0.660  0.00  0.00    -0.352 N 
ATOM      7  H15 <0> d          -4.067  -1.381  -1.235  0.00  0.00     0.166 HD
BRANCH   3   8
ATOM      8  C2  <0> d           0.002  -0.004   0.002  0.00  0.00     0.125 C 
ATOM      9  C1  <0> d          -0.019   1.526   0.010  0.00  0.00     0.027 C 
ENDBRANCH   3   8
ENDBRANCH   1   2
BRANCH   1  10
ATOM     10  C7  <0> d          -2.260   0.971  -2.874  0.00  0.00    -0.017 A 
ATOM     11  C12 <0> d          -1.371   2.029  -2.876  0.00  0.00     0.028 A 
ATOM     12  C11 <0> d          -1.802   3.295  -3.230  0.00  0.00     0.007 A 
ATOM     13  C10 <0> d          -3.126   3.503  -3.570  0.00  0.00     0.018 A 
ATOM     14  I1  <0> d          -0.452   4.897  -3.243  0.00  0.00    -0.045 I 
ATOM     15  C9  <0> d          -4.017   2.446  -3.562  0.00  0.00     0.002 A 
ATOM     16  C8  <0> d          -3.584   1.180  -3.214  0.00  0.00     0.010 A 
ENDBRANCH   1  10
BRANCH   1  17
ATOM     17  N3  <0> d          -2.419  -1.401  -3.375  0.00  0.00     0.094 N 
ATOM     18  H13 <0> d          -3.424  -1.369  -3.294  0.00  0.00     0.314 HD
ATOM     19  H14 <0> d          -2.128  -1.271  -4.333  0.00  0.00     0.314 HD
ENDBRANCH   1  17
TORSDOF 4
