REMARK  4 active torsions:
REMARK  status: ('A' for Active; 'I' for Inactive)
REMARK    1  A    between atoms: C2_2  and  C3_3 
REMARK    2  A    between atoms: C2_2  and  O2_7 
REMARK       I    between atoms: C3_3  and  N1_5 
REMARK    3  A    between atoms: O2_7  and  C5_8 
REMARK    4  A    between atoms: C10_13  and  C11_14 
ROOT
ATOM      1  C5  <0> d           2.019  -0.736   1.025  0.00  0.00     0.086 A 
ATOM      2  C6  <0> d           2.663  -0.465  -0.172  0.00  0.00     0.038 A 
ATOM      3  C7  <0> d           3.998  -0.786  -0.330  0.00  0.00     0.006 A 
ATOM      4  C8  <0> d           4.704  -1.380   0.703  0.00  0.00     0.043 A 
ATOM      5  C9  <0> d           4.080  -1.658   1.903  0.00  0.00     0.132 A 
ATOM      6  C10 <0> d           2.729  -1.332   2.078  0.00  0.00     0.073 A 
ATOM      7  F1  <0> d           4.772  -2.238   2.908  0.00  0.00    -0.205 F 
ENDROOT
BRANCH   1   8
ATOM      8  O2  <0> d           0.709  -0.421   1.180  0.00  0.00    -0.336 OA
BRANCH   8   9
ATOM      9  C2  <0> d           0.022   0.080   0.032  0.00  0.00     0.216 C 
ATOM     10  C1  <0> d           0.244   1.590  -0.077  0.00  0.00     0.050 C 
BRANCH   9  11
ATOM     11  C3  <0> d          -1.452  -0.202   0.165  0.00  0.00     0.246 C 
ATOM     12  O1  <0> d          -1.886  -0.694   1.185  0.00  0.00    -0.271 OA
ATOM     13  N1  <0> d          -2.289   0.092  -0.850  0.00  0.00    -0.363 N 
ATOM     14  C4  <0> d          -3.723  -0.182  -0.720  0.00  0.00     0.149 C 
ATOM     15  H5  <0> d          -1.943   0.486  -1.666  0.00  0.00     0.162 HD
ENDBRANCH   9  11
ENDBRANCH   8   9
ENDBRANCH   1   8
BRANCH   6  16
ATOM     16  C11 <0> d           2.057  -1.619   3.356  0.00  0.00     0.110 C 
ATOM     17  S1  <0> d           0.369  -1.381   3.508  0.00  0.00    -0.060 SA
ATOM     18  N2  <0> d           2.771  -2.070   4.406  0.00  0.00    -0.389 N 
ATOM     19  H12 <0> d           3.714  -2.273   4.301  0.00  0.00     0.157 HD
ATOM     20  H13 <0> d           2.343  -2.191   5.268  0.00  0.00     0.157 HD
ENDBRANCH   6  16
TORSDOF 4
