REMARK  6 active torsions:
REMARK  status: ('A' for Active; 'I' for Inactive)
REMARK    1  A    between atoms: O1_2  and  C2_3 
REMARK    2  A    between atoms: C2_3  and  C3_4 
REMARK    3  A    between atoms: C3_4  and  N1_5 
REMARK    4  A    between atoms: N1_5  and  C4_6 
REMARK    5  A    between atoms: C4_6  and  C5_7 
REMARK    6  A    between atoms: C4_6  and  C13_18 
ROOT
ATOM      1  C5  <0> d           0.388  -4.470   2.460  0.00  0.00    -0.013 A 
ATOM      2  C6  <0> d           1.327  -5.479   2.358  0.00  0.00     0.049 A 
ATOM      3  C7  <0> d           2.034  -5.887   3.480  0.00  0.00     0.104 A 
ATOM      4  C8  <0> d           1.796  -5.277   4.706  0.00  0.00     0.119 A 
ATOM      5  C9  <0> d           0.851  -4.267   4.802  0.00  0.00     0.047 A 
ATOM      6  C10 <0> d           0.153  -3.862   3.679  0.00  0.00     0.032 A 
ATOM      7 Br1  <0> d           0.520  -3.438   6.469  0.00  0.00    -0.048 Br
ATOM      8  O2  <0> d           2.484  -5.657   5.818  0.00  0.00    -0.345 OA
ATOM      9  C11 <0> d           3.152  -6.922   5.760  0.00  0.00     0.202 C 
ATOM     10  C12 <0> d           3.906  -7.007   4.426  0.00  0.00     0.202 C 
ATOM     11  O3  <0> d           2.953  -6.884   3.364  0.00  0.00    -0.346 OA
ENDROOT
BRANCH   1  12
ATOM     12  C4  <0> d          -0.378  -4.029   1.239  0.00  0.00     0.319 C 
BRANCH  12  13
ATOM     13  N1  <0> d          -0.514  -2.567   1.248  0.00  0.00    -0.055 N 
ATOM     14  H9  <0> d           0.400  -2.144   1.325  0.00  0.00     0.278 HD
ATOM     15  H16 <0> d          -1.081  -2.286   2.035  0.00  0.00     0.278 HD
BRANCH  13  16
ATOM     16  C3  <0> d          -1.154  -2.126   0.002  0.00  0.00     0.260 C 
BRANCH  16  17
ATOM     17  C2  <0> d          -1.295  -0.603   0.011  0.00  0.00     0.194 C 
BRANCH  17  18
ATOM     18  O1  <0> d           0.002  -0.004   0.002  0.00  0.00    -0.394 OA
ATOM     19  C1  <0> d          -0.017   1.425   0.010  0.00  0.00     0.201 C 
ENDBRANCH  17  18
ENDBRANCH  16  17
ENDBRANCH  13  16
ENDBRANCH  12  13
BRANCH  12  20
ATOM     20  C13 <0> d          -1.746  -4.661   1.249  0.00  0.00     0.209 C 
ATOM     21  O4  <0> d          -2.742  -3.958   1.262  0.00  0.00    -0.646 OA
ATOM     22  O5  <0> d          -1.857  -5.875   1.244  0.00  0.00    -0.646 OA
ENDBRANCH  12  20
ENDBRANCH   1  12
TORSDOF 6
