REMARK  6 active torsions:
REMARK  status: ('A' for Active; 'I' for Inactive)
REMARK    1  A    between atoms: C9_12  and  C11_14 
REMARK    2  A    between atoms: C11_14  and  C12_15 
REMARK    3  A    between atoms: C11_14  and  N6_29 
REMARK    4  A    between atoms: N5_19  and  C13_20 
REMARK    5  A    between atoms: C13_20  and  C14_21 
REMARK    6  A    between atoms: C14_21  and  O2_22 
ROOT
ATOM      1  C11 <0> d           0.087  -2.864   4.922  0.00  0.00     0.299 C 
ENDROOT
BRANCH   1   2
ATOM      2  C9  <0> d           0.056  -2.152   3.594  0.00  0.00     0.049 A 
ATOM      3  C8  <0> d          -1.106  -2.206   2.795  0.00  0.00     0.254 A 
ATOM      4  N1  <0> d          -1.173  -1.583   1.605  0.00  0.00    -0.322 N 
ATOM      5  O1  <0> d          -2.073  -2.832   3.193  0.00  0.00    -0.268 OA
ATOM      6  C7  <0> d          -0.102  -0.865   1.119  0.00  0.00     0.051 A 
ATOM      7  H1  <0> d          -2.013  -1.642   1.065  0.00  0.00     0.169 HD
ATOM      8  C2  <0> d          -0.171  -0.221  -0.112  0.00  0.00    -0.034 A 
ATOM      9  C6  <0> d           1.081  -0.780   1.878  0.00  0.00    -0.008 A 
ATOM     10  C1  <0> d          -1.428  -0.302  -0.939  0.00  0.00     0.050 C 
ATOM     11  C3  <0> d           0.918   0.486  -0.576  0.00  0.00     0.009 A 
ATOM     12  C4  <0> d           2.080   0.572   0.178  0.00  0.00     0.002 A 
ATOM     13  C5  <0> d           2.171  -0.052   1.390  0.00  0.00     0.014 A 
ATOM     14  C10 <0> d           1.144  -1.461   3.172  0.00  0.00     0.029 A 
ENDBRANCH   1   2
BRANCH   1  15
ATOM     15  C12 <0> d           1.427  -2.648   5.576  0.00  0.00     0.183 A 
ATOM     16  N5  <0> d           2.427  -3.544   5.675  0.00  0.00    -0.230 N 
ATOM     17  N4  <0> d           3.395  -2.965   6.302  0.00  0.00    -0.044 NA
ATOM     18  N3  <0> d           3.041  -1.762   6.593  0.00  0.00    -0.023 NA
ATOM     19  N2  <0> d           1.848  -1.550   6.155  0.00  0.00    -0.111 NA
BRANCH  16  20
ATOM     20  C13 <0> d           2.418  -4.918   5.166  0.00  0.00     0.180 C 
BRANCH  20  21
ATOM     21  C14 <0> d           2.953  -4.934   3.732  0.00  0.00     0.189 C 
BRANCH  21  22
ATOM     22  O2  <0> d           2.944  -6.274   3.236  0.00  0.00    -0.394 OA
ATOM     23  C15 <0> d           3.427  -6.401   1.897  0.00  0.00     0.201 C 
ENDBRANCH  21  22
ENDBRANCH  20  21
ENDBRANCH  16  20
ENDBRANCH   1  15
BRANCH   1  24
ATOM     24  N6  <0> d          -0.998  -2.338   5.775  0.00  0.00    -0.056 N 
ATOM     25  C16 <0> d          -0.838  -0.879   5.953  0.00  0.00     0.236 C 
ATOM     26  C17 <0> d          -2.036  -0.340   6.738  0.00  0.00     0.028 C 
ATOM     27  C18 <0> d          -2.092  -1.024   8.107  0.00  0.00     0.003 C 
ATOM     28  C19 <0> d          -2.183  -2.539   7.908  0.00  0.00     0.028 C 
ATOM     29  C20 <0> d          -0.981  -3.015   7.089  0.00  0.00     0.236 C 
ATOM     30  H27 <0> d          -1.900  -2.521   5.318  0.00  0.00     0.281 HD
ENDBRANCH   1  24
TORSDOF 6
