REMARK  4 active torsions:
REMARK  status: ('A' for Active; 'I' for Inactive)
REMARK    1  A    between atoms: C2_2  and  O3_22 
REMARK    2  A    between atoms: C5_5  and  N4_19 
REMARK    3  A    between atoms: N2_10  and  C9_11 
REMARK    4  A    between atoms: C9_11  and  C10_12 
ROOT
ATOM      1  C1  <0> d           0.893   2.034   0.225  0.00  0.00     0.071 C 
ATOM      2  C2  <0> d           0.864   0.527  -0.037  0.00  0.00     0.131 C 
ATOM      3  C3  <0> d           1.867   0.173  -1.144  0.00  0.00     0.067 C 
ATOM      4  C4  <0> d           1.948  -1.347  -1.294  0.00  0.00     0.072 C 
ATOM      5  C5  <0> d           2.355  -1.979   0.013  0.00  0.00     0.124 C 
ATOM      6  C6  <0> d           1.987  -1.387   1.158  0.00  0.00     0.133 A 
ATOM      7  N1  <0> d           1.263  -0.197   1.177  0.00  0.00    -0.332 N 
ATOM      8  C7  <0> d           0.991   0.180   2.563  0.00  0.00     0.147 A 
ATOM      9  C8  <0> d           1.664  -0.914   3.410  0.00  0.00     0.145 A 
ATOM     10  N2  <0> d           2.263  -1.835   2.436  0.00  0.00    -0.360 N 
ENDROOT
BRANCH  10  11
ATOM     11  C9  <0> d           3.030  -3.039   2.765  0.00  0.00     0.164 C 
BRANCH  11  12
ATOM     12  C10 <0> d           4.377  -2.642   3.312  0.00  0.00    -0.023 A 
ATOM     13  C14 <0> d           4.588  -2.581   4.676  0.00  0.00     0.127 A 
ATOM     14  N3  <0> d           5.766  -2.240   5.162  0.00  0.00    -0.248 NA
ATOM     15  C13 <0> d           6.779  -1.934   4.375  0.00  0.00     0.125 A 
ATOM     16  C12 <0> d           6.640  -1.967   2.998  0.00  0.00     0.045 A 
ATOM     17 Cl1  <0> d           8.304  -1.485   5.073  0.00  0.00    -0.062 Cl
ATOM     18  C11 <0> d           5.419  -2.326   2.452  0.00  0.00     0.013 A 
ENDBRANCH  11  12
ENDBRANCH  10  11
BRANCH   5  19
ATOM     19  N4  <0> d           3.146  -3.231   0.033  0.00  0.00    -0.116 N 
ATOM     20  O1  <0> d           2.587  -4.298   0.139  0.00  0.00    -0.532 OA
ATOM     21  O2  <0> d           4.351  -3.186  -0.058  0.00  0.00    -0.532 OA
ENDBRANCH   5  19
BRANCH   2  22
ATOM     22  O3  <0> d          -0.452   0.130  -0.428  0.00  0.00    -0.371 OA
ATOM     23  H17 <0> d          -0.771   0.562  -1.232  0.00  0.00     0.212 HD
ENDBRANCH   2  22
TORSDOF 4
