REMARK  7 active torsions:
REMARK  status: ('A' for Active; 'I' for Inactive)
REMARK    1  A    between atoms: C5_5  and  C6_7 
REMARK    2  A    between atoms: C6_7  and  N2_26 
REMARK    3  A    between atoms: C7_8  and  C8_9 
REMARK    4  A    between atoms: C7_8  and  N2_26 
REMARK    5  A    between atoms: C8_9  and  O2_24 
REMARK    6  A    between atoms: N1_13  and  C13_16 
REMARK    7  A    between atoms: C13_16  and  C14_17 
ROOT
ATOM      1  C8  <0> d           1.295   1.575  -0.003  0.00  0.00     0.162 C 
ATOM      2  C9  <0> d           1.195   3.102  -0.004  0.00  0.00     0.051 C 
ATOM      3  C10 <0> d           0.679   3.553  -1.376  0.00  0.00     0.023 C 
ATOM      4  C11 <0> d           1.749   3.251  -2.425  0.00  0.00     0.126 C 
ATOM      5  N1  <0> d           2.195   1.867  -2.316  0.00  0.00    -0.345 N 
ATOM      6  C12 <0> d           2.020   1.109  -1.233  0.00  0.00     0.256 C 
ATOM      7  O1  <0> d           2.470  -0.017  -1.242  0.00  0.00    -0.270 OA
ENDROOT
BRANCH   1   8
ATOM      8  C7  <0> d           2.061   1.116   1.240  0.00  0.00     0.280 C 
BRANCH   8   9
ATOM      9  N2  <0> d           1.389   1.644   2.443  0.00  0.00    -0.068 N 
ATOM     10  H23 <0> d           1.292   2.663   2.357  0.00  0.00     0.277 HD
ATOM     11  H24 <0> d           0.460   1.217   2.527  0.00  0.00     0.277 HD
BRANCH   9  12
ATOM     12  C6  <0> d           2.179   1.331   3.649  0.00  0.00     0.278 C 
BRANCH  12  13
ATOM     13  C5  <0> d           1.471   1.882   4.860  0.00  0.00     0.008 A 
ATOM     14  C4  <0> d           0.547   1.286   5.653  0.00  0.00     0.017 A 
ATOM     15  C3  <0> d           0.027   1.990   6.723  0.00  0.00     0.015 A 
ATOM     16  C2  <0> d           0.457   3.256   6.947  0.00  0.00    -0.021 A 
ATOM     17  C1  <0> d           0.048   4.218   8.033  0.00  0.00     0.056 C 
ATOM     18  S1  <0> d           1.637   3.485   5.627  0.00  0.00    -0.098 SA
ENDBRANCH  12  13
ENDBRANCH   9  12
ENDBRANCH   8   9
ENDBRANCH   1   8
BRANCH   1  19
ATOM     19  O2  <0> d          -0.019   1.013   0.015  0.00  0.00    -0.378 OA
ATOM     20  H22 <0> d          -0.033   0.046   0.017  0.00  0.00     0.211 HD
ENDBRANCH   1  19
BRANCH   5  21
ATOM     21  C13 <0> d           2.878   1.273  -3.467  0.00  0.00     0.164 C 
BRANCH  21  22
ATOM     22  C14 <0> d           4.361   1.512  -3.350  0.00  0.00    -0.040 A 
ATOM     23  C19 <0> d           5.160   0.593  -2.694  0.00  0.00     0.012 A 
ATOM     24  C18 <0> d           6.520   0.811  -2.587  0.00  0.00     0.043 A 
ATOM     25  C17 <0> d           7.083   1.951  -3.135  0.00  0.00     0.116 A 
ATOM     26  C16 <0> d           6.283   2.871  -3.790  0.00  0.00     0.043 A 
ATOM     27  F1  <0> d           8.413   2.165  -3.030  0.00  0.00    -0.206 F 
ATOM     28  C15 <0> d           4.924   2.648  -3.902  0.00  0.00     0.012 A 
ENDBRANCH  21  22
ENDBRANCH   5  21
TORSDOF 7
