REMARK  6 active torsions:
REMARK  status: ('A' for Active; 'I' for Inactive)
REMARK    1  A    between atoms: C4_5  and  C5_6 
REMARK    2  A    between atoms: C5_6  and  C6_7 
REMARK    3  A    between atoms: C5_6  and  S2_9 
REMARK    4  A    between atoms: C6_7  and  N1_8 
REMARK    5  A    between atoms: S2_9  and  C7_10 
REMARK    6  A    between atoms: N5_14  and  C8_15 
ROOT
ATOM      1  C5  <0> d          -1.148  -0.892  -0.120  0.00  0.00     0.120 C 
ENDROOT
BRANCH   1   2
ATOM      2  C4  <0> d          -0.318   0.357   0.024  0.00  0.00    -0.000 A 
ATOM      3  C1  <0> d          -0.718   1.653   0.028  0.00  0.00     0.035 A 
ATOM      4  C2  <0> d           0.231   2.647   0.176  0.00  0.00     0.018 A 
ATOM      5  C3  <0> d           1.534   2.297   0.314  0.00  0.00     0.069 A 
ATOM      6 Br1  <0> d          -0.280   4.468   0.186  0.00  0.00    -0.051 Br
ATOM      7  S1  <0> d           1.448   0.515   0.236  0.00  0.00    -0.104 SA
ENDBRANCH   1   2
BRANCH   1   8
ATOM      8  C6  <0> d          -0.690  -1.670  -1.355  0.00  0.00     0.250 C 
BRANCH   8   9
ATOM      9  N1  <0> d          -0.976  -0.884  -2.562  0.00  0.00    -0.078 N 
ATOM     10  H6  <0> d          -0.418  -0.043  -2.557  0.00  0.00     0.274 HD
ATOM     11  H7  <0> d          -0.752  -1.431  -3.380  0.00  0.00     0.274 HD
ATOM     12  H13 <0> d          -1.955  -0.638  -2.579  0.00  0.00     0.274 HD
ENDBRANCH   8   9
ENDBRANCH   1   8
BRANCH   1  13
ATOM     13  S2  <0> d          -0.945  -1.927   1.357  0.00  0.00    -0.077 SA
BRANCH  13  14
ATOM     14  C7  <0> d          -2.135  -3.209   1.145  0.00  0.00     0.210 A 
ATOM     15  N5  <0> d          -2.314  -4.281   1.952  0.00  0.00    -0.220 N 
ATOM     16  N4  <0> d          -3.371  -5.006   1.375  0.00  0.00    -0.043 NA
ATOM     17  N3  <0> d          -3.730  -4.363   0.317  0.00  0.00    -0.022 NA
ATOM     18  N2  <0> d          -3.013  -3.308   0.171  0.00  0.00    -0.102 NA
BRANCH  15  19
ATOM     19  C8  <0> d          -1.567  -4.614   3.168  0.00  0.00     0.114 A 
ATOM     20  C10 <0> d          -0.812  -5.944   3.192  0.00  0.00     0.029 A 
ATOM     21  C9  <0> d          -2.087  -5.773   4.021  0.00  0.00     0.029 A 
ENDBRANCH  15  19
ENDBRANCH  13  14
ENDBRANCH   1  13
TORSDOF 6
