REMARK  5 active torsions:
REMARK  status: ('A' for Active; 'I' for Inactive)
REMARK    1  A    between atoms: C5_5  and  C7_8 
REMARK       I    between atoms: C7_8  and  N2_10 
REMARK    2  A    between atoms: N2_10  and  C8_11 
REMARK    3  A    between atoms: C8_11  and  C10_13 
REMARK    4  A    between atoms: C14_17  and  S1_19 
REMARK    5  A    between atoms: S1_19  and  N3_22 
ROOT
ATOM      1  C8  <0> d           0.329  -4.176   3.758  0.00  0.00     0.114 C 
ATOM      2  C9  <0> d           1.802  -4.582   3.839  0.00  0.00     0.037 C 
ENDROOT
BRANCH   1   3
ATOM      3  N2  <0> d           0.188  -3.021   2.869  0.00  0.00    -0.347 N 
ATOM      4  C7  <0> d           0.077  -3.203   1.539  0.00  0.00     0.268 C 
ATOM      5  O1  <0> d          -0.000  -4.329   1.084  0.00  0.00    -0.266 OA
ATOM      6  H10 <0> d           0.175  -2.124   3.239  0.00  0.00     0.163 HD
BRANCH   4   7
ATOM      7  C5  <0> d           0.049  -2.045   0.639  0.00  0.00     0.102 A 
ATOM      8  C4  <0> d           0.030  -0.720   1.018  0.00  0.00     0.037 A 
ATOM      9  C3  <0> d           0.007   0.042  -0.155  0.00  0.00     0.027 A 
ATOM     10  C2  <0> d           0.012  -0.812  -1.206  0.00  0.00     0.008 A 
ATOM     11  C1  <0> d          -0.009  -0.414  -2.659  0.00  0.00     0.068 C 
ATOM     12  N1  <0> d           0.032  -2.084  -0.737  0.00  0.00    -0.351 N 
ATOM     13  C6  <0> d           0.038  -3.297  -1.558  0.00  0.00     0.156 C 
ENDBRANCH   4   7
ENDBRANCH   1   3
BRANCH   1  14
ATOM     14  C10 <0> d          -0.169  -3.816   5.134  0.00  0.00    -0.034 A 
ATOM     15  C15 <0> d          -0.903  -4.730   5.866  0.00  0.00     0.034 A 
ATOM     16  C14 <0> d          -1.356  -4.400   7.130  0.00  0.00     0.080 A 
ATOM     17  C13 <0> d          -1.082  -3.153   7.658  0.00  0.00     0.025 A 
ATOM     18  C12 <0> d          -0.352  -2.236   6.925  0.00  0.00     0.002 A 
ATOM     19  C11 <0> d           0.104  -2.567   5.663  0.00  0.00     0.009 A 
BRANCH  16  20
ATOM     20  S1  <0> d          -2.286  -5.569   8.065  0.00  0.00     0.258 S 
ATOM     21  O2  <0> d          -1.940  -6.854   7.568  0.00  0.00    -0.201 OA
ATOM     22  O3  <0> d          -2.129  -5.213   9.431  0.00  0.00    -0.201 OA
BRANCH  20  23
ATOM     23  N3  <0> d          -3.883  -5.333   7.694  0.00  0.00    -0.320 N 
ATOM     24  C16 <0> d          -4.365  -5.590   6.335  0.00  0.00     0.159 C 
ATOM     25  H18 <0> d          -4.498  -5.024   8.377  0.00  0.00     0.171 HD
ENDBRANCH  20  23
ENDBRANCH  16  20
ENDBRANCH   1  14
TORSDOF 5
