REMARK  5 active torsions:
REMARK  status: ('A' for Active; 'I' for Inactive)
REMARK    1  A    between atoms: C2_2  and  C3_3 
REMARK    2  A    between atoms: C3_3  and  N1_4 
REMARK    3  A    between atoms: N1_4  and  C4_5 
REMARK    4  A    between atoms: C5_6  and  C9_12 
REMARK       I    between atoms: C9_12  and  N3_14 
REMARK    5  A    between atoms: N3_14  and  C10_15 
ROOT
ATOM      1  C4  <0> d           1.353  -2.639  -2.303  0.00  0.00     0.139 A 
ATOM      2  C5  <0> d           1.442  -4.041  -2.268  0.00  0.00     0.078 A 
ATOM      3  C6  <0> d           2.034  -4.706  -3.347  0.00  0.00     0.041 A 
ATOM      4  C7  <0> d           2.509  -3.950  -4.405  0.00  0.00     0.029 A 
ATOM      5  C8  <0> d           2.385  -2.572  -4.367  0.00  0.00     0.138 A 
ATOM      6  N2  <0> d           1.819  -1.965  -3.343  0.00  0.00    -0.241 NA
ATOM      7 Br1  <0> d           3.320  -4.794  -5.891  0.00  0.00    -0.050 Br
ENDROOT
BRANCH   2   8
ATOM      8  C9  <0> d           0.920  -4.797  -1.115  0.00  0.00     0.255 C 
ATOM      9  O1  <0> d           0.313  -4.220  -0.233  0.00  0.00    -0.268 OA
ATOM     10  N3  <0> d           1.117  -6.128  -1.037  0.00  0.00    -0.350 N 
ATOM     11  H12 <0> d           1.601  -6.589  -1.740  0.00  0.00     0.163 HD
BRANCH  10  12
ATOM     12  C10 <0> d           0.599  -6.880   0.109  0.00  0.00     0.112 C 
ATOM     13  C13 <0> d           0.406  -8.361  -0.266  0.00  0.00     0.259 C 
ATOM     14  N4  <0> d           1.308  -9.148   0.606  0.00  0.00    -0.073 N 
ATOM     15  C12 <0> d           1.517  -8.322   1.823  0.00  0.00     0.236 C 
ATOM     16  C14 <0> d           0.678 -10.426   0.963  0.00  0.00     0.269 C 
ATOM     17  H22 <0> d           2.189  -9.310   0.141  0.00  0.00     0.279 HD
ATOM     18  C11 <0> d           1.631  -6.883   1.260  0.00  0.00     0.054 C 
ENDBRANCH  10  12
ENDBRANCH   2   8
BRANCH   1  19
ATOM     19  N1  <0> d           0.772  -1.960  -1.248  0.00  0.00    -0.374 N 
ATOM     20  H9  <0> d           0.359  -2.453  -0.522  0.00  0.00     0.161 HD
BRANCH  19  21
ATOM     21  C3  <0> d           0.779  -0.495  -1.226  0.00  0.00     0.121 C 
BRANCH  21  22
ATOM     22  C2  <0> d           0.077   0.000   0.040  0.00  0.00     0.015 C 
ATOM     23  C1  <0> d           0.085   1.530   0.062  0.00  0.00     0.006 C 
ENDBRANCH  21  22
ENDBRANCH  19  21
ENDBRANCH   1  19
TORSDOF 5
