REMARK  7 active torsions:
REMARK  status: ('A' for Active; 'I' for Inactive)
REMARK       I    between atoms: N1_6  and  C7_8 
REMARK    1  A    between atoms: C7_8  and  C8_10 
REMARK    2  A    between atoms: C13_15  and  N2_16 
REMARK       I    between atoms: N2_16  and  C14_17 
REMARK    3  A    between atoms: C14_17  and  C15_19 
REMARK    4  A    between atoms: C15_19  and  C16_20 
REMARK    5  A    between atoms: C16_20  and  C17_21 
REMARK    6  A    between atoms: C17_21  and  C18_22 
REMARK    7  A    between atoms: C18_22  and  C19_23 
ROOT
ATOM      1  N2  <0> d           4.025  -4.441   1.461  0.00  0.00    -0.326 N 
ATOM      2  C14 <0> d           4.866  -5.236   2.152  0.00  0.00     0.222 C 
ATOM      3  O2  <0> d           5.843  -4.761   2.692  0.00  0.00    -0.273 OA
ATOM      4  H19 <0> d           3.275  -4.829   0.983  0.00  0.00     0.169 HD
ENDROOT
BRANCH   1   5
ATOM      5  C13 <0> d           4.232  -3.064   1.434  0.00  0.00     0.050 A 
ATOM      6  C8  <0> d           3.140  -2.189   1.347  0.00  0.00     0.059 A 
ATOM      7  C9  <0> d           3.361  -0.809   1.326  0.00  0.00     0.019 A 
ATOM      8  C10 <0> d           4.648  -0.319   1.385  0.00  0.00     0.001 A 
ATOM      9  C11 <0> d           5.725  -1.187   1.465  0.00  0.00     0.002 A 
ATOM     10  C12 <0> d           5.522  -2.552   1.486  0.00  0.00     0.030 A 
BRANCH   6  11
ATOM     11  C7  <0> d           1.766  -2.721   1.285  0.00  0.00     0.256 C 
ATOM     12  N1  <0> d           0.938  -2.335   0.293  0.00  0.00    -0.347 N 
ATOM     13  C5  <0> d          -0.407  -2.914   0.173  0.00  0.00     0.130 C 
ATOM     14  C6  <0> d           1.364  -1.327  -0.688  0.00  0.00     0.130 C 
ATOM     15  C4  <0> d          -0.581  -3.467  -1.245  0.00  0.00    -0.000 C 
ATOM     16  C3  <0> d          -0.280  -2.361  -2.260  0.00  0.00     0.011 C 
ATOM     17  C24 <0> d           0.384  -4.634  -1.461  0.00  0.00     0.011 C 
ATOM     18  C2  <0> d           1.170  -1.897  -2.096  0.00  0.00    -0.000 C 
ATOM     19  C1  <0> d           1.480  -0.815  -3.132  0.00  0.00     0.011 C 
ATOM     20  O1  <0> d           1.379  -3.507   2.128  0.00  0.00    -0.267 OA
ENDBRANCH   6  11
ENDBRANCH   1   5
BRANCH   2  21
ATOM     21  C15 <0> d           4.593  -6.714   2.255  0.00  0.00     0.103 C 
BRANCH  21  22
ATOM     22  C16 <0> d           5.691  -7.380   3.087  0.00  0.00     0.009 C 
BRANCH  22  23
ATOM     23  C17 <0> d           5.413  -8.881   3.191  0.00  0.00     0.002 C 
BRANCH  23  24
ATOM     24  C18 <0> d           6.511  -9.546   4.023  0.00  0.00     0.017 C 
BRANCH  24  25
ATOM     25  C19 <0> d           6.234 -11.047   4.127  0.00  0.00     0.072 C 
ATOM     26  S1  <0> d           4.756 -11.376   5.183  0.00  0.00    -0.160 SA
ATOM     27  C22 <0> d           5.286 -13.002   5.849  0.00  0.00     0.101 C 
ATOM     28  C21 <0> d           6.822 -12.846   5.872  0.00  0.00     0.119 A 
ATOM     29  C20 <0> d           7.345 -11.762   4.925  0.00  0.00     0.123 A 
ATOM     30  N3  <0> d           7.229 -12.381   7.207  0.00  0.00    -0.336 N 
ATOM     31  N4  <0> d           7.989 -10.793   5.826  0.00  0.00    -0.335 N 
ATOM     32  C23 <0> d           7.884 -11.218   7.084  0.00  0.00     0.316 A 
ATOM     33  H31 <0> d           8.427  -9.973   5.550  0.00  0.00     0.164 HD
ATOM     34  O3  <0> d           8.335 -10.607   8.033  0.00  0.00    -0.247 OA
ATOM     35  H30 <0> d           7.052 -12.841   8.043  0.00  0.00     0.164 HD
ENDBRANCH  24  25
ENDBRANCH  23  24
ENDBRANCH  22  23
ENDBRANCH  21  22
ENDBRANCH   2  21
TORSDOF 7
