REMARK  5 active torsions:
REMARK  status: ('A' for Active; 'I' for Inactive)
REMARK    1  A    between atoms: C4_4  and  N1_7 
REMARK       I    between atoms: N1_7  and  C7_8 
REMARK    2  A    between atoms: C7_8  and  C8_10 
REMARK    3  A    between atoms: C14_17  and  C20_23 
REMARK    4  A    between atoms: C22_25  and  N3_30 
REMARK    5  A    between atoms: C25_28  and  O2_29 
ROOT
ATOM      1  C8  <0> d           7.131   0.906  -0.644  0.00  0.00     0.059 A 
ATOM      2  C9  <0> d           8.447   1.192  -0.284  0.00  0.00     0.019 A 
ATOM      3  C10 <0> d           8.720   2.258   0.545  0.00  0.00     0.002 A 
ATOM      4  C11 <0> d           7.684   3.048   1.016  0.00  0.00     0.010 A 
ATOM      5  C12 <0> d           6.378   2.784   0.666  0.00  0.00    -0.022 A 
ATOM      6  C13 <0> d           6.070   1.702  -0.164  0.00  0.00     0.051 A 
ATOM      7  N2  <0> d           4.783   1.343  -0.531  0.00  0.00    -0.379 N 
ATOM      8  C14 <0> d           3.694   2.226  -0.085  0.00  0.00     0.123 C 
ATOM      9  C15 <0> d           4.032   2.676   1.321  0.00  0.00     0.028 C 
ATOM     10  C16 <0> d           5.259   3.624   1.146  0.00  0.00     0.050 C 
ATOM     11  C17 <0> d           5.278   4.378   2.434  0.00  0.00    -0.021 C 
ATOM     12  C18 <0> d           4.047   4.417   2.933  0.00  0.00    -0.029 C 
ATOM     13  C19 <0> d           3.085   3.667   2.007  0.00  0.00     0.035 C 
ATOM     14  H13 <0> d           4.556   0.447  -1.127  0.00  0.00     0.160 HD
ENDROOT
BRANCH   8  15
ATOM     15  C20 <0> d           2.389   1.471  -0.083  0.00  0.00     0.000 A 
ATOM     16  C25 <0> d           1.704   1.267  -1.271  0.00  0.00     0.074 A 
ATOM     17  C24 <0> d           0.503   0.572  -1.266  0.00  0.00     0.039 A 
ATOM     18  C23 <0> d          -0.007   0.085  -0.078  0.00  0.00     0.039 A 
ATOM     19  C22 <0> d           0.679   0.290   1.105  0.00  0.00     0.103 A 
ATOM     20  C21 <0> d           1.875   0.982   1.103  0.00  0.00     0.048 A 
BRANCH  16  21
ATOM     21  O2  <0> d           2.208   1.747  -2.438  0.00  0.00    -0.360 OA
ATOM     22  H21 <0> d           1.663   1.585  -3.380  0.00  0.00     0.217 HD
ENDBRANCH  16  21
BRANCH  19  23
ATOM     23  N3  <0> d           0.130  -0.233   2.377  0.00  0.00    -0.116 N 
ATOM     24  O3  <0> d          -0.924  -0.843   2.380  0.00  0.00    -0.532 OA
ATOM     25  O4  <0> d           0.733  -0.053   3.420  0.00  0.00    -0.532 OA
ENDBRANCH  19  23
ENDBRANCH   8  15
BRANCH   1  26
ATOM     26  C7  <0> d           6.847  -0.235  -1.532  0.00  0.00     0.258 C 
ATOM     27  N1  <0> d           7.857  -0.998  -1.993  0.00  0.00    -0.323 N 
ATOM     28  H9  <0> d           8.884  -0.824  -1.639  0.00  0.00     0.169 HD
ATOM     29  O1  <0> d           5.700  -0.489  -1.848  0.00  0.00    -0.267 OA
BRANCH  27  30
ATOM     30  C4  <0> d           7.601  -2.012  -2.922  0.00  0.00     0.035 A 
ATOM     31  C3  <0> d           6.604  -1.846  -3.876  0.00  0.00     0.029 A 
ATOM     32  C2  <0> d           6.353  -2.848  -4.792  0.00  0.00     0.002 A 
ATOM     33  C1  <0> d           7.092  -4.016  -4.761  0.00  0.00     0.000 A 
ATOM     34  C6  <0> d           8.085  -4.185  -3.813  0.00  0.00     0.002 A 
ATOM     35  C5  <0> d           8.345  -3.184  -2.898  0.00  0.00     0.029 A 
ENDBRANCH  27  30
ENDBRANCH   1  26
TORSDOF 5
