REMARK  3 active torsions:
REMARK  status: ('A' for Active; 'I' for Inactive)
REMARK    1  A    between atoms: C6_6  and  C7_7 
REMARK    2  A    between atoms: N2_13  and  C13_20 
REMARK    3  A    between atoms: C11_16  and  O2_19 
ROOT
ATOM      1  C7  <0> d          -1.293  -0.775   0.010  0.00  0.00     0.123 C 
ATOM      2  C8  <0> d          -1.375  -1.595  -1.242  0.00  0.00     0.077 A 
ATOM      3  C9  <0> d          -0.693  -1.234  -2.428  0.00  0.00     0.271 A 
ATOM      4  O1  <0> d           0.018  -0.254  -2.570  0.00  0.00    -0.266 OA
ATOM      5  N1  <0> d          -0.961  -2.152  -3.369  0.00  0.00    -0.262 N 
ATOM      6  H2  <0> d          -0.623  -2.150  -4.278  0.00  0.00     0.190 HD
ATOM      7  N2  <0> d          -1.809  -3.109  -2.812  0.00  0.00    -0.267 N 
ATOM      8  C10 <0> d          -2.060  -2.757  -1.487  0.00  0.00     0.160 A 
ATOM      9  N3  <0> d          -2.838  -3.506  -0.713  0.00  0.00    -0.208 NA
ATOM     10  C11 <0> d          -3.236  -3.487   0.479  0.00  0.00     0.149 C 
ATOM     11  C12 <0> d          -3.017  -2.481   1.540  0.00  0.00     0.161 C 
ATOM     12  S1  <0> d          -1.363  -1.774   1.502  0.00  0.00    -0.146 SA
ENDROOT
BRANCH   1  13
ATOM     13  C6  <0> d           0.002  -0.004   0.002  0.00  0.00    -0.039 A 
ATOM     14  C1  <0> d          -0.017   1.378   0.010  0.00  0.00     0.012 A 
ATOM     15  C2  <0> d           1.170   2.086   0.002  0.00  0.00     0.043 A 
ATOM     16  C3  <0> d           2.379   1.410  -0.013  0.00  0.00     0.116 A 
ATOM     17  C4  <0> d           2.396   0.026  -0.021  0.00  0.00     0.043 A 
ATOM     18  F1  <0> d           3.540   2.101  -0.021  0.00  0.00    -0.206 F 
ATOM     19  C5  <0> d           1.208  -0.680  -0.013  0.00  0.00     0.012 A 
ENDBRANCH   1  13
BRANCH  10  20
ATOM     20  O2  <0> d          -3.975  -4.548   0.847  0.00  0.00    -0.347 OA
ATOM     21  H9  <0> d          -4.110  -5.197   0.142  0.00  0.00     0.219 HD
ENDBRANCH  10  20
BRANCH   7  22
ATOM     22  C13 <0> d          -2.345  -4.284  -3.503  0.00  0.00     0.110 C 
ATOM     23  C19 <0> d          -3.129  -3.842  -4.646  0.00  0.00     0.027 C 
ATOM     24  C18 <0> d          -3.789  -5.017  -5.396  0.00  0.00     0.002 C 
ATOM     25  C17 <0> d          -2.758  -5.654  -6.289  0.00  0.00     0.000 C 
ATOM     26  C16 <0> d          -2.056  -6.850  -5.619  0.00  0.00     0.000 C 
ATOM     27  C15 <0> d          -1.710  -6.588  -4.140  0.00  0.00     0.002 C 
ATOM     28  C14 <0> d          -1.174  -5.200  -3.912  0.00  0.00     0.027 C 
ENDBRANCH   7  22
TORSDOF 3
