REMARK  4 active torsions:
REMARK  status: ('A' for Active; 'I' for Inactive)
REMARK    1  A    between atoms: C2_2  and  N1_3 
REMARK    2  A    between atoms: N1_3  and  C3_4 
REMARK    3  A    between atoms: C6_7  and  C7_10 
REMARK       I    between atoms: C7_10  and  N4_12 
REMARK    4  A    between atoms: N4_12  and  C8_13 
ROOT
ATOM      1  C7  <0> d           1.409  -5.910   2.204  0.00  0.00     0.276 C 
ATOM      2  O1  <0> d           0.982  -6.766   1.454  0.00  0.00    -0.266 OA
ATOM      3  N4  <0> d           2.063  -6.263   3.328  0.00  0.00    -0.319 N 
ATOM      4  H9  <0> d           2.460  -5.582   3.892  0.00  0.00     0.169 HD
ENDROOT
BRANCH   1   5
ATOM      5  C6  <0> d           1.210  -4.480   1.883  0.00  0.00     0.147 A 
ATOM      6  C5  <0> d           0.530  -4.111   0.715  0.00  0.00     0.043 A 
ATOM      7  C4  <0> d           0.368  -2.762   0.458  0.00  0.00     0.054 A 
ATOM      8  C3  <0> d           0.892  -1.851   1.377  0.00  0.00     0.145 A 
ATOM      9  N3  <0> d           1.528  -2.292   2.457  0.00  0.00    -0.132 NA
ATOM     10  N2  <0> d           1.675  -3.543   2.700  0.00  0.00    -0.143 NA
BRANCH   8  11
ATOM     11  N1  <0> d           0.754  -0.490   1.161  0.00  0.00    -0.374 N 
ATOM     12  H6  <0> d           1.122   0.142   1.798  0.00  0.00     0.161 HD
BRANCH  11  13
ATOM     13  C2  <0> d           0.053  -0.005  -0.030  0.00  0.00     0.116 C 
ATOM     14  C1  <0> d           0.041   1.525  -0.028  0.00  0.00     0.026 C 
ENDBRANCH  11  13
ENDBRANCH   8  11
ENDBRANCH   1   5
BRANCH   3  15
ATOM     15  C8  <0> d           2.171  -7.614   3.680  0.00  0.00     0.074 A 
ATOM     16  C13 <0> d           2.158  -7.988   5.019  0.00  0.00     0.144 A 
ATOM     17  C12 <0> d           2.258  -9.324   5.362  0.00  0.00     0.063 A 
ATOM     18  F1  <0> d           2.042  -7.048   5.983  0.00  0.00    -0.204 F 
ATOM     19  C11 <0> d           2.383 -10.285   4.375  0.00  0.00     0.014 A 
ATOM     20  C10 <0> d           2.401  -9.914   3.043  0.00  0.00     0.021 A 
ATOM     21 Br1  <0> d           2.527 -12.110   4.849  0.00  0.00    -0.051 Br
ATOM     22  C9  <0> d           2.296  -8.582   2.693  0.00  0.00     0.034 A 
ENDBRANCH   3  15
TORSDOF 4
