REMARK  5 active torsions:
REMARK  status: ('A' for Active; 'I' for Inactive)
REMARK    1  A    between atoms: C2_2  and  C3_3 
REMARK    2  A    between atoms: C3_3  and  N1_4 
REMARK    3  A    between atoms: C5_6  and  C9_13 
REMARK    4  A    between atoms: C9_13  and  C10_15 
REMARK    5  A    between atoms: C10_15  and  N3_16 
ROOT
ATOM      1  N3  <0> d           4.515   2.993   5.872  0.00  0.00    -0.226 N 
ATOM      2  C11 <0> d           4.198   3.951   6.765  0.00  0.00     0.285 A 
ATOM      3  O4  <0> d           3.120   3.941   7.335  0.00  0.00    -0.265 OA
ATOM      4  C12 <0> d           5.181   5.008   7.036  0.00  0.00     0.122 A 
ATOM      5  C13 <0> d           6.387   4.942   6.340  0.00  0.00    -0.010 A 
ATOM      6  C14 <0> d           6.569   3.883   5.443  0.00  0.00     0.058 A 
ATOM      7  N4  <0> d           5.645   2.982   5.266  0.00  0.00    -0.174 NA
ATOM      8  C15 <0> d           7.860   3.780   4.672  0.00  0.00     0.072 C 
ATOM      9  C16 <0> d           7.461   5.978   6.546  0.00  0.00     0.052 C 
ATOM     10  C17 <0> d           4.913   6.058   7.972  0.00  0.00     0.105 C 
ATOM     11  N5  <0> d           4.701   6.891   8.715  0.00  0.00    -0.191 NA
ENDROOT
BRANCH   1  12
ATOM     12  C10 <0> d           3.545   1.931   5.591  0.00  0.00     0.238 C 
BRANCH  12  13
ATOM     13  C9  <0> d           2.654   2.354   4.452  0.00  0.00     0.188 C 
ATOM     14  O3  <0> d           2.813   3.437   3.926  0.00  0.00    -0.290 OA
BRANCH  13  15
ATOM     15  C5  <0> d           1.634   1.492   3.997  0.00  0.00     0.123 A 
ATOM     16  C4  <0> d           0.871   1.808   2.859  0.00  0.00     0.124 A 
ATOM     17  N1  <0> d          -0.105   0.941   2.457  0.00  0.00    -0.284 N 
ATOM     18  N6  <0> d           1.101   2.958   2.170  0.00  0.00    -0.384 N 
ATOM     19  C7  <0> d          -0.349  -0.195   3.128  0.00  0.00     0.332 A 
ATOM     20  N2  <0> d           0.350  -0.552   4.218  0.00  0.00    -0.270 N 
ATOM     21  O2  <0> d          -1.232  -0.931   2.732  0.00  0.00    -0.246 OA
ATOM     22  C6  <0> d           1.335   0.235   4.696  0.00  0.00     0.269 A 
ATOM     23  C8  <0> d           0.035  -1.810   4.899  0.00  0.00     0.164 C 
ATOM     24  O1  <0> d           1.964  -0.089   5.687  0.00  0.00    -0.267 OA
ATOM     25  H19 <0> d           1.890   3.649   2.502  0.00  0.00     0.157 HD
ATOM     26  H20 <0> d           0.499   3.196   1.281  0.00  0.00     0.157 HD
BRANCH  17  27
ATOM     27  C3  <0> d          -0.906   1.262   1.273  0.00  0.00     0.135 C 
BRANCH  27  28
ATOM     28  C2  <0> d          -0.230   0.684   0.028  0.00  0.00     0.016 C 
ATOM     29  C1  <0> d          -1.067   1.019  -1.208  0.00  0.00     0.006 C 
ENDBRANCH  27  28
ENDBRANCH  17  27
ENDBRANCH  13  15
ENDBRANCH  12  13
ENDBRANCH   1  12
TORSDOF 5
