REMARK  4 active torsions:
REMARK  status: ('A' for Active; 'I' for Inactive)
REMARK    1  A    between atoms: C8_8  and  O3_28 
REMARK    2  A    between atoms: C13_15  and  C14_16 
REMARK    3  A    between atoms: C14_16  and  N4_31 
REMARK    4  A    between atoms: N1_19  and  C19_22 
ROOT
ATOM      1  C1  <0> d          -4.745   1.809  -2.247  0.00  0.00     0.011 C 
ATOM      2  C2  <0> d          -4.035   3.151  -2.151  0.00  0.00    -0.003 C 
ATOM      3  C3  <0> d          -3.824   3.730  -3.548  0.00  0.00     0.009 C 
ATOM      4  C4  <0> d          -3.326   5.174  -3.373  0.00  0.00     0.028 C 
ATOM      5  C5  <0> d          -2.024   5.098  -2.622  0.00  0.00    -0.023 C 
ATOM      6  C6  <0> d          -1.778   4.159  -1.758  0.00  0.00    -0.070 C 
ATOM      7  C7  <0> d          -2.735   3.067  -1.366  0.00  0.00     0.009 C 
ATOM      8  C8  <0> d          -2.059   1.715  -1.476  0.00  0.00     0.138 C 
ATOM      9  C9  <0> d          -0.579   1.628  -1.304  0.00  0.00     0.060 C 
ATOM     10  C10 <0> d           0.278   2.863  -1.595  0.00  0.00     0.143 C 
ATOM     11  C11 <0> d          -0.411   4.140  -1.096  0.00  0.00     0.068 C 
ATOM     12  O1  <0> d           1.500   2.677  -0.817  0.00  0.00    -0.315 OA
ATOM     13  C12 <0> d           1.421   1.617  -0.003  0.00  0.00     0.265 C 
ATOM     14  O2  <0> d           2.333   1.136   0.631  0.00  0.00    -0.265 OA
ATOM     15  C13 <0> d          -0.013   1.093   0.008  0.00  0.00     0.120 C 
ATOM     16  C23 <0> d          -3.135   3.312   0.101  0.00  0.00     0.023 C 
ENDROOT
BRANCH  15  17
ATOM     17  C14 <0> d          -0.713   1.594   1.266  0.00  0.00     0.250 C 
BRANCH  17  18
ATOM     18  N4  <0> d          -0.048   1.007   2.449  0.00  0.00    -0.068 N 
ATOM     19  C15 <0> d          -0.288  -0.451   2.491  0.00  0.00     0.249 C 
ATOM     20  C16 <0> d           0.456  -1.039   3.693  0.00  0.00     0.126 C 
ATOM     21  N1  <0> d          -0.030  -0.404   4.926  0.00  0.00    -0.248 NA
ATOM     22  C17 <0> d           0.183   1.050   4.884  0.00  0.00     0.126 C 
ATOM     23  C18 <0> d          -0.562   1.638   3.683  0.00  0.00     0.249 C 
ATOM     24  H33 <0> d           0.962   1.177   2.383  0.00  0.00     0.280 HD
BRANCH  21  25
ATOM     25  C19 <0> d           0.571  -0.961   6.041  0.00  0.00     0.203 A 
ATOM     26  N3  <0> d           0.480  -2.268   6.239  0.00  0.00    -0.231 NA
ATOM     27  C22 <0> d           1.042  -2.833   7.295  0.00  0.00     0.121 A 
ATOM     28  C21 <0> d           1.732  -2.040   8.198  0.00  0.00     0.039 A 
ATOM     29  C20 <0> d           1.808  -0.676   7.960  0.00  0.00     0.121 A 
ATOM     30  N2  <0> d           1.228  -0.176   6.882  0.00  0.00    -0.231 NA
ENDBRANCH  21  25
ENDBRANCH  17  18
ENDBRANCH  15  17
BRANCH   8  31
ATOM     31  O3  <0> d          -2.689   0.778  -0.591  0.00  0.00    -0.394 OA
ATOM     32  H29 <0> d          -2.301  -0.107  -0.615  0.00  0.00     0.210 HD
ENDBRANCH   8  31
TORSDOF 4
