REMARK  5 active torsions:
REMARK  status: ('A' for Active; 'I' for Inactive)
REMARK    1  A    between atoms: C5_6  and  C9_11 
REMARK    2  A    between atoms: C9_11  and  N2_12 
REMARK    3  A    between atoms: N2_12  and  N3_13 
REMARK       I    between atoms: N3_13  and  C10_14 
REMARK    4  A    between atoms: C10_14  and  C11_16 
REMARK       I    between atoms: C11_16  and  N4_18 
REMARK    5  A    between atoms: N4_18  and  C12_19 
ROOT
ATOM      1  C12 <0> d           9.517  -6.549  -0.130  0.00  0.00     0.090 C 
ATOM      2  C13 <0> d          10.814  -6.973  -0.139  0.00  0.00     0.061 C 
ATOM      3  C14 <0> d          11.080  -8.458  -0.099  0.00  0.00     0.046 C 
ATOM      4  C15 <0> d          11.425  -8.818   1.347  0.00  0.00     0.011 C 
ATOM      5  C16 <0> d          11.493 -10.335   1.512  0.00  0.00     0.001 C 
ATOM      6  C17 <0> d          10.083 -10.892   1.313  0.00  0.00     0.001 C 
ATOM      7  C18 <0> d           9.597 -10.591  -0.090  0.00  0.00     0.016 C 
ATOM      8  C19 <0> d           9.845  -9.221  -0.579  0.00  0.00     0.063 C 
ATOM      9  S1  <0> d           8.529  -8.037  -0.128  0.00  0.00    -0.105 SA
ATOM     10  C20 <0> d          11.894  -6.033  -0.188  0.00  0.00     0.098 C 
ATOM     11  N5  <0> d          12.751  -5.288  -0.226  0.00  0.00    -0.192 NA
ENDROOT
BRANCH   1  12
ATOM     12  N4  <0> d           9.065  -5.246  -0.117  0.00  0.00    -0.312 N 
ATOM     13  C11 <0> d           7.741  -4.992  -0.103  0.00  0.00     0.316 C 
ATOM     14  O2  <0> d           6.947  -5.911  -0.100  0.00  0.00    -0.262 OA
ATOM     15  H10 <0> d           9.699  -4.512  -0.119  0.00  0.00     0.170 HD
BRANCH  13  16
ATOM     16  C10 <0> d           7.252  -3.584  -0.090  0.00  0.00     0.329 C 
ATOM     17  N3  <0> d           5.928  -3.330  -0.075  0.00  0.00    -0.239 N 
ATOM     18  H9  <0> d           5.294  -4.064  -0.073  0.00  0.00     0.192 HD
ATOM     19  O1  <0> d           8.045  -2.666  -0.092  0.00  0.00    -0.261 OA
BRANCH  17  20
ATOM     20  N2  <0> d           5.468  -2.007  -0.063  0.00  0.00    -0.184 NA
BRANCH  20  21
ATOM     21  C9  <0> d           4.182  -1.761  -0.048  0.00  0.00     0.148 C 
BRANCH  21  22
ATOM     22  C5  <0> d           3.722  -0.437  -0.036  0.00  0.00    -0.009 A 
ATOM     23  C4  <0> d           4.559   0.823  -0.038  0.00  0.00     0.161 A 
ATOM     24  N1  <0> d           3.611   1.941  -0.022  0.00  0.00    -0.385 N 
ATOM     25  C3  <0> d           2.383   1.469  -0.013  0.00  0.00     0.039 A 
ATOM     26  H19 <0> d           3.851   2.881  -0.020  0.00  0.00     0.160 HD
ATOM     27  C2  <0> d           1.123   2.126   0.003  0.00  0.00     0.031 A 
ATOM     28  C6  <0> d           2.397  -0.005  -0.021  0.00  0.00     0.001 A 
ATOM     29  C1  <0> d          -0.017   1.395   0.010  0.00  0.00     0.021 A 
ATOM     30  C8  <0> d           0.002  -0.004   0.002  0.00  0.00     0.011 A 
ATOM     31  C7  <0> d           1.167  -0.700  -0.013  0.00  0.00     0.033 A 
ATOM     32 Br1  <0> d          -1.636  -0.949   0.013  0.00  0.00    -0.051 Br
ENDBRANCH  21  22
ENDBRANCH  20  21
ENDBRANCH  17  20
ENDBRANCH  13  16
ENDBRANCH   1  12
TORSDOF 5
