REMARK  7 active torsions:
REMARK  status: ('A' for Active; 'I' for Inactive)
REMARK    1  A    between atoms: O1_2  and  C2_3 
REMARK    2  A    between atoms: C5_6  and  C9_11 
REMARK    3  A    between atoms: C7_8  and  O2_9 
REMARK       I    between atoms: C9_11  and  N1_13 
REMARK    4  A    between atoms: N1_13  and  C10_14 
REMARK    5  A    between atoms: C10_14  and  C19_29 
REMARK    6  A    between atoms: N2_17  and  C13_21 
REMARK    7  A    between atoms: C12_18  and  O5_20 
ROOT
ATOM      1  C10 <0> d          -7.387  -2.610  -0.083  0.00  0.00     0.313 A 
ATOM      2  C11 <0> d          -7.391  -3.253  -1.456  0.00  0.00     0.292 A 
ATOM      3  O4  <0> d          -6.695  -4.166  -1.845  0.00  0.00    -0.267 OA
ATOM      4  N2  <0> d          -8.339  -2.588  -2.151  0.00  0.00    -0.242 N 
ATOM      5  C12 <0> d          -8.917  -1.616  -1.373  0.00  0.00     0.252 A 
ATOM      6  N3  <0> d          -8.423  -1.569  -0.177  0.00  0.00    -0.199 NA
ENDROOT
BRANCH   1   7
ATOM      7  N1  <0> d          -6.080  -2.010   0.199  0.00  0.00    -0.313 N 
ATOM      8  C9  <0> d          -4.959  -2.749   0.077  0.00  0.00     0.254 C 
ATOM      9  O3  <0> d          -5.037  -3.934  -0.182  0.00  0.00    -0.268 OA
ATOM     10  H10 <0> d          -6.022  -1.082   0.475  0.00  0.00     0.166 HD
BRANCH   8  11
ATOM     11  C5  <0> d          -3.637  -2.118   0.256  0.00  0.00     0.034 A 
ATOM     12  C4  <0> d          -3.545  -0.756   0.553  0.00  0.00     0.020 A 
ATOM     13  C3  <0> d          -2.310  -0.169   0.721  0.00  0.00     0.040 A 
ATOM     14  C2  <0> d          -1.154  -0.928   0.596  0.00  0.00     0.101 A 
ATOM     15  C7  <0> d          -1.238  -2.287   0.295  0.00  0.00     0.102 A 
ATOM     16  C6  <0> d          -2.474  -2.882   0.130  0.00  0.00     0.056 A 
BRANCH  14  17
ATOM     17  O1  <0> d           0.061  -0.345   0.763  0.00  0.00    -0.353 OA
ATOM     18  C1  <0> d           0.074   1.050   1.070  0.00  0.00     0.210 C 
ENDBRANCH  14  17
BRANCH  15  19
ATOM     19  O2  <0> d          -0.104  -3.026   0.168  0.00  0.00    -0.353 OA
ATOM     20  C8  <0> d          -0.265  -4.412  -0.142  0.00  0.00     0.210 C 
ENDBRANCH  15  19
ENDBRANCH   8  11
ENDBRANCH   1   7
BRANCH   1  21
ATOM     21  C19 <0> d          -7.750  -3.634   0.994  0.00  0.00     0.443 C 
ATOM     22  F2  <0> d          -7.875  -2.988   2.228  0.00  0.00    -0.166 F 
ATOM     23  F3  <0> d          -8.963  -4.247   0.663  0.00  0.00    -0.166 F 
ATOM     24  F4  <0> d          -6.745  -4.603   1.074  0.00  0.00    -0.166 F 
ENDBRANCH   1  21
BRANCH   5  25
ATOM     25  O5  <0> d          -9.897  -0.795  -1.809  0.00  0.00    -0.331 OA
ATOM     26  H11 <0> d         -10.203  -0.161  -1.145  0.00  0.00     0.221 HD
ENDBRANCH   5  25
BRANCH   4  27
ATOM     27  C13 <0> d          -8.685  -2.854  -3.484  0.00  0.00     0.048 A 
ATOM     28  C18 <0> d          -7.951  -3.772  -4.222  0.00  0.00     0.057 A 
ATOM     29  C17 <0> d          -8.297  -4.038  -5.534  0.00  0.00     0.074 A 
ATOM     30  C16 <0> d          -9.369  -3.378  -6.115  0.00  0.00     0.138 A 
ATOM     31 Cl1  <0> d          -7.385  -5.191  -6.456  0.00  0.00    -0.081 Cl
ATOM     32  C15 <0> d         -10.098  -2.458  -5.381  0.00  0.00     0.046 A 
ATOM     33  F1  <0> d          -9.703  -3.634  -7.399  0.00  0.00    -0.204 F 
ATOM     34  C14 <0> d          -9.758  -2.195  -4.068  0.00  0.00     0.033 A 
ENDBRANCH   4  27
TORSDOF 7
