REMARK  9 active torsions:
REMARK  status: ('A' for Active; 'I' for Inactive)
REMARK    1  A    between atoms: C3_3  and  N3_15 
REMARK    2  A    between atoms: N1_6  and  C6_9 
REMARK    3  A    between atoms: N3_15  and  C12_16 
REMARK    4  A    between atoms: C15_19  and  C18_22 
REMARK    5  A    between atoms: C18_22  and  N4_23 
REMARK    6  A    between atoms: N4_23  and  C19_24 
REMARK    7  A    between atoms: C19_24  and  C20_25 
REMARK    8  A    between atoms: C20_25  and  C21_26 
REMARK    9  A    between atoms: C20_25  and  N5_31 
ROOT
ATOM      1  C12 <0> d           0.241  -0.353  -3.579  0.00  0.00     0.032 A 
ATOM      2  C13 <0> d           0.612  -1.667  -3.321  0.00  0.00     0.030 A 
ATOM      3  C14 <0> d           1.087  -2.462  -4.346  0.00  0.00     0.011 A 
ATOM      4  C15 <0> d           1.193  -1.952  -5.627  0.00  0.00    -0.033 A 
ATOM      5  C16 <0> d           0.824  -0.645  -5.887  0.00  0.00     0.011 A 
ATOM      6  C17 <0> d           0.344   0.154  -4.869  0.00  0.00     0.030 A 
ENDROOT
BRANCH   1   7
ATOM      7  N3  <0> d          -0.238   0.454  -2.546  0.00  0.00    -0.350 N 
ATOM      8  H13 <0> d          -0.607   1.329  -2.745  0.00  0.00     0.166 HD
BRANCH   7   9
ATOM      9  C3  <0> d          -0.187  -0.003  -1.213  0.00  0.00     0.127 A 
ATOM     10  C2  <0> d          -1.240  -0.176  -0.385  0.00  0.00     0.057 A 
ATOM     11  C1  <0> d          -2.683   0.088  -0.729  0.00  0.00     0.072 C 
ATOM     12  N2  <0> d          -0.776  -0.628   0.825  0.00  0.00    -0.289 N 
ATOM     13  N1  <0> d           0.617  -0.754   0.762  0.00  0.00    -0.217 N 
ATOM     14  C5  <0> d          -1.605  -0.932   1.993  0.00  0.00     0.178 C 
ATOM     15  C4  <0> d           1.016  -0.377  -0.470  0.00  0.00     0.295 A 
ATOM     16  O1  <0> d           2.161  -0.353  -0.884  0.00  0.00    -0.264 OA
BRANCH  13  17
ATOM     17  C6  <0> d           1.449  -1.190   1.798  0.00  0.00     0.060 A 
ATOM     18  C11 <0> d           2.593  -0.472   2.121  0.00  0.00     0.031 A 
ATOM     19  C10 <0> d           3.409  -0.902   3.148  0.00  0.00     0.002 A 
ATOM     20  C9  <0> d           3.095  -2.053   3.848  0.00  0.00     0.000 A 
ATOM     21  C8  <0> d           1.960  -2.774   3.525  0.00  0.00     0.002 A 
ATOM     22  C7  <0> d           1.136  -2.346   2.502  0.00  0.00     0.031 A 
ENDBRANCH  13  17
ENDBRANCH   7   9
ENDBRANCH   1   7
BRANCH   4  23
ATOM     23  C18 <0> d           1.712  -2.823  -6.742  0.00  0.00     0.270 C 
BRANCH  23  24
ATOM     24  N4  <0> d           0.589  -3.525  -7.378  0.00  0.00    -0.069 N 
ATOM     25  H20 <0> d           0.120  -4.099  -6.694  0.00  0.00     0.277 HD
ATOM     26  H33 <0> d          -0.061  -2.850  -7.753  0.00  0.00     0.277 HD
BRANCH  24  27
ATOM     27  C19 <0> d           1.095  -4.374  -8.465  0.00  0.00     0.272 C 
BRANCH  27  28
ATOM     28  C20 <0> d          -0.084  -5.006  -9.209  0.00  0.00     0.269 C 
BRANCH  28  29
ATOM     29  C21 <0> d          -0.821  -5.938  -8.282  0.00  0.00     0.085 A 
ATOM     30  O2  <0> d          -0.452  -7.192  -7.973  0.00  0.00    -0.325 OA
ATOM     31  C24 <0> d          -1.341  -7.722  -7.117  0.00  0.00     0.142 A 
ATOM     32  C23 <0> d          -2.298  -6.808  -6.878  0.00  0.00     0.027 A 
ATOM     33  C22 <0> d          -1.963  -5.658  -7.629  0.00  0.00     0.037 A 
ENDBRANCH  28  29
BRANCH  28  34
ATOM     34  N5  <0> d           0.416  -5.760 -10.366  0.00  0.00    -0.067 N 
ATOM     35  C25 <0> d          -0.718  -6.343 -11.097  0.00  0.00     0.270 C 
ATOM     36  C26 <0> d           1.159  -4.857 -11.255  0.00  0.00     0.270 C 
ATOM     37  H32 <0> d           1.026  -6.498 -10.049  0.00  0.00     0.279 HD
ENDBRANCH  28  34
ENDBRANCH  27  28
ENDBRANCH  24  27
ENDBRANCH  23  24
ENDBRANCH   4  23
TORSDOF 9
