REMARK  5 active torsions:
REMARK  status: ('A' for Active; 'I' for Inactive)
REMARK    1  A    between atoms: C3_3  and  O3_30 
REMARK    2  A    between atoms: C6_6  and  C7_7 
REMARK    3  A    between atoms: C12_14  and  C16_20 
REMARK    4  A    between atoms: C14_16  and  N2_17 
REMARK    5  A    between atoms: C19_23  and  O2_26 
ROOT
ATOM      1  C7  <0> d           2.452   1.093  -0.650  0.00  0.00     0.036 C 
ATOM      2  C8  <0> d           3.619   1.785  -0.594  0.00  0.00     0.076 A 
ATOM      3  C9  <0> d           4.998   1.285  -0.571  0.00  0.00     0.271 A 
ATOM      4  O1  <0> d           5.228   0.091  -0.603  0.00  0.00    -0.266 OA
ATOM      5  N1  <0> d           6.004   2.180  -0.513  0.00  0.00    -0.255 N 
ATOM      6  C10 <0> d           5.669   3.520  -0.479  0.00  0.00     0.104 A 
ATOM      7  C11 <0> d           6.570   4.533  -0.420  0.00  0.00     0.070 A 
ATOM      8  C12 <0> d           8.045   4.183  -0.389  0.00  0.00     0.113 A 
ATOM      9  C13 <0> d           8.371   2.704  -0.427  0.00  0.00     0.080 A 
ATOM     10  C14 <0> d           7.355   1.815  -0.486  0.00  0.00     0.127 A 
ATOM     11  C15 <0> d           9.731   2.256  -0.401  0.00  0.00     0.100 C 
ATOM     12  N3  <0> d          10.810   1.901  -0.381  0.00  0.00    -0.191 NA
ATOM     13  C22 <0> d           6.139   5.898  -0.388  0.00  0.00     0.099 C 
ATOM     14  N4  <0> d           5.797   6.981  -0.362  0.00  0.00    -0.192 NA
ATOM     15  S1  <0> d           3.889   3.549  -0.536  0.00  0.00    -0.065 SA
ENDROOT
BRANCH   8  16
ATOM     16  C16 <0> d           8.640   4.765   0.868  0.00  0.00    -0.043 A 
ATOM     17  C21 <0> d           9.578   5.778   0.783  0.00  0.00     0.011 A 
ATOM     18  C20 <0> d          10.124   6.313   1.933  0.00  0.00     0.037 A 
ATOM     19  C19 <0> d           9.733   5.832   3.174  0.00  0.00     0.065 A 
ATOM     20  C18 <0> d           8.793   4.816   3.257  0.00  0.00     0.037 A 
ATOM     21  C17 <0> d           8.244   4.288   2.104  0.00  0.00     0.011 A 
BRANCH  19  22
ATOM     22  O2  <0> d          10.269   6.357   4.307  0.00  0.00    -0.361 OA
ATOM     23  H13 <0> d           9.777   7.110   4.663  0.00  0.00     0.217 HD
ENDBRANCH  19  22
ENDBRANCH   8  16
BRANCH  10  24
ATOM     24  N2  <0> d           7.666   0.477  -0.520  0.00  0.00    -0.384 N 
ATOM     25  H7  <0> d           7.062  -0.150  -0.948  0.00  0.00     0.157 HD
ATOM     26  H8  <0> d           8.489   0.160  -0.117  0.00  0.00     0.157 HD
ENDBRANCH  10  24
BRANCH   1  27
ATOM     27  C6  <0> d           1.173   1.796  -0.492  0.00  0.00    -0.035 A 
ATOM     28  C1  <0> d          -0.022   1.175  -0.876  0.00  0.00     0.014 A 
ATOM     29  C2  <0> d          -1.218   1.841  -0.731  0.00  0.00     0.037 A 
ATOM     30  C3  <0> d          -1.242   3.123  -0.192  0.00  0.00     0.065 A 
ATOM     31  C4  <0> d          -0.059   3.744   0.190  0.00  0.00     0.037 A 
ATOM     32  C5  <0> d           1.143   3.089   0.044  0.00  0.00     0.014 A 
BRANCH  30  33
ATOM     33  O3  <0> d          -2.425   3.773  -0.045  0.00  0.00    -0.361 OA
ATOM     34  H14 <0> d          -2.683   4.299  -0.815  0.00  0.00     0.217 HD
ENDBRANCH  30  33
ENDBRANCH   1  27
TORSDOF 5
