REMARK  7 active torsions:
REMARK  status: ('A' for Active; 'I' for Inactive)
REMARK    1  A    between atoms: C4_4  and  S1_10 
REMARK    2  A    between atoms: C7_7  and  O1_8 
REMARK    3  A    between atoms: S1_10  and  N1_13 
REMARK    4  A    between atoms: N1_13  and  C9_14 
REMARK    5  A    between atoms: C11_17  and  S3_19 
REMARK    6  A    between atoms: S3_19  and  C12_20 
REMARK    7  A    between atoms: C12_20  and  C13_21 
REMARK       I    between atoms: C13_21  and  N3_23 
ROOT
ATOM      1  C9  <0> d           1.921  -3.828  -4.352  0.00  0.00     0.206 A 
ATOM      2  N2  <0> d           3.103  -4.108  -4.868  0.00  0.00    -0.225 NA
ATOM      3  C10 <0> d           3.215  -4.756  -6.015  0.00  0.00     0.057 A 
ATOM      4  C11 <0> d           2.093  -5.145  -6.680  0.00  0.00     0.069 A 
ATOM      5  S2  <0> d           0.826  -4.540  -5.573  0.00  0.00    -0.041 SA
ATOM      6  C14 <0> d           4.577  -5.064  -6.582  0.00  0.00     0.072 C 
ENDROOT
BRANCH   1   7
ATOM      7  N1  <0> d           1.610  -3.163  -3.172  0.00  0.00    -0.132 NA
BRANCH   7   8
ATOM      8  S1  <0> d           0.027  -2.942  -2.738  0.00  0.00     0.285 S 
ATOM      9  O2  <0> d          -0.505  -4.232  -2.473  0.00  0.00    -0.198 OA
ATOM     10  O3  <0> d          -0.540  -2.067  -3.704  0.00  0.00    -0.198 OA
BRANCH   8  11
ATOM     11  C4  <0> d           0.024  -2.071  -1.206  0.00  0.00     0.082 A 
ATOM     12  C3  <0> d           0.006  -0.689  -1.198  0.00  0.00     0.035 A 
ATOM     13  C2  <0> d           0.002  -0.004   0.002  0.00  0.00    -0.027 A 
ATOM     14  C1  <0> d          -0.018   1.503   0.010  0.00  0.00     0.051 C 
ATOM     15  C7  <0> d           0.023  -0.705   1.199  0.00  0.00     0.074 A 
ATOM     16  C6  <0> d           0.036  -2.092   1.188  0.00  0.00     0.039 A 
ATOM     17  C5  <0> d           0.039  -2.772  -0.014  0.00  0.00     0.028 A 
BRANCH  15  18
ATOM     18  O1  <0> d           0.025  -0.033   2.381  0.00  0.00    -0.355 OA
ATOM     19  C8  <0> d           0.048  -0.820   3.574  0.00  0.00     0.210 C 
ENDBRANCH  15  18
ENDBRANCH   8  11
ENDBRANCH   7   8
ENDBRANCH   1   7
BRANCH   4  20
ATOM     20  S3  <0> d           1.933  -6.011  -8.206  0.00  0.00    -0.111 SA
BRANCH  20  21
ATOM     21  C12 <0> d           0.141  -6.162  -8.440  0.00  0.00     0.182 C 
BRANCH  21  22
ATOM     22  C13 <0> d          -0.138  -6.893  -9.727  0.00  0.00     0.225 C 
ATOM     23  O4  <0> d           0.782  -7.275 -10.419  0.00  0.00    -0.273 OA
ATOM     24  N3  <0> d          -1.410  -7.123 -10.110  0.00  0.00    -0.369 N 
ATOM     25  H12 <0> d          -2.146  -6.818  -9.556  0.00  0.00     0.159 HD
ATOM     26  H13 <0> d          -1.589  -7.594 -10.938  0.00  0.00     0.159 HD
ENDBRANCH  21  22
ENDBRANCH  20  21
ENDBRANCH   4  20
TORSDOF 7
