REMARK  3 active torsions:
REMARK  status: ('A' for Active; 'I' for Inactive)
REMARK    1  A    between atoms: N1_8  and  C6_12 
REMARK    2  A    between atoms: C6_12  and  C7_13 
REMARK    3  A    between atoms: C7_13  and  O3_14 
ROOT
ATOM      1  C1  <0> d           1.929  -1.149  -1.265  0.00  0.00     0.167 C 
ATOM      2  C2  <0> d           1.493  -0.356  -0.014  0.00  0.00     0.121 A 
ATOM      3  C3  <0> d           0.002  -0.004   0.002  0.00  0.00     0.124 A 
ATOM      4  C4  <0> d          -0.760  -0.512  -1.241  0.00  0.00     0.167 C 
ATOM      5  S1  <0> d           0.597  -0.704  -2.462  0.00  0.00     0.148 S 
ATOM      6  O1  <0> d           0.889   0.560  -3.042  0.00  0.00    -0.228 OA
ATOM      7  O2  <0> d           0.326  -1.819  -3.300  0.00  0.00    -0.228 OA
ATOM      8  N1  <0> d          -0.018   1.467   0.010  0.00  0.00    -0.349 N 
ATOM      9  C5  <0> d           1.243   1.921   0.001  0.00  0.00     0.170 A 
ATOM     10  S2  <0> d           1.636   3.587   0.005  0.00  0.00    -0.041 SA
ATOM     11  N2  <0> d           2.168   0.952  -0.013  0.00  0.00    -0.360 N 
ATOM     12  H7  <0> d           3.128   1.089  -0.022  0.00  0.00     0.162 HD
ENDROOT
BRANCH   8  13
ATOM     13  C6  <0> d          -1.222   2.302   0.021  0.00  0.00     0.151 C 
BRANCH  13  14
ATOM     14  C7  <0> d          -1.634   2.584   1.467  0.00  0.00     0.183 C 
BRANCH  14  15
ATOM     15  O3  <0> d          -0.625   3.369   2.105  0.00  0.00    -0.399 OA
ATOM     16  H12 <0> d          -0.820   3.587   3.027  0.00  0.00     0.209 HD
ENDBRANCH  14  15
ENDBRANCH  13  14
ENDBRANCH   8  13
TORSDOF 3
