REMARK  6 active torsions:
REMARK  status: ('A' for Active; 'I' for Inactive)
REMARK    1  A    between atoms: C2_2  and  C3_3 
REMARK    2  A    between atoms: C3_3  and  C4_4 
REMARK    3  A    between atoms: C3_3  and  N1_19 
REMARK    4  A    between atoms: C4_4  and  C5_5 
REMARK    5  A    between atoms: C4_4  and  S2_11 
REMARK    6  A    between atoms: S2_11  and  C10_12 
ROOT
ATOM      1  C4  <0> d          -1.697  -2.124   0.153  0.00  0.00     0.122 C 
ENDROOT
BRANCH   1   2
ATOM      2  C3  <0> d          -1.754  -0.596   0.126  0.00  0.00     0.202 C 
BRANCH   2   3
ATOM      3  C2  <0> d          -0.348  -0.036  -0.095  0.00  0.00     0.030 C 
ATOM      4  C1  <0> d          -0.380   1.489   0.027  0.00  0.00     0.007 C 
ENDBRANCH   2   3
BRANCH   2   5
ATOM      5  N1  <0> d          -2.633  -0.158  -0.967  0.00  0.00    -0.074 N 
ATOM      6  H17 <0> d          -2.271  -0.496  -1.845  0.00  0.00     0.274 HD
ATOM      7  H18 <0> d          -3.561  -0.527  -0.821  0.00  0.00     0.274 HD
ATOM      8  H19 <0> d          -2.671   0.850  -0.984  0.00  0.00     0.274 HD
ENDBRANCH   2   5
ENDBRANCH   1   2
BRANCH   1   9
ATOM      9  C5  <0> d          -3.090  -2.677   0.314  0.00  0.00    -0.001 A 
ATOM     10  S1  <0> d          -4.255  -2.419   1.641  0.00  0.00    -0.098 SA
ATOM     11  C8  <0> d          -5.588  -3.422   1.006  0.00  0.00    -0.021 A 
ATOM     12  C7  <0> d          -5.061  -3.885  -0.154  0.00  0.00     0.015 A 
ATOM     13  C9  <0> d          -6.944  -3.690   1.605  0.00  0.00     0.056 C 
ATOM     14  C6  <0> d          -3.781  -3.503  -0.509  0.00  0.00     0.017 A 
ENDBRANCH   1   9
BRANCH   1  15
ATOM     15  S2  <0> d          -0.667  -2.667   1.544  0.00  0.00    -0.116 SA
BRANCH  15  16
ATOM     16  C10 <0> d          -0.444  -4.392   1.263  0.00  0.00     0.018 A 
ATOM     17  C15 <0> d           0.209  -5.173   2.209  0.00  0.00     0.027 A 
ATOM     18  C14 <0> d           0.378  -6.527   1.987  0.00  0.00     0.020 A 
ATOM     19 Br1  <0> d           0.861  -4.387   3.800  0.00  0.00    -0.050 Br
ATOM     20  C13 <0> d          -0.094  -7.101   0.821  0.00  0.00     0.001 A 
ATOM     21  C12 <0> d          -0.740  -6.325  -0.125  0.00  0.00     0.001 A 
ATOM     22  C11 <0> d          -0.916  -4.973   0.092  0.00  0.00     0.020 A 
ENDBRANCH  15  16
ENDBRANCH   1  15
TORSDOF 6
