REMARK  7 active torsions:
REMARK  status: ('A' for Active; 'I' for Inactive)
REMARK    1  A    between atoms: C2_2  and  C3_3 
REMARK    2  A    between atoms: C3_3  and  C4_4 
REMARK    3  A    between atoms: C4_4  and  N1_5 
REMARK    4  A    between atoms: C20_24  and  N2_31 
REMARK    5  A    between atoms: C21_25  and  C22_26 
REMARK    6  A    between atoms: C22_26  and  O5_28 
REMARK    7  A    between atoms: O5_28  and  C23_29 
ROOT
ATOM      1  N1  <0> d           1.358   2.965   0.577  0.00  0.00    -0.316 N 
ATOM      2  C5  <0> d           1.225   1.602   0.382  0.00  0.00     0.045 A 
ATOM      3  C6  <0> d           0.074   0.812   0.398  0.00  0.00     0.030 A 
ATOM      4  C7  <0> d           0.233  -0.545   0.167  0.00  0.00     0.002 A 
ATOM      5  C8  <0> d           1.472  -1.106  -0.070  0.00  0.00     0.001 A 
ATOM      6  C9  <0> d           2.626  -0.330  -0.088  0.00  0.00     0.011 A 
ATOM      7  C10 <0> d           2.476   1.020   0.141  0.00  0.00    -0.004 A 
ATOM      8  C11 <0> d           3.474   2.134   0.196  0.00  0.00     0.141 A 
ATOM      9  C12 <0> d           2.643   3.367   0.485  0.00  0.00     0.247 A 
ATOM     10  O1  <0> d           3.054   4.501   0.611  0.00  0.00    -0.271 OA
ATOM     11  C13 <0> d           4.172   2.292  -1.131  0.00  0.00     0.045 C 
ATOM     12  C14 <0> d           5.446   1.884  -1.283  0.00  0.00     0.067 C 
ATOM     13  C15 <0> d           6.149   2.032  -2.612  0.00  0.00     0.070 C 
ATOM     14  C16 <0> d           5.609   3.263  -3.346  0.00  0.00    -0.005 C 
ATOM     15  C17 <0> d           4.099   3.088  -3.540  0.00  0.00     0.088 C 
ATOM     16  C18 <0> d           3.458   2.875  -2.195  0.00  0.00     0.160 C 
ATOM     17  O2  <0> d           2.304   3.212  -2.025  0.00  0.00    -0.293 OA
ATOM     18  C19 <0> d           6.291   3.394  -4.709  0.00  0.00     0.011 C 
ATOM     19  O3  <0> d           6.131   1.330  -0.265  0.00  0.00    -0.297 OA
ATOM     20  C20 <0> d           5.740   1.531   1.001  0.00  0.00     0.155 C 
ATOM     21  C21 <0> d           4.470   1.915   1.296  0.00  0.00     0.095 C 
ENDROOT
BRANCH  21  22
ATOM     22  C22 <0> d           4.090   2.108   2.634  0.00  0.00     0.295 C 
ATOM     23  O4  <0> d           4.862   1.828   3.533  0.00  0.00    -0.259 OA
BRANCH  22  24
ATOM     24  O5  <0> d           2.867   2.605   2.923  0.00  0.00    -0.318 OA
BRANCH  24  25
ATOM     25  C23 <0> d           2.547   2.775   4.305  0.00  0.00     0.174 C 
ATOM     26  C24 <0> d           1.133   3.344   4.435  0.00  0.00     0.034 C 
ENDBRANCH  24  25
ENDBRANCH  22  24
ENDBRANCH  21  22
BRANCH  20  27
ATOM     27  N2  <0> d           6.638   1.344   2.018  0.00  0.00    -0.379 N 
ATOM     28  H27 <0> d           7.319   0.658   1.944  0.00  0.00     0.158 HD
ATOM     29  H28 <0> d           6.592   1.899   2.813  0.00  0.00     0.158 HD
ENDBRANCH  20  27
BRANCH   1  30
ATOM     30  C4  <0> d           0.236   3.866   0.850  0.00  0.00     0.132 C 
BRANCH  30  31
ATOM     31  C3  <0> d          -0.324   4.399  -0.471  0.00  0.00     0.020 C 
BRANCH  31  32
ATOM     32  C2  <0> d          -1.496   5.340  -0.186  0.00  0.00    -0.003 C 
ATOM     33  C1  <0> d          -2.056   5.872  -1.507  0.00  0.00     0.005 C 
ENDBRANCH  31  32
ENDBRANCH  30  31
ENDBRANCH   1  30
TORSDOF 7
