REMARK  4 active torsions:
REMARK  status: ('A' for Active; 'I' for Inactive)
REMARK    1  A    between atoms: C4_4  and  N1_7 
REMARK    2  A    between atoms: N3_14  and  N5_17 
REMARK       I    between atoms: N5_17  and  C12_18 
REMARK    3  A    between atoms: C12_18  and  C13_20 
REMARK    4  A    between atoms: C13_20  and  C14_21 
ROOT
ATOM      1  N1  <0> d           2.201   3.956   0.002  0.00  0.00    -0.215 N 
ATOM      2  C7  <0> d           1.184   3.052   0.007  0.00  0.00     0.170 A 
ATOM      3  C8  <0> d          -0.009   3.792   0.022  0.00  0.00     0.101 A 
ATOM      4  C9  <0> d           0.344   5.154   0.025  0.00  0.00     0.160 A 
ATOM      5  N2  <0> d           1.646   5.242   0.013  0.00  0.00    -0.177 NA
ATOM      6  C10 <0> d          -1.275   3.059   0.030  0.00  0.00     0.283 A 
ATOM      7  O1  <0> d          -2.344   3.643   0.043  0.00  0.00    -0.265 OA
ATOM      8  N3  <0> d          -1.214   1.706   0.017  0.00  0.00    -0.210 N 
ATOM      9  C11 <0> d          -0.013   1.076   0.008  0.00  0.00     0.238 A 
ATOM     10  N4  <0> d           1.123   1.712   0.001  0.00  0.00    -0.221 NA
ENDROOT
BRANCH   8  11
ATOM     11  N5  <0> d          -2.396   0.955   0.019  0.00  0.00    -0.259 N 
ATOM     12  C12 <0> d          -2.797   0.333   1.146  0.00  0.00     0.240 C 
ATOM     13  O2  <0> d          -2.135   0.423   2.157  0.00  0.00    -0.271 OA
ATOM     14  H8  <0> d          -2.926   0.882  -0.790  0.00  0.00     0.190 HD
BRANCH  12  15
ATOM     15  C13 <0> d          -4.069  -0.475   1.148  0.00  0.00     0.143 C 
BRANCH  15  16
ATOM     16  C14 <0> d          -4.289  -1.062   2.519  0.00  0.00    -0.049 A 
ATOM     17  C19 <0> d          -5.009  -0.357   3.465  0.00  0.00     0.011 A 
ATOM     18  C18 <0> d          -5.211  -0.894   4.722  0.00  0.00     0.043 A 
ATOM     19  C17 <0> d          -4.693  -2.139   5.033  0.00  0.00     0.116 A 
ATOM     20  C16 <0> d          -3.973  -2.845   4.085  0.00  0.00     0.043 A 
ATOM     21  F1  <0> d          -4.890  -2.666   6.262  0.00  0.00    -0.206 F 
ATOM     22  C15 <0> d          -3.776  -2.308   2.827  0.00  0.00     0.011 A 
ENDBRANCH  15  16
ENDBRANCH  12  15
ENDBRANCH   8  11
BRANCH   1  23
ATOM     23  C4  <0> d           3.569   3.653  -0.012  0.00  0.00     0.060 A 
ATOM     24  C3  <0> d           4.455   4.466  -0.706  0.00  0.00     0.031 A 
ATOM     25  C2  <0> d           5.803   4.165  -0.718  0.00  0.00     0.002 A 
ATOM     26  C1  <0> d           6.270   3.054  -0.040  0.00  0.00     0.000 A 
ATOM     27  C6  <0> d           5.390   2.241   0.651  0.00  0.00     0.002 A 
ATOM     28  C5  <0> d           4.042   2.541   0.672  0.00  0.00     0.031 A 
ENDBRANCH   1  23
TORSDOF 4
