REMARK  4 active torsions:
REMARK  status: ('A' for Active; 'I' for Inactive)
REMARK    1  A    between atoms: C3_3  and  C6_8 
REMARK    2  A    between atoms: C6_8  and  N2_9 
REMARK    3  A    between atoms: C13_17  and  C14_18 
REMARK    4  A    between atoms: C14_18  and  N4_19 
ROOT
ATOM      1  N2  <0> d          -1.880   1.629   0.313  0.00  0.00    -0.327 N 
ATOM      2  C7  <0> d          -2.946   0.810   0.636  0.00  0.00     0.068 A 
ATOM      3  C8  <0> d          -3.211  -0.541   0.462  0.00  0.00     0.071 A 
ATOM      4  C9  <0> d          -4.406  -1.075   0.909  0.00  0.00     0.104 A 
ATOM      5  C10 <0> d          -5.348  -0.259   1.538  0.00  0.00     0.104 A 
ATOM      6  C11 <0> d          -5.095   1.086   1.716  0.00  0.00     0.073 A 
ATOM      7  C12 <0> d          -3.891   1.636   1.266  0.00  0.00     0.088 A 
ATOM      8  N3  <0> d          -3.367   2.889   1.295  0.00  0.00    -0.231 NA
ATOM      9  C13 <0> d          -2.189   2.883   0.742  0.00  0.00     0.133 A 
ATOM     10  O2  <0> d          -6.525  -0.777   1.988  0.00  0.00    -0.346 OA
ATOM     11  C15 <0> d          -6.912  -2.050   1.459  0.00  0.00     0.202 C 
ATOM     12  C16 <0> d          -5.694  -2.982   1.511  0.00  0.00     0.202 C 
ATOM     13  O3  <0> d          -4.650  -2.401   0.722  0.00  0.00    -0.346 OA
ENDROOT
BRANCH   1  14
ATOM     14  C6  <0> d          -0.644   1.222  -0.360  0.00  0.00     0.174 C 
BRANCH  14  15
ATOM     15  C3  <0> d          -0.825   1.335  -1.852  0.00  0.00     0.018 A 
ATOM     16  C2  <0> d          -0.448   2.406  -2.696  0.00  0.00     0.068 A 
ATOM     17  C1  <0> d           0.227   3.687  -2.281  0.00  0.00     0.073 C 
ATOM     18  N1  <0> d          -0.797   2.063  -3.902  0.00  0.00    -0.133 NA
ATOM     19  O1  <0> d          -1.325   0.975  -3.921  0.00  0.00    -0.217 OA
ATOM     20  C4  <0> d          -1.390   0.438  -2.695  0.00  0.00     0.085 A 
ATOM     21  C5  <0> d          -1.976  -0.900  -2.326  0.00  0.00     0.079 C 
ENDBRANCH  14  15
ENDBRANCH   1  14
BRANCH   9  22
ATOM     22  C14 <0> d          -1.299   4.090   0.595  0.00  0.00     0.308 C 
BRANCH  22  23
ATOM     23  N4  <0> d          -1.720   4.870  -0.577  0.00  0.00    -0.073 N 
ATOM     24  H13 <0> d          -1.071   5.751  -0.685  0.00  0.00     0.274 HD
ATOM     25  H14 <0> d          -2.762   5.197  -0.445  0.00  0.00     0.274 HD
ATOM     26  H19 <0> d          -1.644   4.245  -1.480  0.00  0.00     0.274 HD
ENDBRANCH  22  23
ENDBRANCH   9  22
TORSDOF 4
