REMARK  8 active torsions:
REMARK  status: ('A' for Active; 'I' for Inactive)
REMARK    1  A    between atoms: C5_5  and  C21_28 
REMARK    2  A    between atoms: C6_6  and  N1_12 
REMARK       I    between atoms: N1_12  and  C11_13 
REMARK    3  A    between atoms: C11_13  and  C12_15 
REMARK    4  A    between atoms: C12_15  and  C13_16 
REMARK    5  A    between atoms: C13_16  and  C14_17 
REMARK    6  A    between atoms: C14_17  and  S2_18 
REMARK    7  A    between atoms: S2_18  and  C15_21 
REMARK    8  A    between atoms: C21_28  and  O5_30 
ROOT
ATOM      1  C1  <0> d          -6.539  -0.074  -2.226  0.00  0.00     0.046 C 
ATOM      2  C2  <0> d          -6.956  -0.116  -0.753  0.00  0.00     0.124 C 
ATOM      3  C3  <0> d          -6.248   1.013   0.006  0.00  0.00     0.079 C 
ATOM      4  C4  <0> d          -4.760   0.689   0.021  0.00  0.00    -0.021 A 
ATOM      5  C5  <0> d          -3.681   1.654   0.029  0.00  0.00     0.080 A 
ATOM      6  C6  <0> d          -2.381   1.157   0.020  0.00  0.00     0.094 A 
ATOM      7  S1  <0> d          -2.613  -0.560   0.014  0.00  0.00    -0.073 SA
ATOM      8  C7  <0> d          -4.382  -0.610   0.018  0.00  0.00     0.027 A 
ATOM      9  C8  <0> d          -5.285  -1.800   0.027  0.00  0.00     0.153 C 
ATOM     10  C9  <0> d          -4.842  -2.784  -1.064  0.00  0.00     0.052 C 
ATOM     11  C10 <0> d          -5.145  -2.506   1.389  0.00  0.00     0.052 C 
ATOM     12  C23 <0> d          -8.472   0.145  -0.682  0.00  0.00     0.046 C 
ATOM     13  N2  <0> d          -6.725  -1.456  -0.153  0.00  0.00    -0.054 N 
ATOM     14  H29 <0> d          -7.152  -2.161  -0.765  0.00  0.00     0.279 HD
ATOM     15  H30 <0> d          -7.181  -1.480   0.767  0.00  0.00     0.279 HD
ENDROOT
BRANCH   6  16
ATOM     16  N1  <0> d          -1.191   1.867   0.018  0.00  0.00    -0.320 N 
ATOM     17  C11 <0> d          -0.014   1.209   0.009  0.00  0.00     0.222 C 
ATOM     18  O1  <0> d           0.002  -0.004   0.002  0.00  0.00    -0.273 OA
ATOM     19  H12 <0> d          -1.204   2.836   0.023  0.00  0.00     0.169 HD
BRANCH  17  20
ATOM     20  C12 <0> d           1.280   1.980   0.001  0.00  0.00     0.104 C 
BRANCH  20  21
ATOM     21  C13 <0> d           2.457   1.002  -0.016  0.00  0.00     0.024 C 
BRANCH  21  22
ATOM     22  C14 <0> d           3.771   1.784  -0.024  0.00  0.00     0.146 C 
BRANCH  22  23
ATOM     23  S2  <0> d           5.166   0.625  -0.044  0.00  0.00     0.175 S 
ATOM     24  O2  <0> d           5.231  -0.084   1.186  0.00  0.00    -0.223 OA
ATOM     25  O3  <0> d           5.207  -0.070  -1.283  0.00  0.00    -0.223 OA
BRANCH  23  26
ATOM     26  C15 <0> d           6.603   1.644  -0.052  0.00  0.00     0.059 A 
ATOM     27  C20 <0> d           7.177   2.038   1.142  0.00  0.00     0.026 A 
ATOM     28  C19 <0> d           8.305   2.837   1.137  0.00  0.00     0.044 A 
ATOM     29  C18 <0> d           8.858   3.244  -0.065  0.00  0.00     0.116 A 
ATOM     30  C17 <0> d           8.282   2.849  -1.261  0.00  0.00     0.044 A 
ATOM     31  F1  <0> d           9.960   4.026  -0.071  0.00  0.00    -0.206 F 
ATOM     32  C16 <0> d           7.158   2.046  -1.253  0.00  0.00     0.026 A 
ENDBRANCH  23  26
ENDBRANCH  22  23
ENDBRANCH  21  22
ENDBRANCH  20  21
ENDBRANCH  17  20
ENDBRANCH   6  16
BRANCH   5  33
ATOM     33  C21 <0> d          -3.934   3.096   0.049  0.00  0.00     0.296 C 
ATOM     34  O4  <0> d          -4.040   3.710  -0.995  0.00  0.00    -0.259 OA
BRANCH  33  35
ATOM     35  O5  <0> d          -4.048   3.744   1.227  0.00  0.00    -0.322 OA
ATOM     36  C22 <0> d          -4.298   5.173   1.171  0.00  0.00     0.213 C 
ENDBRANCH  33  35
ENDBRANCH   5  33
TORSDOF 8
