REMARK  6 active torsions:
REMARK  status: ('A' for Active; 'I' for Inactive)
REMARK       I    between atoms: C2_2  and  N1_4 
REMARK    1  A    between atoms: N1_4  and  C4_6 
REMARK    2  A    between atoms: C5_8  and  C7_11 
REMARK    3  A    between atoms: C7_11  and  N3_12 
REMARK    4  A    between atoms: N3_12  and  C8_13 
REMARK    5  A    between atoms: N3_12  and  C10_17 
REMARK    6  A    between atoms: C8_13  and  C9_14 
REMARK       I    between atoms: C9_14  and  N4_16 
ROOT
ATOM      1  N3  <0> d          -2.711  -4.756  -3.174  0.00  0.00    -0.053 N 
ATOM      2  H23 <0> d          -3.170  -4.616  -2.286  0.00  0.00     0.281 HD
ENDROOT
BRANCH   1   3
ATOM      3  C7  <0> d          -1.279  -4.999  -2.952  0.00  0.00     0.295 C 
BRANCH   3   4
ATOM      4  C5  <0> d          -0.840  -4.299  -1.691  0.00  0.00     0.070 A 
ATOM      5  N2  <0> d           0.203  -3.491  -1.679  0.00  0.00    -0.227 NA
ATOM      6  C4  <0> d           0.580  -2.883  -0.575  0.00  0.00     0.175 A 
ATOM      7  S1  <0> d          -0.536  -3.427   0.561  0.00  0.00    -0.062 SA
ATOM      8  C6  <0> d          -1.500  -4.471  -0.520  0.00  0.00     0.082 A 
BRANCH   6   9
ATOM      9  N1  <0> d           1.645  -2.009  -0.390  0.00  0.00    -0.301 N 
ATOM     10  C2  <0> d           2.005  -1.639   0.855  0.00  0.00     0.221 C 
ATOM     11  C1  <0> d           3.103  -0.626   1.052  0.00  0.00     0.117 C 
ATOM     12  O1  <0> d           1.445  -2.121   1.816  0.00  0.00    -0.273 OA
ATOM     13  C3  <0> d           2.376  -1.490  -1.549  0.00  0.00     0.161 C 
ENDBRANCH   6   9
ENDBRANCH   3   4
ENDBRANCH   1   3
BRANCH   1  14
ATOM     14  C8  <0> d          -3.304  -5.914  -3.855  0.00  0.00     0.337 C 
BRANCH  14  15
ATOM     15  C9  <0> d          -4.803  -5.760  -3.895  0.00  0.00     0.241 C 
ATOM     16  O2  <0> d          -5.335  -4.849  -3.296  0.00  0.00    -0.272 OA
ATOM     17  N4  <0> d          -5.552  -6.634  -4.596  0.00  0.00    -0.369 N 
ATOM     18  H12 <0> d          -5.127  -7.362  -5.075  0.00  0.00     0.159 HD
ATOM     19  H13 <0> d          -6.516  -6.534  -4.622  0.00  0.00     0.159 HD
ENDBRANCH  14  15
ENDBRANCH   1  14
BRANCH   1  20
ATOM     20  C10 <0> d          -2.881  -3.558  -4.007  0.00  0.00     0.189 C 
ATOM     21  C14 <0> d          -2.250  -2.339  -3.312  0.00  0.00     0.033 C 
ATOM     22  C13 <0> d          -1.144  -1.818  -4.253  0.00  0.00     0.002 C 
ATOM     23  C12 <0> d          -1.565  -2.329  -5.653  0.00  0.00     0.002 C 
ATOM     24  C11 <0> d          -2.136  -3.736  -5.346  0.00  0.00     0.033 C 
ENDBRANCH   1  20
TORSDOF 6
