REMARK  5 active torsions:
REMARK  status: ('A' for Active; 'I' for Inactive)
REMARK    1  A    between atoms: C2_2  and  N1_3 
REMARK    2  A    between atoms: C7_9  and  C11_16 
REMARK       I    between atoms: C11_16  and  N3_18 
REMARK    3  A    between atoms: N3_18  and  C12_19 
REMARK    4  A    between atoms: N5_22  and  C15_24 
REMARK    5  A    between atoms: C15_24  and  C16_25 
REMARK       I    between atoms: C16_25  and  N6_27 
ROOT
ATOM      1  N1  <0> d           0.711  -0.489   1.189  0.00  0.00    -0.266 N 
ATOM      2  C3  <0> d           2.045  -0.686   1.129  0.00  0.00     0.264 A 
ATOM      3  O1  <0> d           2.663  -0.466   0.105  0.00  0.00    -0.267 OA
ATOM      4  C4  <0> d           2.735  -1.176   2.339  0.00  0.00     0.059 A 
ATOM      5  C5  <0> d           4.110  -1.402   2.353  0.00  0.00     0.020 A 
ATOM      6  C6  <0> d           4.712  -1.856   3.494  0.00  0.00     0.018 A 
ATOM      7  C7  <0> d           3.958  -2.094   4.647  0.00  0.00     0.034 A 
ATOM      8  C8  <0> d           2.582  -1.871   4.645  0.00  0.00     0.047 A 
ATOM      9  C9  <0> d           1.966  -1.412   3.491  0.00  0.00     0.053 A 
ATOM     10  N2  <0> d           0.600  -1.175   3.443  0.00  0.00    -0.307 N 
ATOM     11  H1  <0> d           0.057  -1.333   4.231  0.00  0.00     0.170 HD
ATOM     12  C10 <0> d           0.022  -0.724   2.317  0.00  0.00     0.329 A 
ATOM     13  O2  <0> d          -1.178  -0.525   2.318  0.00  0.00    -0.246 OA
ENDROOT
BRANCH   7  14
ATOM     14  C11 <0> d           4.623  -2.584   5.875  0.00  0.00     0.256 C 
ATOM     15  O3  <0> d           3.969  -2.792   6.878  0.00  0.00    -0.267 OA
ATOM     16  N3  <0> d           5.953  -2.801   5.880  0.00  0.00    -0.320 N 
ATOM     17  H10 <0> d           6.474  -2.635   5.079  0.00  0.00     0.169 HD
BRANCH  16  18
ATOM     18  C12 <0> d           6.585  -3.267   7.047  0.00  0.00     0.071 A 
ATOM     19  C14 <0> d           7.910  -3.525   7.190  0.00  0.00     0.144 A 
ATOM     20  N5  <0> d           8.110  -3.953   8.463  0.00  0.00    -0.270 N 
ATOM     21  N4  <0> d           6.869  -3.963   9.113  0.00  0.00    -0.182 NA
ATOM     22  C13 <0> d           5.958  -3.553   8.268  0.00  0.00     0.169 A 
BRANCH  20  23
ATOM     23  C15 <0> d           9.394  -4.339   9.052  0.00  0.00     0.253 C 
BRANCH  23  24
ATOM     24  C16 <0> d           9.634  -3.538  10.306  0.00  0.00     0.238 C 
ATOM     25  O4  <0> d           8.812  -2.724  10.671  0.00  0.00    -0.271 OA
ATOM     26  N6  <0> d          10.761  -3.725  11.021  0.00  0.00    -0.359 N 
ATOM     27  C17 <0> d          10.993  -2.946  12.239  0.00  0.00     0.152 C 
ATOM     28  C18 <0> d          11.753  -4.708  10.579  0.00  0.00     0.152 C 
ENDBRANCH  23  24
ENDBRANCH  20  23
ENDBRANCH  16  18
ENDBRANCH   7  14
BRANCH   1  29
ATOM     29  C2  <0> d           0.002  -0.004   0.002  0.00  0.00     0.132 C 
ATOM     30  C1  <0> d          -0.019   1.526   0.010  0.00  0.00     0.027 C 
ENDBRANCH   1  29
TORSDOF 5
