REMARK  6 active torsions:
REMARK  status: ('A' for Active; 'I' for Inactive)
REMARK    1  A    between atoms: N1_2  and  S1_4 
REMARK    2  A    between atoms: S1_4  and  C3_7 
REMARK    3  A    between atoms: C6_10  and  C9_13 
REMARK       I    between atoms: C9_13  and  N2_15 
REMARK       I    between atoms: N2_15  and  C10_16 
REMARK    4  A    between atoms: C10_16  and  C11_18 
REMARK    5  A    between atoms: C11_18  and  S2_19 
REMARK    6  A    between atoms: S2_19  and  C12_20 
ROOT
ATOM      1  C9  <0> d          -0.014   1.211   0.009  0.00  0.00     0.258 C 
ATOM      2  O3  <0> d           0.002  -0.004   0.002  0.00  0.00    -0.267 OA
ATOM      3  N2  <0> d           1.143   1.901   0.001  0.00  0.00    -0.293 N 
ATOM      4  C10 <0> d           2.320   1.243  -0.013  0.00  0.00     0.234 C 
ATOM      5  O4  <0> d           2.336   0.030  -0.020  0.00  0.00    -0.272 OA
ATOM      6  H11 <0> d           1.130   2.870   0.007  0.00  0.00     0.172 HD
ENDROOT
BRANCH   1   7
ATOM      7  C6  <0> d          -1.304   1.932   0.019  0.00  0.00     0.032 A 
ATOM      8  C5  <0> d          -2.505   1.221   0.021  0.00  0.00     0.018 A 
ATOM      9  C4  <0> d          -3.706   1.901   0.030  0.00  0.00     0.026 A 
ATOM     10  C3  <0> d          -3.721   3.284   0.037  0.00  0.00     0.079 A 
ATOM     11  C8  <0> d          -2.534   3.995   0.035  0.00  0.00     0.026 A 
ATOM     12  C7  <0> d          -1.326   3.328   0.032  0.00  0.00     0.018 A 
BRANCH  10  13
ATOM     13  S1  <0> d          -5.258   4.144   0.049  0.00  0.00     0.260 S 
ATOM     14  O1  <0> d          -5.008   5.432  -0.496  0.00  0.00    -0.200 OA
ATOM     15  O2  <0> d          -6.223   3.259  -0.502  0.00  0.00    -0.200 OA
BRANCH  13  16
ATOM     16  N1  <0> d          -5.678   4.375   1.635  0.00  0.00    -0.315 N 
ATOM     17  C1  <0> d          -5.245   5.584   2.339  0.00  0.00     0.162 C 
ATOM     18  C2  <0> d          -6.483   3.369   2.333  0.00  0.00     0.162 C 
ENDBRANCH  13  16
ENDBRANCH  10  13
ENDBRANCH   1   7
BRANCH   4  19
ATOM     19  C11 <0> d           3.614   2.014  -0.022  0.00  0.00     0.184 C 
BRANCH  19  20
ATOM     20  S2  <0> d           5.006   0.857  -0.041  0.00  0.00    -0.100 SA
BRANCH  20  21
ATOM     21  C12 <0> d           6.351   1.995  -0.048  0.00  0.00     0.108 A 
ATOM     22  N4  <0> d           6.125   3.299  -0.044  0.00  0.00    -0.234 NA
ATOM     23  C17 <0> d           7.106   4.183  -0.043  0.00  0.00     0.235 A 
ATOM     24  N3  <0> d           8.370   3.808  -0.057  0.00  0.00    -0.234 NA
ATOM     25  C16 <0> d           8.687   2.527  -0.067  0.00  0.00     0.111 A 
ATOM     26  C13 <0> d           7.693   1.524  -0.063  0.00  0.00     0.036 A 
ATOM     27  S3  <0> d          10.202   1.607  -0.086  0.00  0.00    -0.081 SA
ATOM     28  C14 <0> d           8.200   0.163  -0.075  0.00  0.00     0.024 A 
ATOM     29  C15 <0> d           9.525  -0.042  -0.088  0.00  0.00     0.053 A 
ENDBRANCH  20  21
ENDBRANCH  19  20
ENDBRANCH   4  19
TORSDOF 6
