REMARK  5 active torsions:
REMARK  status: ('A' for Active; 'I' for Inactive)
REMARK    1  A    between atoms: C2_2  and  O1_3 
REMARK    2  A    between atoms: O1_3  and  C3_4 
REMARK    3  A    between atoms: C7_8  and  N1_10 
REMARK    4  A    between atoms: C11_14  and  N4_32 
REMARK    5  A    between atoms: C15_19  and  C18_22 
ROOT
ATOM      1  C13 <0> d          -6.514   2.666   0.989  0.00  0.00     0.236 C 
ATOM      2  C14 <0> d          -5.008   2.853   0.796  0.00  0.00     0.040 C 
ATOM      3  C15 <0> d          -4.700   2.970  -0.699  0.00  0.00     0.058 C 
ATOM      4  C16 <0> d          -5.495   4.139  -1.287  0.00  0.00     0.040 C 
ATOM      5  C17 <0> d          -6.987   3.915  -1.033  0.00  0.00     0.236 C 
ATOM      6  N4  <0> d          -7.220   3.836   0.425  0.00  0.00    -0.058 N 
ATOM      7  H27 <0> d          -6.857   4.689   0.867  0.00  0.00     0.281 HD
ENDROOT
BRANCH   6   8
ATOM      8  C11 <0> d          -8.668   3.732   0.700  0.00  0.00     0.289 A 
ATOM      9  C10 <0> d          -9.408   4.947   0.102  0.00  0.00     0.146 A 
ATOM     10  C9  <0> d         -10.371   4.324  -0.885  0.00  0.00     0.233 A 
ATOM     11  N1  <0> d         -10.221   2.994  -0.868  0.00  0.00    -0.250 N 
ATOM     12  O2  <0> d         -11.153   4.934  -1.582  0.00  0.00    -0.273 OA
ATOM     13  C12 <0> d          -9.290   2.552  -0.013  0.00  0.00     0.262 A 
ATOM     14  O3  <0> d          -8.994   1.389   0.163  0.00  0.00    -0.270 OA
BRANCH  11  15
ATOM     15  C7  <0> d         -10.977   2.135  -1.678  0.00  0.00     0.048 A 
ATOM     16  C6  <0> d         -10.810   2.154  -3.056  0.00  0.00     0.030 A 
ATOM     17  C5  <0> d         -11.551   1.303  -3.854  0.00  0.00     0.005 A 
ATOM     18  C4  <0> d         -12.466   0.439  -3.284  0.00  0.00     0.037 A 
ATOM     19  C3  <0> d         -12.641   0.420  -1.907  0.00  0.00     0.070 A 
ATOM     20  C8  <0> d         -11.896   1.268  -1.103  0.00  0.00     0.066 A 
BRANCH  19  21
ATOM     21  O1  <0> d         -13.542  -0.430  -1.348  0.00  0.00    -0.351 OA
BRANCH  21  22
ATOM     22  C2  <0> d         -14.275  -1.275  -2.237  0.00  0.00     0.171 C 
ATOM     23  C1  <0> d         -15.233  -2.154  -1.431  0.00  0.00     0.034 C 
ENDBRANCH  21  22
ENDBRANCH  19  21
ENDBRANCH  11  15
ENDBRANCH   6   8
BRANCH   3  24
ATOM     24  C18 <0> d          -3.226   3.215  -0.893  0.00  0.00     0.109 A 
ATOM     25  N3  <0> d          -2.341   2.291  -1.130  0.00  0.00    -0.233 NA
ATOM     26  C24 <0> d          -1.113   2.856  -1.256  0.00  0.00     0.085 A 
ATOM     27  C19 <0> d          -1.278   4.239  -1.069  0.00  0.00     0.062 A 
ATOM     28  C23 <0> d           0.163   2.343  -1.500  0.00  0.00     0.034 A 
ATOM     29  N2  <0> d          -2.626   4.435  -0.845  0.00  0.00    -0.342 N 
ATOM     30  C20 <0> d          -0.177   5.082  -1.139  0.00  0.00     0.032 A 
ATOM     31  H2  <0> d          -3.078   5.312  -0.677  0.00  0.00     0.167 HD
ATOM     32  C21 <0> d           1.072   4.554  -1.387  0.00  0.00     0.002 A 
ATOM     33  C22 <0> d           1.235   3.187  -1.566  0.00  0.00     0.002 A 
ENDBRANCH   3  24
TORSDOF 5
