REMARK  4 active torsions:
REMARK  status: ('A' for Active; 'I' for Inactive)
REMARK    1  A    between atoms: C8_8  and  C9_10 
REMARK       I    between atoms: C9_10  and  N1_12 
REMARK    2  A    between atoms: N1_12  and  N2_13 
REMARK       I    between atoms: N2_13  and  C10_14 
REMARK    3  A    between atoms: C10_14  and  C11_16 
REMARK    4  A    between atoms: C12_17  and  C13_18 
ROOT
ATOM      1  C9  <0> d           1.466  -5.205   3.548  0.00  0.00     0.277 C 
ATOM      2  O1  <0> d           2.642  -4.955   3.733  0.00  0.00    -0.265 OA
ATOM      3  N1  <0> d           1.046  -6.485   3.522  0.00  0.00    -0.263 N 
ATOM      4  H10 <0> d           0.108  -6.685   3.374  0.00  0.00     0.190 HD
ENDROOT
BRANCH   3   5
ATOM      5  N2  <0> d           1.963  -7.528   3.710  0.00  0.00    -0.264 N 
ATOM      6  C10 <0> d           1.542  -8.808   3.684  0.00  0.00     0.259 C 
ATOM      7  O2  <0> d           0.366  -9.059   3.499  0.00  0.00    -0.267 OA
ATOM      8  H11 <0> d           2.900  -7.328   3.857  0.00  0.00     0.190 HD
BRANCH   6   9
ATOM      9  C11 <0> d           2.500  -9.896   3.880  0.00  0.00     0.079 C 
ATOM     10  C12 <0> d           2.100 -11.181   3.746  0.00  0.00     0.045 C 
BRANCH  10  11
ATOM     11  C13 <0> d           0.961 -11.507   2.886  0.00  0.00     0.097 A 
ATOM     12  S2  <0> d           0.093 -13.056   2.697  0.00  0.00    -0.081 SA
ATOM     13  C15 <0> d          -1.035 -12.553   1.553  0.00  0.00     0.071 A 
ATOM     14  C14 <0> d          -0.699 -11.248   1.364  0.00  0.00     0.125 A 
ATOM     15  N3  <0> d           0.299 -10.730   2.032  0.00  0.00    -0.253 NA
ENDBRANCH  10  11
ENDBRANCH   6   9
ENDBRANCH   3   5
BRANCH   1  16
ATOM     16  C8  <0> d           0.506  -4.115   3.352  0.00  0.00     0.075 A 
ATOM     17  C7  <0> d           0.727  -2.750   3.342  0.00  0.00     0.033 A 
ATOM     18  C6  <0> d          -0.377  -1.938   3.131  0.00  0.00    -0.043 A 
ATOM     19  C5  <0> d          -1.575  -2.567   2.956  0.00  0.00    -0.010 A 
ATOM     20  C16 <0> d          -0.282  -0.415   3.095  0.00  0.00     0.044 C 
ATOM     21  C4  <0> d          -2.904  -1.914   2.716  0.00  0.00     0.047 C 
ATOM     22  S1  <0> d          -1.251  -4.201   3.064  0.00  0.00    -0.089 SA
ATOM     23  C3  <0> d          -2.786  -0.425   3.070  0.00  0.00     0.009 C 
ATOM     24  C2  <0> d          -1.528   0.141   2.404  0.00  0.00    -0.014 C 
ATOM     25  C1  <0> d          -1.535   1.666   2.518  0.00  0.00     0.010 C 
ENDBRANCH   1  16
TORSDOF 4
