REMARK  7 active torsions:
REMARK  status: ('A' for Active; 'I' for Inactive)
REMARK    1  A    between atoms: C4_4  and  C17_25 
REMARK    2  A    between atoms: N1_8  and  C7_9 
REMARK    3  A    between atoms: C7_9  and  C8_10 
REMARK       I    between atoms: C8_10  and  N2_12 
REMARK    4  A    between atoms: N2_12  and  N3_13 
REMARK    5  A    between atoms: C9_14  and  C10_15 
REMARK    6  A    between atoms: C15_20  and  O3_21 
REMARK    7  A    between atoms: C17_25  and  O4_26 
ROOT
ATOM      1  C1  <0> d          -0.018   1.503   0.010  0.00  0.00     0.070 C 
ATOM      2  C2  <0> d           0.002  -0.004   0.002  0.00  0.00     0.029 A 
ATOM      3  C3  <0> d           0.005  -0.664  -1.184  0.00  0.00     0.043 A 
ATOM      4  C4  <0> d           0.024  -2.060  -1.210  0.00  0.00     0.011 A 
ATOM      5  C5  <0> d           0.039  -2.756  -0.004  0.00  0.00     0.122 A 
ATOM      6  C6  <0> d           0.035  -2.022   1.211  0.00  0.00     0.269 A 
ATOM      7  O1  <0> d           0.049  -2.608   2.280  0.00  0.00    -0.266 OA
ATOM      8  N1  <0> d           0.022  -0.676   1.179  0.00  0.00    -0.307 N 
ATOM      9  C16 <0> d           0.058  -4.188   0.010  0.00  0.00     0.106 C 
ATOM     10  N4  <0> d           0.072  -5.324   0.022  0.00  0.00    -0.191 NA
ATOM     11 Br2  <0> d          -0.016   0.309  -2.806  0.00  0.00    -0.048 Br
ENDROOT
BRANCH   4  12
ATOM     12  C17 <0> d           0.027  -2.801  -2.522  0.00  0.00     0.208 C 
BRANCH  12  13
ATOM     13  O4  <0> d           0.047  -4.208  -2.273  0.00  0.00    -0.391 OA
ATOM     14  C18 <0> d           0.051  -5.008  -3.458  0.00  0.00     0.201 C 
ENDBRANCH  12  13
ENDBRANCH   4  12
BRANCH   8  15
ATOM     15  C7  <0> d           0.024   0.075   2.438  0.00  0.00     0.236 C 
BRANCH  15  16
ATOM     16  C8  <0> d          -1.396   0.313   2.882  0.00  0.00     0.256 C 
ATOM     17  O2  <0> d          -2.319  -0.103   2.214  0.00  0.00    -0.270 OA
ATOM     18  N2  <0> d          -1.641   0.988   4.023  0.00  0.00    -0.246 N 
ATOM     19  H6  <0> d          -0.903   1.321   4.557  0.00  0.00     0.192 HD
BRANCH  18  20
ATOM     20  N3  <0> d          -2.961   1.210   4.436  0.00  0.00    -0.184 NA
ATOM     21  C9  <0> d          -3.196   1.860   5.534  0.00  0.00     0.153 C 
BRANCH  21  22
ATOM     22  C10 <0> d          -4.585   2.093   5.969  0.00  0.00     0.017 A 
ATOM     23  C15 <0> d          -5.654   1.614   5.200  0.00  0.00     0.077 A 
ATOM     24  C14 <0> d          -6.956   1.833   5.621  0.00  0.00     0.039 A 
ATOM     25  C13 <0> d          -7.199   2.532   6.788  0.00  0.00     0.022 A 
ATOM     26  C12 <0> d          -6.146   3.013   7.549  0.00  0.00     0.011 A 
ATOM     27  C11 <0> d          -4.843   2.798   7.147  0.00  0.00     0.034 A 
ATOM     28 Br1  <0> d          -6.495   3.966   9.144  0.00  0.00    -0.051 Br
BRANCH  23  29
ATOM     29  O3  <0> d          -5.415   0.932   4.050  0.00  0.00    -0.360 OA
ATOM     30  H11 <0> d          -5.331  -0.024   4.170  0.00  0.00     0.217 HD
ENDBRANCH  23  29
ENDBRANCH  21  22
ENDBRANCH  18  20
ENDBRANCH  15  16
ENDBRANCH   8  15
TORSDOF 7
