REMARK  9 active torsions:
REMARK  status: ('A' for Active; 'I' for Inactive)
REMARK    1  A    between atoms: C2_2  and  N3_37 
REMARK    2  A    between atoms: C7_8  and  N1_15 
REMARK    3  A    between atoms: C8_9  and  C9_10 
REMARK    4  A    between atoms: C9_10  and  O2_12 
REMARK    5  A    between atoms: O2_12  and  C10_13 
REMARK       I    between atoms: N1_15  and  C12_16 
REMARK    6  A    between atoms: C12_16  and  C13_18 
REMARK    7  A    between atoms: C16_21  and  S2_24 
REMARK    8  A    between atoms: S2_24  and  N2_27 
REMARK    9  A    between atoms: N2_27  and  C20_29 
ROOT
ATOM      1  N1  <0> d           0.465   2.687   2.257  0.00  0.00    -0.316 N 
ATOM      2  C12 <0> d           1.312   3.136   3.204  0.00  0.00     0.256 C 
ATOM      3  O3  <0> d           2.242   3.856   2.896  0.00  0.00    -0.267 OA
ATOM      4  H15 <0> d          -0.277   2.112   2.502  0.00  0.00     0.169 HD
ENDROOT
BRANCH   1   5
ATOM      5  C7  <0> d           0.654   3.046   0.933  0.00  0.00     0.094 A 
ATOM      6  S1  <0> d           1.895   4.049   0.256  0.00  0.00    -0.074 SA
ATOM      7  C6  <0> d           1.409   3.997  -1.444  0.00  0.00     0.018 A 
ATOM      8  C5  <0> d           0.309   3.211  -1.465  0.00  0.00    -0.023 A 
ATOM      9  C26 <0> d           2.049   4.660  -2.623  0.00  0.00     0.281 C 
ATOM     10  C4  <0> d          -0.407   2.931  -2.781  0.00  0.00     0.068 C 
ATOM     11  C8  <0> d          -0.104   2.688  -0.176  0.00  0.00     0.080 A 
ATOM     12  C3  <0> d           0.045   3.980  -3.802  0.00  0.00     0.240 C 
ATOM     13  N3  <0> d           1.521   4.014  -3.849  0.00  0.00    -0.067 N 
ATOM     14  H30 <0> d           1.876   3.052  -3.900  0.00  0.00     0.280 HD
BRANCH  13  15
ATOM     15  C2  <0> d           1.972   4.756  -5.046  0.00  0.00     0.231 C 
ATOM     16  C1  <0> d           1.374   6.164  -5.059  0.00  0.00     0.034 C 
ENDBRANCH  13  15
BRANCH  11  17
ATOM     17  C9  <0> d          -1.278   1.822  -0.047  0.00  0.00     0.296 C 
ATOM     18  O1  <0> d          -1.157   0.616  -0.142  0.00  0.00    -0.259 OA
BRANCH  17  19
ATOM     19  O2  <0> d          -2.494   2.363   0.172  0.00  0.00    -0.318 OA
BRANCH  19  20
ATOM     20  C10 <0> d          -3.614   1.444   0.283  0.00  0.00     0.174 C 
ATOM     21  C11 <0> d          -4.900   2.236   0.528  0.00  0.00     0.034 C 
ENDBRANCH  19  20
ENDBRANCH  17  19
ENDBRANCH  11  17
ENDBRANCH   1   5
BRANCH   2  22
ATOM     22  C13 <0> d           1.111   2.752   4.617  0.00  0.00     0.032 A 
ATOM     23  C18 <0> d           1.986   3.216   5.601  0.00  0.00     0.018 A 
ATOM     24  C17 <0> d           1.792   2.854   6.918  0.00  0.00     0.026 A 
ATOM     25  C16 <0> d           0.733   2.034   7.265  0.00  0.00     0.080 A 
ATOM     26  C15 <0> d          -0.138   1.572   6.295  0.00  0.00     0.026 A 
ATOM     27  C14 <0> d           0.041   1.930   4.975  0.00  0.00     0.018 A 
BRANCH  25  28
ATOM     28  S2  <0> d           0.493   1.577   8.950  0.00  0.00     0.264 S 
ATOM     29  O4  <0> d          -0.246   0.363   8.940  0.00  0.00    -0.200 OA
ATOM     30  O5  <0> d           1.758   1.695   9.587  0.00  0.00    -0.200 OA
BRANCH  28  31
ATOM     31  N2  <0> d          -0.489   2.723   9.632  0.00  0.00    -0.276 N 
ATOM     32  C19 <0> d          -1.944   2.615   9.498  0.00  0.00     0.170 C 
BRANCH  31  33
ATOM     33  C20 <0> d           0.070   3.793  10.335  0.00  0.00     0.044 A 
ATOM     34  C25 <0> d          -0.161   5.097   9.917  0.00  0.00     0.030 A 
ATOM     35  C24 <0> d           0.392   6.153  10.615  0.00  0.00     0.002 A 
ATOM     36  C23 <0> d           1.176   5.912  11.729  0.00  0.00     0.000 A 
ATOM     37  C22 <0> d           1.409   4.615  12.147  0.00  0.00     0.002 A 
ATOM     38  C21 <0> d           0.853   3.555  11.457  0.00  0.00     0.030 A 
ENDBRANCH  31  33
ENDBRANCH  28  31
ENDBRANCH  25  28
ENDBRANCH   2  22
TORSDOF 9
