REMARK  6 active torsions:
REMARK  status: ('A' for Active; 'I' for Inactive)
REMARK    1  A    between atoms: S1_2  and  N1_5 
REMARK    2  A    between atoms: N1_5  and  C2_6 
REMARK    3  A    between atoms: N1_5  and  C5_10 
REMARK    4  A    between atoms: C2_6  and  C3_7 
REMARK    5  A    between atoms: C5_10  and  C6_11 
REMARK    6  A    between atoms: C9_14  and  C10_16 
ROOT
ATOM      1  C3  <0> d          -0.944   7.076   3.119  0.00  0.00     0.144 C 
ATOM      2  C4  <0> d          -1.782   7.950   3.957  0.00  0.00     0.060 C 
ATOM      3  N2  <0> d          -2.429   8.624   4.603  0.00  0.00    -0.197 NA
ENDROOT
BRANCH   1   4
ATOM      4  C2  <0> d           0.185   7.899   2.495  0.00  0.00     0.149 C 
BRANCH   4   5
ATOM      5  N1  <0> d           1.019   7.029   1.662  0.00  0.00    -0.304 N 
BRANCH   5   6
ATOM      6  S1  <0> d           2.393   6.350   2.289  0.00  0.00     0.225 S 
ATOM      7  C1  <0> d           3.708   7.551   1.942  0.00  0.00     0.186 C 
ATOM      8  O1  <0> d           2.155   6.276   3.688  0.00  0.00    -0.206 OA
ATOM      9  O2  <0> d           2.595   5.169   1.525  0.00  0.00    -0.206 OA
ENDBRANCH   5   6
BRANCH   5  10
ATOM     10  C5  <0> d           0.638   6.761   0.273  0.00  0.00     0.200 C 
BRANCH  10  11
ATOM     11  C6  <0> d          -0.342   5.617   0.233  0.00  0.00     0.072 A 
ATOM     12  O3  <0> d          -0.019   4.322   0.128  0.00  0.00    -0.313 OA
ATOM     13  C9  <0> d          -1.146   3.577   0.120  0.00  0.00     0.076 A 
ATOM     14  C8  <0> d          -2.223   4.443   0.234  0.00  0.00     0.040 A 
ATOM     15  C7  <0> d          -1.690   5.734   0.305  0.00  0.00     0.037 A 
BRANCH  13  16
ATOM     16  C10 <0> d          -1.214   2.178   0.020  0.00  0.00     0.060 C 
ATOM     17  C11 <0> d          -0.317   1.495  -0.794  0.00  0.00     0.103 A 
ATOM     18  C14 <0> d          -0.230   0.025  -0.778  0.00  0.00     0.265 A 
ATOM     19  C12 <0> d           0.583   2.210  -1.716  0.00  0.00     0.265 A 
ATOM     20  N4  <0> d           0.659  -0.571  -1.599  0.00  0.00    -0.275 N 
ATOM     21  O6  <0> d          -0.942  -0.635  -0.043  0.00  0.00    -0.267 OA
ATOM     22  C13 <0> d           1.449   0.144  -2.413  0.00  0.00     0.329 A 
ATOM     23  H14 <0> d           0.729  -1.538  -1.600  0.00  0.00     0.173 HD
ATOM     24  N3  <0> d           1.423   1.482  -2.480  0.00  0.00    -0.275 N 
ATOM     25  O5  <0> d           2.229  -0.454  -3.128  0.00  0.00    -0.246 OA
ATOM     26  H13 <0> d           2.022   1.938  -3.092  0.00  0.00     0.173 HD
ATOM     27  O4  <0> d           0.569   3.425  -1.786  0.00  0.00    -0.267 OA
ENDBRANCH  13  16
ENDBRANCH  10  11
ENDBRANCH   5  10
ENDBRANCH   4   5
ENDBRANCH   1   4
TORSDOF 6
