REMARK  3 active torsions:
REMARK  status: ('A' for Active; 'I' for Inactive)
REMARK    1  A    between atoms: C10_10  and  C14_15 
REMARK       I    between atoms: C14_15  and  N1_17 
REMARK    2  A    between atoms: N1_17  and  N2_18 
REMARK       I    between atoms: N2_18  and  C15_19 
REMARK    3  A    between atoms: C15_19  and  C16_21 
ROOT
ATOM      1  C14 <0> d          -0.014   1.212   0.009  0.00  0.00     0.270 C 
ATOM      2  O2  <0> d           0.002  -0.004   0.002  0.00  0.00    -0.266 OA
ATOM      3  N1  <0> d           1.143   1.901   0.001  0.00  0.00    -0.263 N 
ATOM      4  H8  <0> d           1.130   2.871   0.007  0.00  0.00     0.190 HD
ENDROOT
BRANCH   1   5
ATOM      5  C10 <0> d          -1.304   1.933   0.019  0.00  0.00     0.034 A 
ATOM      6  C9  <0> d          -1.323   3.328   0.026  0.00  0.00     0.018 A 
ATOM      7  C8  <0> d          -2.526   4.008   0.036  0.00  0.00     0.014 A 
ATOM      8  C7  <0> d          -3.727   3.307   0.038  0.00  0.00    -0.011 A 
ATOM      9  C5  <0> d          -5.139   3.766   0.047  0.00  0.00    -0.011 A 
ATOM     10  C12 <0> d          -3.712   1.900   0.030  0.00  0.00     0.027 A 
ATOM     11  C4  <0> d          -5.979   2.640   0.044  0.00  0.00     0.026 A 
ATOM     12  C6  <0> d          -5.699   5.037   0.056  0.00  0.00     0.013 A 
ATOM     13  C3  <0> d          -7.359   2.805   0.050  0.00  0.00     0.016 A 
ATOM     14  C13 <0> d          -5.119   1.433   0.034  0.00  0.00     0.194 A 
ATOM     15  C2  <0> d          -7.902   4.079   0.060  0.00  0.00     0.001 A 
ATOM     16  C1  <0> d          -7.077   5.187   0.062  0.00  0.00     0.001 A 
ATOM     17  O1  <0> d          -5.496   0.278   0.029  0.00  0.00    -0.287 OA
ATOM     18  C11 <0> d          -2.505   1.218   0.015  0.00  0.00     0.033 A 
ENDBRANCH   1   5
BRANCH   3  19
ATOM     19  N2  <0> d           2.366   1.217  -0.014  0.00  0.00    -0.263 N 
ATOM     20  C15 <0> d           3.524   1.907  -0.021  0.00  0.00     0.277 C 
ATOM     21  O3  <0> d           3.507   3.124  -0.015  0.00  0.00    -0.265 OA
ATOM     22  H9  <0> d           2.379   0.247  -0.019  0.00  0.00     0.190 HD
BRANCH  20  23
ATOM     23  C16 <0> d           4.803   1.191  -0.037  0.00  0.00     0.075 A 
ATOM     24  S1  <0> d           5.109  -0.565  -0.042  0.00  0.00    -0.089 SA
ATOM     25  C19 <0> d           6.837  -0.521  -0.068  0.00  0.00    -0.010 A 
ATOM     26  C18 <0> d           7.152   0.802  -0.062  0.00  0.00    -0.043 A 
ATOM     27  C20 <0> d           8.064  -1.390  -0.089  0.00  0.00     0.047 C 
ATOM     28  C17 <0> d           6.085   1.701  -0.047  0.00  0.00     0.033 A 
ATOM     29  C22 <0> d           8.678   0.926  -0.071  0.00  0.00     0.040 C 
ATOM     30  C21 <0> d           9.203  -0.447  -0.533  0.00  0.00     0.010 C 
ENDBRANCH  20  23
ENDBRANCH   3  19
TORSDOF 3
