REMARK  7 active torsions:
REMARK  status: ('A' for Active; 'I' for Inactive)
REMARK    1  A    between atoms: C2_2  and  C3_3 
REMARK    2  A    between atoms: C4_5  and  N4_8 
REMARK    3  A    between atoms: N4_8  and  C5_9 
REMARK    4  A    between atoms: C5_9  and  C12_22 
REMARK    5  A    between atoms: C6_10  and  C7_11 
REMARK    6  A    between atoms: N5_13  and  C8_14 
REMARK    7  A    between atoms: C9_17  and  C10_20 
ROOT
ATOM      1  C5  <0> d           1.770  -0.459  -5.319  0.00  0.00     0.119 C 
ATOM      2  C6  <0> d           1.214  -1.490  -5.989  0.00  0.00     0.095 C 
ENDROOT
BRANCH   1   3
ATOM      3  N4  <0> d           0.979   0.543  -4.825  0.00  0.00    -0.344 N 
ATOM      4  H8  <0> d           0.018   0.513  -4.957  0.00  0.00     0.163 HD
BRANCH   3   5
ATOM      5  C4  <0> d           1.583   1.662  -4.097  0.00  0.00     0.357 A 
ATOM      6  N1  <0> d           0.627   2.777  -3.973  0.00  0.00    -0.225 NA
ATOM      7  C3  <0> d           0.453   2.934  -2.701  0.00  0.00     0.146 A 
ATOM      8  N3  <0> d           1.194   2.048  -1.986  0.00  0.00    -0.136 NA
ATOM      9  N2  <0> d           1.859   1.287  -2.700  0.00  0.00    -0.141 NA
BRANCH   7  10
ATOM     10  C2  <0> d          -0.452   3.972  -2.090  0.00  0.00     0.077 C 
ATOM     11  C1  <0> d          -1.120   4.785  -3.201  0.00  0.00     0.013 C 
ENDBRANCH   7  10
ENDBRANCH   3   5
ENDBRANCH   1   3
BRANCH   1  12
ATOM     12  C12 <0> d           3.262  -0.412  -5.114  0.00  0.00     0.432 C 
ATOM     13  F1  <0> d           3.904  -0.408  -6.357  0.00  0.00    -0.165 F 
ATOM     14  F2  <0> d           3.600   0.749  -4.411  0.00  0.00    -0.165 F 
ATOM     15  F3  <0> d           3.668  -1.534  -4.383  0.00  0.00    -0.165 F 
ENDBRANCH   1  12
BRANCH   2  16
ATOM     16  C7  <0> d           1.998  -2.612  -6.339  0.00  0.00     0.221 C 
ATOM     17  O1  <0> d           1.484  -3.575  -7.136  0.00  0.00    -0.170 OA
ATOM     18  N5  <0> d           3.234  -2.720  -5.887  0.00  0.00    -0.034 NA
BRANCH  18  19
ATOM     19  C8  <0> d           3.985  -3.792  -6.221  0.00  0.00     0.747 A 
ATOM     20  N6  <0> d           3.608  -4.801  -6.989  0.00  0.00    -0.044 NA
ATOM     21  C9  <0> d           4.605  -5.676  -7.101  0.00  0.00     0.165 A 
ATOM     22  N7  <0> d           5.634  -5.254  -6.415  0.00  0.00    -0.144 NA
ATOM     23  N8  <0> d           5.269  -4.029  -5.833  0.00  0.00    -0.104 N 
ATOM     24  H2  <0> d           5.820  -3.466  -5.267  0.00  0.00     0.208 HD
BRANCH  21  25
ATOM     25  C10 <0> d           4.555  -6.956  -7.896  0.00  0.00     0.078 C 
ATOM     26  C11 <0> d           5.024  -6.686  -9.327  0.00  0.00     0.013 C 
ENDBRANCH  21  25
ENDBRANCH  18  19
ENDBRANCH   2  16
TORSDOF 7
