REMARK  6 active torsions:
REMARK  status: ('A' for Active; 'I' for Inactive)
REMARK    1  A    between atoms: C2_2  and  C3_3 
REMARK    2  A    between atoms: C4_4  and  C6_9 
REMARK       I    between atoms: C6_9  and  N3_11 
REMARK    3  A    between atoms: N3_11  and  C7_12 
REMARK    4  A    between atoms: C7_12  and  C8_13 
REMARK    5  A    between atoms: C8_13  and  C9_14 
REMARK    6  A    between atoms: C8_13  and  N4_19 
ROOT
ATOM      1  C7  <0> d          -2.371  -0.303  -4.986  0.00  0.00     0.164 C 
ENDROOT
BRANCH   1   2
ATOM      2  N3  <0> d          -2.198   1.139  -5.180  0.00  0.00    -0.354 N 
ATOM      3  C6  <0> d          -1.166   1.779  -4.594  0.00  0.00     0.255 C 
ATOM      4  O1  <0> d          -0.379   1.159  -3.905  0.00  0.00    -0.268 OA
ATOM      5  H8  <0> d          -2.826   1.633  -5.729  0.00  0.00     0.162 HD
BRANCH   3   6
ATOM      6  C4  <0> d          -0.992   3.230  -4.789  0.00  0.00     0.075 A 
ATOM      7  C3  <0> d           0.011   4.013  -4.255  0.00  0.00     0.044 A 
ATOM      8  N2  <0> d          -0.198   5.273  -4.671  0.00  0.00    -0.282 N 
ATOM      9  N1  <0> d          -1.338   5.288  -5.483  0.00  0.00    -0.186 NA
ATOM     10  H1  <0> d           0.349   6.042  -4.449  0.00  0.00     0.189 HD
ATOM     11  C5  <0> d          -1.820   4.078  -5.557  0.00  0.00     0.157 A 
BRANCH   7  12
ATOM     12  C2  <0> d           1.131   3.543  -3.363  0.00  0.00     0.055 C 
ATOM     13  C1  <0> d           2.283   3.020  -4.224  0.00  0.00     0.011 C 
ENDBRANCH   7  12
ENDBRANCH   3   6
ENDBRANCH   1   2
BRANCH   1  14
ATOM     14  C8  <0> d          -3.661  -0.758  -5.671  0.00  0.00     0.280 C 
BRANCH  14  15
ATOM     15  C9  <0> d          -3.524  -0.590  -7.163  0.00  0.00     0.017 A 
ATOM     16  S1  <0> d          -3.698   0.888  -8.148  0.00  0.00    -0.104 SA
ATOM     17  C12 <0> d          -3.375   0.164  -9.748  0.00  0.00     0.050 A 
ATOM     18  C11 <0> d          -3.166  -1.137  -9.430  0.00  0.00     0.008 A 
ATOM     19  C10 <0> d          -3.242  -1.523  -8.105  0.00  0.00     0.017 A 
ENDBRANCH  14  15
BRANCH  14  20
ATOM     20  N4  <0> d          -4.785   0.055  -5.188  0.00  0.00     0.103 N 
ATOM     21  C16 <0> d          -6.038  -0.330  -5.854  0.00  0.00     0.299 C 
ATOM     22  C15 <0> d          -7.169   0.579  -5.367  0.00  0.00     0.198 C 
ATOM     23  O2  <0> d          -7.264   0.491  -3.942  0.00  0.00    -0.388 OA
ATOM     24  C14 <0> d          -6.061   0.860  -3.262  0.00  0.00     0.198 C 
ATOM     25  C13 <0> d          -4.919  -0.046  -3.728  0.00  0.00     0.299 C 
ENDBRANCH  14  20
ENDBRANCH   1  14
TORSDOF 6
