REMARK  5 active torsions:
REMARK  status: ('A' for Active; 'I' for Inactive)
REMARK    1  A    between atoms: C2_2  and  S1_3 
REMARK    2  A    between atoms: S1_3  and  N1_6 
REMARK    3  A    between atoms: N1_6  and  C3_7 
REMARK    4  A    between atoms: C3_7  and  C4_8 
REMARK    5  A    between atoms: C4_8  and  C5_9 
ROOT
ATOM      1  C5  <0> d          -1.570  -5.170  -1.750  0.00  0.00     0.222 C 
ATOM      2  C6  <0> d          -1.324  -6.652  -1.879  0.00  0.00     0.251 C 
ATOM      3  O3  <0> d          -1.271  -7.348  -0.888  0.00  0.00    -0.270 OA
ATOM      4  N2  <0> d          -1.163  -7.199  -3.102  0.00  0.00    -0.323 N 
ATOM      5  C7  <0> d          -1.354  -6.402  -4.239  0.00  0.00     0.068 A 
ATOM      6  C8  <0> d          -0.981  -6.861  -5.492  0.00  0.00     0.032 A 
ATOM      7  C9  <0> d          -1.163  -6.057  -6.602  0.00  0.00     0.002 A 
ATOM      8  C10 <0> d          -1.717  -4.797  -6.465  0.00  0.00     0.003 A 
ATOM      9  C11 <0> d          -2.096  -4.335  -5.218  0.00  0.00     0.039 A 
ATOM     10  C12 <0> d          -1.922  -5.137  -4.102  0.00  0.00     0.096 A 
ATOM     11  O4  <0> d          -2.320  -4.707  -2.876  0.00  0.00    -0.334 OA
ATOM     12  H12 <0> d          -0.918  -8.133  -3.193  0.00  0.00     0.169 HD
ENDROOT
BRANCH   1  13
ATOM     13  C4  <0> d          -0.230  -4.434  -1.695  0.00  0.00     0.062 C 
BRANCH  13  14
ATOM     14  C3  <0> d          -0.475  -2.946  -1.437  0.00  0.00     0.135 C 
BRANCH  14  15
ATOM     15  N1  <0> d           0.808  -2.241  -1.384  0.00  0.00    -0.319 N 
ATOM     16  H7  <0> d           1.633  -2.742  -1.287  0.00  0.00     0.172 HD
BRANCH  15  17
ATOM     17  S1  <0> d           0.851  -0.589  -1.490  0.00  0.00     0.226 S 
ATOM     18  O1  <0> d           0.082  -0.280  -2.644  0.00  0.00    -0.206 OA
ATOM     19  O2  <0> d           2.232  -0.257  -1.430  0.00  0.00    -0.206 OA
BRANCH  17  20
ATOM     20  C2  <0> d           0.002  -0.004   0.002  0.00  0.00     0.158 C 
ATOM     21  C1  <0> d          -0.019   1.526   0.010  0.00  0.00     0.023 C 
ENDBRANCH  17  20
ENDBRANCH  15  17
ENDBRANCH  14  15
ENDBRANCH  13  14
ENDBRANCH   1  13
TORSDOF 5
