REMARK  6 active torsions:
REMARK  status: ('A' for Active; 'I' for Inactive)
REMARK    1  A    between atoms: N1_2  and  S1_4 
REMARK    2  A    between atoms: S1_4  and  C3_7 
REMARK    3  A    between atoms: C7_11  and  N2_13 
REMARK       I    between atoms: N2_13  and  C9_14 
REMARK    4  A    between atoms: C9_14  and  C10_16 
REMARK    5  A    between atoms: C11_17  and  S2_18 
REMARK    6  A    between atoms: S2_18  and  C12_19 
ROOT
ATOM      1  N2  <0> d           3.501   9.206  -0.466  0.00  0.00    -0.324 N 
ATOM      2  C9  <0> d           2.796   8.230  -1.072  0.00  0.00     0.246 C 
ATOM      3  O3  <0> d           1.787   8.505  -1.696  0.00  0.00    -0.268 OA
ATOM      4  H11 <0> d           4.343   8.998  -0.033  0.00  0.00     0.169 HD
ENDROOT
BRANCH   1   5
ATOM      5  C7  <0> d           3.018  10.518  -0.463  0.00  0.00     0.036 A 
ATOM      6  C6  <0> d           1.651  10.757  -0.419  0.00  0.00     0.029 A 
ATOM      7  C5  <0> d           1.177  12.054  -0.416  0.00  0.00     0.004 A 
ATOM      8  C4  <0> d           2.063  13.115  -0.456  0.00  0.00     0.025 A 
ATOM      9  C3  <0> d           3.425  12.881  -0.499  0.00  0.00     0.081 A 
ATOM     10  C8  <0> d           3.905  11.587  -0.497  0.00  0.00     0.054 A 
BRANCH   9  11
ATOM     11  S1  <0> d           4.549  14.237  -0.550  0.00  0.00     0.260 S 
ATOM     12  O1  <0> d           5.748  13.749  -1.137  0.00  0.00    -0.200 OA
ATOM     13  O2  <0> d           3.832  15.339  -1.088  0.00  0.00    -0.200 OA
BRANCH  11  14
ATOM     14  N1  <0> d           4.915  14.629   1.016  0.00  0.00    -0.315 N 
ATOM     15  C1  <0> d           6.052  13.992   1.685  0.00  0.00     0.162 C 
ATOM     16  C2  <0> d           4.100  15.613   1.734  0.00  0.00     0.162 C 
ENDBRANCH  11  14
ENDBRANCH   9  11
ENDBRANCH   1   5
BRANCH   2  17
ATOM     17  C10 <0> d           3.227   6.888  -0.982  0.00  0.00     0.081 C 
ATOM     18  C11 <0> d           2.520   5.909  -1.589  0.00  0.00     0.056 C 
BRANCH  18  19
ATOM     19  S2  <0> d           3.058   4.235  -1.478  0.00  0.00    -0.102 SA
BRANCH  19  20
ATOM     20  C12 <0> d           1.890   3.466  -2.551  0.00  0.00     0.004 A 
ATOM     21  C17 <0> d           0.722   2.921  -2.033  0.00  0.00     0.019 A 
ATOM     22  C16 <0> d          -0.190   2.319  -2.876  0.00  0.00     0.001 A 
ATOM     23  C15 <0> d           0.055   2.264  -4.236  0.00  0.00     0.000 A 
ATOM     24  C14 <0> d           1.219   2.801  -4.755  0.00  0.00     0.001 A 
ATOM     25  C13 <0> d           2.136   3.404  -3.917  0.00  0.00     0.019 A 
ENDBRANCH  19  20
ENDBRANCH  18  19
ENDBRANCH   2  17
TORSDOF 6
