REMARK  6 active torsions:
REMARK  status: ('A' for Active; 'I' for Inactive)
REMARK    1  A    between atoms: C2_2  and  C4_4 
REMARK    2  A    between atoms: C4_4  and  N1_5 
REMARK    3  A    between atoms: N1_5  and  C5_6 
REMARK    4  A    between atoms: N1_5  and  S1_9 
REMARK    5  A    between atoms: S1_9  and  C8_12 
REMARK    6  A    between atoms: C12_17  and  N3_18 
ROOT
ATOM      1  S1  <0> d          -0.621  -2.341  -1.564  0.00  0.00     0.265 S 
ATOM      2  O1  <0> d          -1.221  -3.550  -1.118  0.00  0.00    -0.200 OA
ATOM      3  O2  <0> d          -1.119  -1.608  -2.675  0.00  0.00    -0.200 OA
ENDROOT
BRANCH   1   4
ATOM      4  N1  <0> d          -0.627  -1.305  -0.272  0.00  0.00    -0.302 N 
BRANCH   4   5
ATOM      5  C4  <0> d          -0.882   0.122  -0.479  0.00  0.00     0.139 C 
BRANCH   5   6
ATOM      6  C2  <0> d          -2.359   0.420  -0.212  0.00  0.00    -0.004 C 
ATOM      7  C1  <0> d          -2.596   1.930  -0.290  0.00  0.00     0.011 C 
ATOM      8  C3  <0> d          -3.219  -0.287  -1.261  0.00  0.00     0.011 C 
ENDBRANCH   5   6
ENDBRANCH   4   5
BRANCH   4   9
ATOM      9  C5  <0> d          -0.377  -1.817   1.078  0.00  0.00     0.088 C 
ATOM     10  C6  <0> d           0.905  -1.190   1.631  0.00  0.00     0.032 C 
ATOM     11  C7  <0> d          -1.554  -1.456   1.986  0.00  0.00     0.032 C 
ENDBRANCH   4   9
ENDBRANCH   1   4
BRANCH   1  12
ATOM     12  C8  <0> d           1.062  -2.718  -1.922  0.00  0.00     0.126 A 
ATOM     13  C12 <0> d           1.916  -1.734  -2.409  0.00  0.00     0.146 A 
ATOM     14  N2  <0> d           3.184  -2.011  -2.674  0.00  0.00    -0.241 NA
ATOM     15  C11 <0> d           3.678  -3.223  -2.500  0.00  0.00     0.138 A 
ATOM     16  C10 <0> d           2.885  -4.249  -2.024  0.00  0.00     0.030 A 
ATOM     17  C9  <0> d           1.551  -3.997  -1.729  0.00  0.00     0.050 A 
ATOM     18 Br1  <0> d           3.608  -5.979  -1.779  0.00  0.00    -0.050 Br
BRANCH  13  19
ATOM     19  N3  <0> d           1.436  -0.445  -2.614  0.00  0.00    -0.378 N 
ATOM     20  C13 <0> d           2.338   0.605  -3.094  0.00  0.00     0.147 C 
ATOM     21  H19 <0> d           0.504  -0.241  -2.440  0.00  0.00     0.160 HD
ENDBRANCH  13  19
ENDBRANCH   1  12
TORSDOF 6
