REMARK  5 active torsions:
REMARK  status: ('A' for Active; 'I' for Inactive)
REMARK    1  A    between atoms: N2_5  and  S1_8 
REMARK    2  A    between atoms: S1_8  and  C6_11 
REMARK    3  A    between atoms: C17_22  and  C18_24 
REMARK    4  A    between atoms: C22_28  and  O4_31 
REMARK    5  A    between atoms: C23_29  and  O3_30 
ROOT
ATOM      1  C6  <0> d           3.693  -3.114  -0.187  0.00  0.00     0.080 A 
ATOM      2  C7  <0> d           4.263  -2.815  -1.411  0.00  0.00     0.027 A 
ATOM      3  C8  <0> d           5.520  -2.249  -1.471  0.00  0.00     0.031 A 
ATOM      4  C9  <0> d           6.221  -1.972  -0.303  0.00  0.00     0.035 A 
ATOM      5  C10 <0> d           5.633  -2.264   0.932  0.00  0.00    -0.022 A 
ATOM      6  C11 <0> d           4.378  -2.832   0.981  0.00  0.00     0.035 A 
ATOM      7  C12 <0> d           6.395  -1.917   2.151  0.00  0.00     0.050 C 
ATOM      8  C13 <0> d           6.210  -2.651   3.429  0.00  0.00    -0.021 C 
ATOM      9  C14 <0> d           7.361  -2.651   4.089  0.00  0.00    -0.029 C 
ATOM     10  C15 <0> d           8.434  -1.931   3.270  0.00  0.00     0.035 C 
ATOM     11  C16 <0> d           7.907  -2.145   1.849  0.00  0.00     0.028 C 
ATOM     12  C17 <0> d           8.279  -1.087   0.826  0.00  0.00     0.123 C 
ATOM     13  N3  <0> d           7.504  -1.417  -0.390  0.00  0.00    -0.380 N 
ATOM     14  H22 <0> d           7.891  -1.246  -1.262  0.00  0.00     0.160 HD
ENDROOT
BRANCH   1  15
ATOM     15  S1  <0> d           2.092  -3.845  -0.115  0.00  0.00     0.260 S 
ATOM     16  O1  <0> d           2.009  -4.521   1.132  0.00  0.00    -0.200 OA
ATOM     17  O2  <0> d           1.892  -4.508  -1.356  0.00  0.00    -0.200 OA
BRANCH  15  18
ATOM     18  N2  <0> d           0.991  -2.608  -0.057  0.00  0.00    -0.303 N 
ATOM     19  C3  <0> d           0.430  -2.039  -1.292  0.00  0.00     0.165 C 
ATOM     20  C2  <0> d           0.592  -0.516  -1.242  0.00  0.00     0.292 C 
ATOM     21  N1  <0> d           0.002  -0.004   0.002  0.00  0.00     0.087 N 
ATOM     22  C1  <0> d          -0.018   1.465   0.010  0.00  0.00     0.310 C 
ATOM     23  C5  <0> d           0.706  -0.527   1.180  0.00  0.00     0.292 C 
ATOM     24  C4  <0> d           0.549  -2.051   1.230  0.00  0.00     0.165 C 
ENDBRANCH  15  18
ENDBRANCH   1  15
BRANCH  12  25
ATOM     25  C18 <0> d           7.902   0.282   1.332  0.00  0.00     0.001 A 
ATOM     26  C23 <0> d           8.769   0.978   2.158  0.00  0.00     0.107 A 
ATOM     27  C22 <0> d           8.420   2.244   2.618  0.00  0.00     0.101 A 
ATOM     28  C21 <0> d           7.203   2.798   2.258  0.00  0.00     0.039 A 
ATOM     29  C20 <0> d           6.339   2.095   1.438  0.00  0.00     0.003 A 
ATOM     30  C19 <0> d           6.688   0.840   0.976  0.00  0.00     0.012 A 
BRANCH  26  31
ATOM     31  O3  <0> d           9.961   0.428   2.514  0.00  0.00    -0.357 OA
ATOM     32  H26 <0> d          10.686   0.635   1.908  0.00  0.00     0.217 HD
ENDBRANCH  26  31
BRANCH  27  33
ATOM     33  O4  <0> d           9.271   2.934   3.425  0.00  0.00    -0.353 OA
ATOM     34  C24 <0> d           8.844   4.226   3.864  0.00  0.00     0.210 C 
ENDBRANCH  27  33
ENDBRANCH  12  25
TORSDOF 5
