REMARK  7 active torsions:
REMARK  status: ('A' for Active; 'I' for Inactive)
REMARK    1  A    between atoms: C2_2  and  C3_3 
REMARK    2  A    between atoms: C3_3  and  N1_36 
REMARK    3  A    between atoms: C5_5  and  C6_6 
REMARK    4  A    between atoms: C9_9  and  O5_32 
REMARK    5  A    between atoms: C11_11  and  O4_31 
REMARK    6  A    between atoms: C19_19  and  O3_29 
REMARK    7  A    between atoms: C22_22  and  C23_23 
ROOT
ATOM      1  C6  <0> d           6.776  -3.067  -2.289  0.00  0.00     0.026 C 
ATOM      2  C7  <0> d           8.208  -2.540  -2.402  0.00  0.00     0.021 C 
ATOM      3  C8  <0> d           8.751  -2.235  -1.004  0.00  0.00     0.033 C 
ATOM      4  C9  <0> d           8.742  -3.513  -0.163  0.00  0.00     0.121 C 
ATOM      5  C10 <0> d           7.310  -4.040  -0.051  0.00  0.00     0.070 C 
ATOM      6  C11 <0> d           6.767  -4.345  -1.448  0.00  0.00     0.073 C 
ATOM      7  C12 <0> d           5.335  -4.871  -1.336  0.00  0.00     0.039 C 
ATOM      8  C13 <0> d           4.454  -3.814  -0.666  0.00  0.00     0.011 C 
ATOM      9  C14 <0> d           4.465  -2.535  -1.506  0.00  0.00     0.026 C 
ATOM     10  C15 <0> d           5.895  -2.009  -1.619  0.00  0.00     0.009 C 
ATOM     11  C16 <0> d           5.880  -0.744  -2.483  0.00  0.00     0.007 C 
ATOM     12  C17 <0> d           5.050   0.322  -1.773  0.00  0.00     0.013 C 
ATOM     13  C18 <0> d           3.599  -0.138  -1.613  0.00  0.00    -0.005 C 
ATOM     14  C19 <0> d           3.537  -1.505  -0.910  0.00  0.00     0.070 C 
ATOM     15  C20 <0> d           3.880  -1.172   0.554  0.00  0.00     0.040 C 
ATOM     16  C21 <0> d           3.147   0.167   0.800  0.00  0.00     0.013 C 
ATOM     17  C22 <0> d           2.941   0.816  -0.581  0.00  0.00     0.028 C 
ATOM     18  C27 <0> d           2.853  -0.137  -2.949  0.00  0.00     0.019 C 
ENDROOT
BRANCH   1  19
ATOM     19  C5  <0> d           6.242  -3.367  -3.666  0.00  0.00     0.069 C 
ATOM     20  N1  <0> d           7.041  -3.144  -4.684  0.00  0.00    -0.397 N 
ATOM     21  H42 <0> d           7.987  -2.778  -4.524  0.00  0.00     0.159 HD
BRANCH  20  22
ATOM     22  C3  <0> d           6.571  -3.422  -6.085  0.00  0.00     0.076 C 
ATOM     23  C4  <0> d           7.510  -4.454  -6.711  0.00  0.00     0.032 C 
BRANCH  22  24
ATOM     24  C2  <0> d           6.639  -2.119  -6.883  0.00  0.00     0.020 C 
ATOM     25  C1  <0> d           5.609  -1.130  -6.333  0.00  0.00     0.007 C 
ENDBRANCH  22  24
ENDBRANCH  20  22
ENDBRANCH   1  19
BRANCH   6  26
ATOM     26  O4  <0> d           7.590  -5.332  -2.073  0.00  0.00    -0.389 OA
ATOM     27  H40 <0> d           7.630  -6.171  -1.594  0.00  0.00     0.210 HD
ENDBRANCH   6  26
BRANCH   4  28
ATOM     28  O5  <0> d           9.564  -4.500  -0.789  0.00  0.00    -0.395 OA
ATOM     29  H41 <0> d          10.488  -4.234  -0.893  0.00  0.00     0.210 HD
ENDBRANCH   4  28
BRANCH  14  30
ATOM     30  O3  <0> d           2.196  -1.996  -0.960  0.00  0.00    -0.389 OA
ATOM     31  H36 <0> d           2.076  -2.857  -0.536  0.00  0.00     0.210 HD
ENDBRANCH  14  30
BRANCH  17  32
ATOM     32  C23 <0> d           1.469   0.959  -0.872  0.00  0.00    -0.045 A 
ATOM     33  C26 <0> d           0.423  -0.126  -0.766  0.00  0.00     0.213 A 
ATOM     34  O2  <0> d          -0.838   0.494  -1.147  0.00  0.00    -0.314 OA
ATOM     35  C25 <0> d          -0.584   1.783  -1.443  0.00  0.00     0.283 A 
ATOM     36  C24 <0> d           0.844   2.063  -1.271  0.00  0.00     0.087 A 
ATOM     37  O1  <0> d          -1.415   2.592  -1.805  0.00  0.00    -0.260 OA
ENDBRANCH  17  32
TORSDOF 7
