REMARK  4 active torsions:
REMARK  status: ('A' for Active; 'I' for Inactive)
REMARK    1  A    between atoms: N2_5  and  C6_8 
REMARK    2  A    between atoms: C6_8  and  C7_9 
REMARK    3  A    between atoms: C7_9  and  N3_10 
REMARK       I    between atoms: N3_10  and  C8_11 
REMARK    4  A    between atoms: C8_11  and  C9_13 
ROOT
ATOM      1  C9  <0> d           3.296  -8.053   1.978  0.00  0.00     0.174 C 
ATOM      2  C10 <0> d           3.746  -8.627   0.626  0.00  0.00     0.063 C 
ATOM      3  C11 <0> d           5.283  -8.646   0.831  0.00  0.00     0.107 C 
ATOM      4  C12 <0> d           5.458  -8.767   2.328  0.00  0.00     0.226 C 
ATOM      5  O2  <0> d           6.513  -8.979   2.888  0.00  0.00    -0.273 OA
ATOM      6  N4  <0> d           4.265  -8.605   2.956  0.00  0.00    -0.288 N 
ATOM      7  C13 <0> d           3.693  -8.893   4.212  0.00  0.00     0.058 A 
ATOM      8  C14 <0> d           4.385  -8.995   5.428  0.00  0.00     0.055 A 
ATOM      9  C15 <0> d           3.723  -9.294   6.598  0.00  0.00     0.036 A 
ATOM     10  C16 <0> d           2.355  -9.503   6.612  0.00  0.00     0.025 A 
ATOM     11  C17 <0> d           1.646  -9.403   5.426  0.00  0.00     0.023 A 
ATOM     12  C18 <0> d           2.308  -9.100   4.261  0.00  0.00     0.030 A 
ATOM     13  S1  <0> d           1.763  -8.863   2.580  0.00  0.00    -0.086 SA
ATOM     14 Cl1  <0> d           4.619  -9.411   8.080  0.00  0.00    -0.084 Cl
ENDROOT
BRANCH   1  15
ATOM     15  C8  <0> d           3.220  -6.548   1.986  0.00  0.00     0.257 C 
ATOM     16  N3  <0> d           2.456  -5.907   1.080  0.00  0.00    -0.356 N 
ATOM     17  H16 <0> d           1.956  -6.414   0.421  0.00  0.00     0.162 HD
ATOM     18  O1  <0> d           3.845  -5.914   2.810  0.00  0.00    -0.270 OA
BRANCH  16  19
ATOM     19  C7  <0> d           2.381  -4.444   1.088  0.00  0.00     0.153 C 
BRANCH  19  20
ATOM     20  C6  <0> d           1.453  -3.974  -0.034  0.00  0.00     0.292 C 
BRANCH  20  21
ATOM     21  N2  <0> d           1.378  -2.507  -0.025  0.00  0.00     0.093 N 
ATOM     22  C3  <0> d           0.693  -2.008  -1.226  0.00  0.00     0.300 C 
ATOM     23  C2  <0> d           0.688  -0.477  -1.207  0.00  0.00     0.264 C 
ATOM     24  N1  <0> d           0.002  -0.004   0.002  0.00  0.00    -0.072 N 
ATOM     25  C1  <0> d          -0.018   1.465   0.010  0.00  0.00     0.269 C 
ATOM     26  C5  <0> d           0.713  -0.490   1.192  0.00  0.00     0.264 C 
ATOM     27  H24 <0> d          -0.945  -0.353   0.010  0.00  0.00     0.279 HD
ATOM     28  C4  <0> d           0.717  -2.021   1.194  0.00  0.00     0.300 C 
ENDBRANCH  20  21
ENDBRANCH  19  20
ENDBRANCH  16  19
ENDBRANCH   1  15
TORSDOF 4
