REMARK  7 active torsions:
REMARK  status: ('A' for Active; 'I' for Inactive)
REMARK    1  A    between atoms: C5_5  and  C20_26 
REMARK    2  A    between atoms: C7_7  and  N1_8 
REMARK       I    between atoms: N1_8  and  C8_9 
REMARK    3  A    between atoms: C8_9  and  C9_11 
REMARK       I    between atoms: C9_11  and  N2_13 
REMARK    4  A    between atoms: N2_13  and  C10_14 
REMARK    5  A    between atoms: N2_13  and  C15_20 
REMARK    6  A    between atoms: C10_14  and  C11_15 
REMARK    7  A    between atoms: C15_20  and  C16_21 
REMARK       I    between atoms: C20_26  and  N3_28 
ROOT
ATOM      1  N1  <0> d          -0.501   2.144   3.732  0.00  0.00    -0.318 N 
ATOM      2  C8  <0> d          -0.263   1.492   4.887  0.00  0.00     0.314 C 
ATOM      3  O1  <0> d          -0.324   2.086   5.943  0.00  0.00    -0.262 OA
ATOM      4  H8  <0> d          -0.519   1.656   2.894  0.00  0.00     0.169 HD
ENDROOT
BRANCH   2   5
ATOM      5  C9  <0> d           0.076   0.037   4.866  0.00  0.00     0.312 C 
ATOM      6  O2  <0> d           0.166  -0.550   3.808  0.00  0.00    -0.262 OA
ATOM      7  N2  <0> d           0.282  -0.623   6.023  0.00  0.00    -0.336 N 
BRANCH   7   8
ATOM      8  C10 <0> d           0.290   0.108   7.293  0.00  0.00     0.191 C 
BRANCH   8   9
ATOM      9  C11 <0> d          -1.120   0.232   7.810  0.00  0.00     0.070 A 
ATOM     10  O3  <0> d          -1.970   1.236   7.540  0.00  0.00    -0.325 OA
ATOM     11  C14 <0> d          -3.138   1.014   8.167  0.00  0.00     0.142 A 
ATOM     12  C13 <0> d          -3.038  -0.137   8.855  0.00  0.00     0.027 A 
ATOM     13  C12 <0> d          -1.738  -0.641   8.626  0.00  0.00     0.036 A 
ENDBRANCH   8   9
ENDBRANCH   7   8
BRANCH   7  14
ATOM     14  C15 <0> d           0.498  -2.072   6.011  0.00  0.00     0.158 C 
BRANCH  14  15
ATOM     15  C16 <0> d           2.000  -2.364   6.010  0.00  0.00     0.139 C 
ATOM     16  O4  <0> d           2.607  -1.845   4.816  0.00  0.00    -0.384 OA
ATOM     17  C19 <0> d           3.639  -2.734   4.367  0.00  0.00     0.168 C 
ATOM     18  C18 <0> d           3.669  -3.939   5.332  0.00  0.00     0.029 C 
ATOM     19  C17 <0> d           2.250  -3.892   5.962  0.00  0.00     0.035 C 
ENDBRANCH  14  15
ENDBRANCH   7  14
ENDBRANCH   2   5
BRANCH   1  20
ATOM     20  C7  <0> d          -0.721   3.524   3.741  0.00  0.00     0.042 A 
ATOM     21  C2  <0> d          -0.278   4.306   2.681  0.00  0.00    -0.035 A 
ATOM     22  C1  <0> d           0.441   3.664   1.523  0.00  0.00     0.050 C 
ATOM     23  C3  <0> d          -0.498   5.671   2.684  0.00  0.00     0.010 A 
ATOM     24  C4  <0> d          -1.154   6.267   3.741  0.00  0.00     0.017 A 
ATOM     25  C5  <0> d          -1.599   5.491   4.814  0.00  0.00     0.034 A 
ATOM     26  C6  <0> d          -1.377   4.114   4.812  0.00  0.00     0.047 A 
BRANCH  25  27
ATOM     27  C20 <0> d          -2.302   6.127   5.949  0.00  0.00     0.251 C 
ATOM     28  O5  <0> d          -2.688   5.450   6.881  0.00  0.00    -0.268 OA
ATOM     29  N3  <0> d          -2.515   7.458   5.949  0.00  0.00    -0.361 N 
ATOM     30  C21 <0> d          -3.211   8.088   7.073  0.00  0.00     0.149 C 
ATOM     31  H22 <0> d          -2.207   7.998   5.205  0.00  0.00     0.162 HD
ENDBRANCH  25  27
ENDBRANCH   1  20
TORSDOF 7
