REMARK  3 active torsions:
REMARK  status: ('A' for Active; 'I' for Inactive)
REMARK    1  A    between atoms: C4_4  and  C7_7 
REMARK    2  A    between atoms: C8_8  and  O2_21 
REMARK    3  A    between atoms: C15_17  and  O1_20 
ROOT
ATOM      1  C7  <0> d           3.767   5.975  -0.018  0.00  0.00     0.136 A 
ATOM      2  C8  <0> d           2.337   5.411   0.009  0.00  0.00     0.244 A 
ATOM      3  N1  <0> d           2.272   3.949   0.018  0.00  0.00    -0.307 N 
ATOM      4  C9  <0> d           1.113   3.230   0.042  0.00  0.00     0.066 A 
ATOM      5  C10 <0> d          -0.115   3.913   0.059  0.00  0.00     0.032 A 
ATOM      6  C11 <0> d          -1.278   3.205   0.083  0.00  0.00     0.002 A 
ATOM      7  C12 <0> d          -1.267   1.812   0.087  0.00  0.00     0.002 A 
ATOM      8  C13 <0> d          -0.093   1.121   0.076  0.00  0.00     0.034 A 
ATOM      9  C14 <0> d           1.125   1.822   0.051  0.00  0.00     0.086 A 
ATOM     10  N2  <0> d           2.290   1.155   0.035  0.00  0.00    -0.220 NA
ATOM     11  C15 <0> d           3.409   1.843   0.012  0.00  0.00     0.197 A 
ATOM     12  C16 <0> d           3.390   3.255   0.004  0.00  0.00     0.129 A 
ATOM     13  S1  <0> d           4.735   4.420  -0.025  0.00  0.00    -0.093 SA
ENDROOT
BRANCH   1  14
ATOM     14  C4  <0> d           4.013   6.778  -1.269  0.00  0.00    -0.040 A 
ATOM     15  C3  <0> d           4.357   8.113  -1.177  0.00  0.00     0.008 A 
ATOM     16  C2  <0> d           4.583   8.849  -2.325  0.00  0.00     0.001 A 
ATOM     17  C1  <0> d           4.466   8.250  -3.565  0.00  0.00     0.000 A 
ATOM     18  C6  <0> d           4.122   6.914  -3.657  0.00  0.00     0.001 A 
ATOM     19  C5  <0> d           3.901   6.176  -2.509  0.00  0.00     0.008 A 
ENDBRANCH   1  14
BRANCH   2  20
ATOM     20  O2  <0> d           1.636   5.890  -1.140  0.00  0.00    -0.375 OA
ATOM     21  H13 <0> d           1.547   6.852  -1.173  0.00  0.00     0.212 HD
ENDBRANCH   2  20
BRANCH  11  22
ATOM     22  O1  <0> d           4.597   1.190  -0.004  0.00  0.00    -0.343 OA
ATOM     23  H12 <0> d           4.956   1.005   0.874  0.00  0.00     0.219 HD
ENDBRANCH  11  22
TORSDOF 3
