REMARK  2 active torsions:
REMARK  status: ('A' for Active; 'I' for Inactive)
REMARK    1  A    between atoms: C3_3  and  N3_9 
REMARK       I    between atoms: N3_9  and  C7_10 
REMARK    2  A    between atoms: C7_10  and  C8_12 
ROOT
ATOM      1  N3  <0> d           4.811   5.409   0.471  0.00  0.00    -0.319 N 
ATOM      2  C7  <0> d           4.462   4.403  -0.355  0.00  0.00     0.262 C 
ATOM      3  O1  <0> d           5.175   4.116  -1.299  0.00  0.00    -0.267 OA
ATOM      4  H10 <0> d           4.210   5.684   1.180  0.00  0.00     0.169 HD
ENDROOT
BRANCH   2   5
ATOM      5  C8  <0> d           3.219   3.650  -0.116  0.00  0.00     0.108 A 
ATOM      6  C16 <0> d           2.827   2.553  -1.007  0.00  0.00     0.304 A 
ATOM      7  O2  <0> d           1.691   1.873  -0.781  0.00  0.00    -0.274 OA
ATOM      8  O3  <0> d           3.533   2.258  -1.954  0.00  0.00    -0.259 OA
ATOM      9  C15 <0> d           0.885   2.174   0.260  0.00  0.00     0.089 A 
ATOM     10  C10 <0> d           1.212   3.216   1.146  0.00  0.00    -0.001 A 
ATOM     11  C14 <0> d          -0.284   1.449   0.464  0.00  0.00     0.038 A 
ATOM     12  C9  <0> d           2.400   3.966   0.954  0.00  0.00     0.037 A 
ATOM     13  C11 <0> d           0.358   3.510   2.220  0.00  0.00     0.014 A 
ATOM     14  C12 <0> d          -0.784   2.784   2.400  0.00  0.00     0.001 A 
ATOM     15  C13 <0> d          -1.111   1.758   1.523  0.00  0.00     0.003 A 
ENDBRANCH   2   5
BRANCH   1  16
ATOM     16  C3  <0> d           6.047   6.060   0.304  0.00  0.00     0.085 A 
ATOM     17  C2  <0> d           7.313   5.460   0.371  0.00  0.00     0.079 A 
ATOM     18  C1  <0> d           7.585   4.001   0.635  0.00  0.00     0.075 C 
ATOM     19  N2  <0> d           8.217   6.382   0.165  0.00  0.00    -0.175 NA
ATOM     20  N1  <0> d           7.563   7.604  -0.042  0.00  0.00    -0.276 N 
ATOM     21  C4  <0> d           6.226   7.381   0.043  0.00  0.00     0.055 A 
ATOM     22  C5  <0> d           8.207   8.892  -0.309  0.00  0.00     0.179 C 
ATOM     23  C6  <0> d           5.139   8.412  -0.120  0.00  0.00     0.072 C 
ENDBRANCH   1  16
TORSDOF 2
