REMARK  6 active torsions:
REMARK  status: ('A' for Active; 'I' for Inactive)
REMARK    1  A    between atoms: C4_4  and  C7_7 
REMARK    2  A    between atoms: C11_11  and  O3_30 
REMARK    3  A    between atoms: C16_17  and  N4_29 
REMARK    4  A    between atoms: N1_18  and  C18_21 
REMARK    5  A    between atoms: C18_21  and  C19_22 
REMARK    6  A    between atoms: C19_22  and  N3_23 
ROOT
ATOM      1  C7  <0> d           3.711  -0.707  -0.038  0.00  0.00     0.095 C 
ATOM      2  C8  <0> d           3.816  -1.569   1.192  0.00  0.00    -0.011 A 
ATOM      3  C9  <0> d           4.119  -0.979   2.408  0.00  0.00     0.014 A 
ATOM      4  C10 <0> d           4.220  -1.749   3.549  0.00  0.00     0.037 A 
ATOM      5  C11 <0> d           4.017  -3.120   3.481  0.00  0.00     0.068 A 
ATOM      6  C12 <0> d           3.712  -3.713   2.267  0.00  0.00     0.074 A 
ATOM      7  C13 <0> d           3.612  -2.937   1.119  0.00  0.00     0.087 A 
ATOM      8  O1  <0> d           3.314  -3.539  -0.059  0.00  0.00    -0.291 OA
ATOM      9  C14 <0> d           3.590  -2.919  -1.225  0.00  0.00     0.182 A 
ATOM     10  C15 <0> d           3.790  -1.554  -1.275  0.00  0.00     0.052 A 
ATOM     11  C16 <0> d           4.069  -0.971  -2.507  0.00  0.00     0.113 A 
ATOM     12  N1  <0> d           4.131  -1.749  -3.587  0.00  0.00    -0.326 N 
ATOM     13  C17 <0> d           3.932  -3.048  -3.494  0.00  0.00     0.214 A 
ATOM     14  N2  <0> d           3.670  -3.626  -2.352  0.00  0.00    -0.219 NA
ENDROOT
BRANCH  12  15
ATOM     15  C18 <0> d           4.423  -1.153  -4.893  0.00  0.00     0.161 C 
BRANCH  15  16
ATOM     16  C19 <0> d           5.938  -1.031  -5.070  0.00  0.00     0.292 C 
BRANCH  16  17
ATOM     17  N3  <0> d           6.231  -0.433  -6.380  0.00  0.00     0.094 N 
ATOM     18  C23 <0> d           7.654  -0.082  -6.492  0.00  0.00     0.298 C 
ATOM     19  C22 <0> d           7.903   0.590  -7.845  0.00  0.00     0.198 C 
ATOM     20  O2  <0> d           7.478  -0.286  -8.892  0.00  0.00    -0.388 OA
ATOM     21  C21 <0> d           6.097  -0.649  -8.814  0.00  0.00     0.198 C 
ATOM     22  C20 <0> d           5.829  -1.333  -7.471  0.00  0.00     0.298 C 
ENDBRANCH  16  17
ENDBRANCH  15  16
ENDBRANCH  12  15
BRANCH  11  23
ATOM     23  N4  <0> d           4.278   0.395  -2.610  0.00  0.00    -0.385 N 
ATOM     24  H23 <0> d           4.231   0.954  -1.819  0.00  0.00     0.157 HD
ATOM     25  H24 <0> d           4.473   0.793  -3.473  0.00  0.00     0.157 HD
ENDBRANCH  11  23
BRANCH   1  26
ATOM     26  C4  <0> d           2.396   0.029  -0.020  0.00  0.00    -0.045 A 
ATOM     27  C3  <0> d           2.377   1.411  -0.013  0.00  0.00     0.008 A 
ATOM     28  C2  <0> d           1.171   2.086   0.002  0.00  0.00     0.001 A 
ATOM     29  C1  <0> d          -0.017   1.378   0.010  0.00  0.00     0.000 A 
ATOM     30  C6  <0> d           0.002  -0.004   0.002  0.00  0.00     0.001 A 
ATOM     31  C5  <0> d           1.208  -0.679  -0.012  0.00  0.00     0.008 A 
ENDBRANCH   1  26
BRANCH   5  32
ATOM     32  O3  <0> d           4.116  -3.880   4.604  0.00  0.00    -0.361 OA
ATOM     33  H25 <0> d           3.284  -3.979   5.086  0.00  0.00     0.217 HD
ENDBRANCH   5  32
TORSDOF 6
