REMARK  7 active torsions:
REMARK  status: ('A' for Active; 'I' for Inactive)
REMARK    1  A    between atoms: C6_6  and  C12_15 
REMARK    2  A    between atoms: C12_15  and  N2_16 
REMARK    3  A    between atoms: N2_16  and  C13_17 
REMARK    4  A    between atoms: N2_16  and  C20_24 
REMARK    5  A    between atoms: C13_17  and  C14_18 
REMARK    6  A    between atoms: N3_26  and  C21_27 
REMARK    7  A    between atoms: C21_27  and  C22_28 
ROOT
ATOM      1  N2  <0> d          -2.282   4.187   5.320  0.00  0.00    -0.350 N 
ENDROOT
BRANCH   1   2
ATOM      2  C12 <0> d          -3.274   4.598   6.316  0.00  0.00     0.169 C 
BRANCH   2   3
ATOM      3  C6  <0> d          -3.590   3.434   7.220  0.00  0.00     0.029 A 
ATOM      4  C5  <0> d          -4.653   2.638   6.949  0.00  0.00     0.028 A 
ATOM      5  C4  <0> d          -4.931   1.513   7.844  0.00  0.00    -0.008 A 
ATOM      6  C3  <0> d          -6.009   0.653   7.612  0.00  0.00     0.021 A 
ATOM      7  C8  <0> d          -4.095   1.304   8.957  0.00  0.00     0.045 A 
ATOM      8  C2  <0> d          -6.244  -0.385   8.469  0.00  0.00    -0.055 A 
ATOM      9  C1  <0> d          -7.407  -1.311   8.219  0.00  0.00     0.049 C 
ATOM     10  C10 <0> d          -5.422  -0.594   9.567  0.00  0.00    -0.054 A 
ATOM     11  C9  <0> d          -4.353   0.240   9.815  0.00  0.00     0.037 A 
ATOM     12  C11 <0> d          -5.700  -1.746  10.498  0.00  0.00     0.049 C 
ATOM     13  N1  <0> d          -3.032   2.154   9.180  0.00  0.00    -0.322 N 
ATOM     14  C7  <0> d          -2.782   3.181   8.350  0.00  0.00     0.253 A 
ATOM     15  H1  <0> d          -2.457   2.008   9.947  0.00  0.00     0.169 HD
ATOM     16  O1  <0> d          -1.834   3.912   8.578  0.00  0.00    -0.268 OA
ENDBRANCH   2   3
ENDBRANCH   1   2
BRANCH   1  17
ATOM     17  C13 <0> d          -0.854   4.232   5.645  0.00  0.00     0.164 C 
BRANCH  17  18
ATOM     18  C14 <0> d          -0.297   5.582   5.274  0.00  0.00    -0.040 A 
ATOM     19  C19 <0> d          -0.303   6.610   6.197  0.00  0.00     0.009 A 
ATOM     20  C18 <0> d           0.208   7.848   5.857  0.00  0.00     0.001 A 
ATOM     21  C17 <0> d           0.727   8.058   4.593  0.00  0.00     0.000 A 
ATOM     22  C16 <0> d           0.735   7.029   3.669  0.00  0.00     0.001 A 
ATOM     23  C15 <0> d           0.227   5.790   4.011  0.00  0.00     0.009 A 
ENDBRANCH  17  18
ENDBRANCH   1  17
BRANCH   1  24
ATOM     24  C20 <0> d          -2.683   3.767   4.104  0.00  0.00     0.170 C 
ATOM     25  S1  <0> d          -4.353   3.603   3.762  0.00  0.00    -0.041 SA
ATOM     26  N3  <0> d          -1.770   3.477   3.156  0.00  0.00    -0.365 N 
ATOM     27  H21 <0> d          -0.824   3.570   3.349  0.00  0.00     0.162 HD
BRANCH  26  28
ATOM     28  C21 <0> d          -2.206   3.021   1.834  0.00  0.00     0.154 C 
BRANCH  28  29
ATOM     29  C22 <0> d          -0.981   2.763   0.954  0.00  0.00     0.139 C 
ATOM     30  O2  <0> d          -0.270   1.586   1.402  0.00  0.00    -0.384 OA
ATOM     31  C25 <0> d           0.511   1.121   0.289  0.00  0.00     0.168 C 
ATOM     32  C24 <0> d          -0.195   1.589  -0.998  0.00  0.00     0.029 C 
ATOM     33  C23 <0> d          -1.413   2.399  -0.490  0.00  0.00     0.035 C 
ENDBRANCH  28  29
ENDBRANCH  26  28
ENDBRANCH   1  24
TORSDOF 7
