REMARK  4 active torsions:
REMARK  status: ('A' for Active; 'I' for Inactive)
REMARK    1  A    between atoms: C2_2  and  S1_3 
REMARK    2  A    between atoms: S1_3  and  C3_6 
REMARK    3  A    between atoms: C6_12  and  C7_13 
REMARK    4  A    between atoms: N4_16  and  C12_19 
ROOT
ATOM      1  C3  <0> d          -2.978  -3.411  -0.673  0.00  0.00     0.216 A 
ATOM      2  N1  <0> d          -2.420  -3.841   0.422  0.00  0.00    -0.144 NA
ATOM      3  N2  <0> d          -2.282  -5.189   0.673  0.00  0.00    -0.188 N 
ATOM      4  C4  <0> d          -1.777  -5.760   1.861  0.00  0.00     0.162 C 
ATOM      5  N3  <0> d          -1.766  -5.136   3.009  0.00  0.00    -0.281 NA
ATOM      6  C5  <0> d          -1.257  -7.143   1.676  0.00  0.00     0.082 C 
ATOM      7  C6  <0> d          -0.189  -7.622   2.407  0.00  0.00     0.034 C 
ATOM      8  C21 <0> d          -1.949  -7.979   0.666  0.00  0.00     0.283 C 
ATOM      9  O3  <0> d          -1.933  -9.197   0.741  0.00  0.00    -0.265 OA
ATOM     10  N5  <0> d          -2.597  -7.355  -0.338  0.00  0.00    -0.182 NA
ATOM     11  C22 <0> d          -2.703  -6.051  -0.317  0.00  0.00     0.202 A 
ATOM     12  S2  <0> d          -3.389  -4.935  -1.513  0.00  0.00    -0.017 SA
ATOM     13  H6  <0> d          -2.118  -4.235   3.075  0.00  0.00     0.188 HD
ENDROOT
BRANCH   7  14
ATOM     14  C7  <0> d           0.385  -8.879   2.085  0.00  0.00    -0.011 A 
ATOM     15  C10 <0> d           0.945  -9.791   2.965  0.00  0.00     0.023 A 
ATOM     16  N4  <0> d           1.369 -10.853   2.251  0.00  0.00    -0.319 N 
ATOM     17  C11 <0> d           1.056  -9.626   4.458  0.00  0.00     0.069 C 
ATOM     18  C9  <0> d           1.114 -10.666   0.921  0.00  0.00     0.014 A 
ATOM     19  C8  <0> d           0.513  -9.477   0.749  0.00  0.00     0.038 A 
ATOM     20  C20 <0> d           1.454 -11.640  -0.178  0.00  0.00     0.068 C 
BRANCH  16  21
ATOM     21  C12 <0> d           1.989 -11.986   2.796  0.00  0.00     0.045 A 
ATOM     22  C17 <0> d           1.224 -13.072   3.197  0.00  0.00    -0.029 A 
ATOM     23  C16 <0> d           1.838 -14.190   3.727  0.00  0.00    -0.054 A 
ATOM     24  C18 <0> d          -0.276 -13.034   3.049  0.00  0.00     0.051 C 
ATOM     25  C15 <0> d           3.213 -14.223   3.870  0.00  0.00     0.007 A 
ATOM     26  C19 <0> d           1.008 -15.372   4.157  0.00  0.00     0.049 C 
ATOM     27  C14 <0> d           3.978 -13.140   3.476  0.00  0.00     0.003 A 
ATOM     28  C13 <0> d           3.370 -12.022   2.939  0.00  0.00     0.030 A 
ENDBRANCH  16  21
ENDBRANCH   7  14
BRANCH   1  29
ATOM     29  S1  <0> d          -3.262  -1.751  -1.192  0.00  0.00     0.201 S 
ATOM     30  O1  <0> d          -3.214  -0.984   0.003  0.00  0.00    -0.221 OA
ATOM     31  O2  <0> d          -4.452  -1.812  -1.967  0.00  0.00    -0.221 OA
BRANCH  29  32
ATOM     32  C2  <0> d          -1.847  -1.345  -2.252  0.00  0.00     0.143 C 
ATOM     33  C1  <0> d          -1.989   0.089  -2.765  0.00  0.00     0.021 C 
ENDBRANCH  29  32
ENDBRANCH   1  29
TORSDOF 4
