REMARK  5 active torsions:
REMARK  status: ('A' for Active; 'I' for Inactive)
REMARK    1  A    between atoms: O1_2  and  C2_3 
REMARK    2  A    between atoms: C4_5  and  C10_14 
REMARK    3  A    between atoms: C7_8  and  O2_9 
REMARK    4  A    between atoms: O2_9  and  C8_10 
REMARK    5  A    between atoms: C8_10  and  C9_11 
REMARK       I    between atoms: C9_11  and  N1_13 
ROOT
ATOM      1  C2  <0> d          -1.287  -0.782   0.624  0.00  0.00     0.102 A 
ATOM      2  C3  <0> d          -2.460  -0.044   0.633  0.00  0.00     0.049 A 
ATOM      3  C4  <0> d          -3.596  -0.546   0.027  0.00  0.00    -0.020 A 
ATOM      4  C5  <0> d          -3.566  -1.785  -0.587  0.00  0.00     0.012 A 
ATOM      5  C6  <0> d          -2.400  -2.526  -0.599  0.00  0.00     0.040 A 
ATOM      6  C7  <0> d          -1.255  -2.025   0.001  0.00  0.00     0.102 A 
ENDROOT
BRANCH   3   7
ATOM      7  C10 <0> d          -4.871   0.257   0.037  0.00  0.00     0.280 C 
ATOM      8  N3  <0> d          -5.894  -0.446   0.828  0.00  0.00     0.095 N 
ATOM      9  C20 <0> d          -6.100  -1.835   0.402  0.00  0.00     0.275 C 
ATOM     10  H21 <0> d          -5.687  -0.396   1.814  0.00  0.00     0.316 HD
ATOM     11  C19 <0> d          -6.674  -1.872  -1.026  0.00  0.00     0.067 C 
ATOM     12  C12 <0> d          -5.788  -0.980  -1.860  0.00  0.00    -0.041 A 
ATOM     13  C11 <0> d          -5.392   0.416  -1.393  0.00  0.00     0.149 A 
ATOM     14  C13 <0> d          -5.142  -1.192  -2.998  0.00  0.00    -0.005 A 
ATOM     15  N2  <0> d          -4.361   0.882  -2.319  0.00  0.00    -0.378 N 
ATOM     16  C18 <0> d          -4.236  -0.031  -3.262  0.00  0.00     0.039 A 
ATOM     17  H22 <0> d          -3.862   1.711  -2.242  0.00  0.00     0.160 HD
ATOM     18  C17 <0> d          -3.417  -0.039  -4.428  0.00  0.00     0.030 A 
ATOM     19  C16 <0> d          -3.513  -1.112  -5.253  0.00  0.00     0.002 A 
ATOM     20  C15 <0> d          -4.360  -2.203  -5.035  0.00  0.00     0.001 A 
ATOM     21  C14 <0> d          -5.182  -2.308  -3.957  0.00  0.00     0.014 A 
ENDBRANCH   3   7
BRANCH   1  22
ATOM     22  O1  <0> d          -0.168  -0.289   1.219  0.00  0.00    -0.353 OA
ATOM     23  C1  <0> d          -0.274   0.994   1.839  0.00  0.00     0.210 C 
ENDBRANCH   1  22
BRANCH   6  24
ATOM     24  O2  <0> d          -0.105  -2.750  -0.015  0.00  0.00    -0.339 OA
BRANCH  24  25
ATOM     25  C8  <0> d          -0.146  -4.018  -0.673  0.00  0.00     0.278 C 
BRANCH  25  26
ATOM     26  C9  <0> d           1.209  -4.672  -0.590  0.00  0.00     0.239 C 
ATOM     27  O3  <0> d           2.121  -4.108  -0.022  0.00  0.00    -0.271 OA
ATOM     28  N1  <0> d           1.409  -5.883  -1.145  0.00  0.00    -0.368 N 
ATOM     29  H11 <0> d           0.680  -6.335  -1.599  0.00  0.00     0.159 HD
ATOM     30  H12 <0> d           2.281  -6.304  -1.091  0.00  0.00     0.159 HD
ENDBRANCH  25  26
ENDBRANCH  24  25
ENDBRANCH   6  24
TORSDOF 5
