REMARK  6 active torsions:
REMARK  status: ('A' for Active; 'I' for Inactive)
REMARK    1  A    between atoms: C2_2  and  C3_3 
REMARK    2  A    between atoms: C2_2  and  N2_10 
REMARK    3  A    between atoms: C3_3  and  N1_4 
REMARK    4  A    between atoms: N2_10  and  S1_11 
REMARK    5  A    between atoms: S1_11  and  C9_14 
REMARK    6  A    between atoms: C11_18  and  N5_19 
ROOT
ATOM      1  N2  <0> d           0.739  -0.483   1.341  0.00  0.00    -0.309 N 
ATOM      2  H17 <0> d           0.326  -0.628   2.206  0.00  0.00     0.172 HD
ENDROOT
BRANCH   1   3
ATOM      3  C2  <0> d          -0.014   0.178   0.271  0.00  0.00     0.115 C 
ATOM      4  C1  <0> d           0.084   1.695   0.442  0.00  0.00     0.034 C 
BRANCH   3   5
ATOM      5  C3  <0> d          -1.481  -0.250   0.341  0.00  0.00     0.260 C 
BRANCH   5   6
ATOM      6  N1  <0> d          -1.567  -1.716   0.298  0.00  0.00    -0.069 N 
ATOM      7  C8  <0> d          -2.963  -2.129   0.485  0.00  0.00     0.235 C 
ATOM      8  C7  <0> d          -3.046  -3.656   0.522  0.00  0.00     0.028 C 
ATOM      9  C6  <0> d          -2.517  -4.223  -0.799  0.00  0.00     0.003 C 
ATOM     10  C5  <0> d          -1.086  -3.725  -1.020  0.00  0.00     0.028 C 
ATOM     11  C4  <0> d          -1.075  -2.195  -0.999  0.00  0.00     0.235 C 
ATOM     12  H24 <0> d          -1.000  -2.107   1.035  0.00  0.00     0.280 HD
ENDBRANCH   5   6
ENDBRANCH   3   5
ENDBRANCH   1   3
BRANCH   1  13
ATOM     13  S1  <0> d           2.295  -0.982   1.072  0.00  0.00     0.264 S 
ATOM     14  O1  <0> d           2.757  -1.546   2.291  0.00  0.00    -0.200 OA
ATOM     15  O2  <0> d           2.282  -1.711  -0.148  0.00  0.00    -0.200 OA
BRANCH  13  16
ATOM     16  C9  <0> d           3.263   0.462   0.786  0.00  0.00     0.143 A 
ATOM     17  C11 <0> d           3.510   1.489   1.711  0.00  0.00     0.166 A 
ATOM     18  N4  <0> d           4.273   2.385   1.131  0.00  0.00    -0.154 NA
ATOM     19  N3  <0> d           4.524   1.961  -0.180  0.00  0.00    -0.282 N 
ATOM     20  C10 <0> d           3.895   0.781  -0.366  0.00  0.00     0.141 A 
ATOM     21  C12 <0> d           5.330   2.673  -1.175  0.00  0.00     0.179 C 
BRANCH  17  22
ATOM     22  N5  <0> d           3.029   1.545   3.025  0.00  0.00    -0.381 N 
ATOM     23  H19 <0> d           2.410   0.870   3.344  0.00  0.00     0.157 HD
ATOM     24  H20 <0> d           3.314   2.259   3.616  0.00  0.00     0.157 HD
ENDBRANCH  17  22
ENDBRANCH  13  16
ENDBRANCH   1  13
TORSDOF 6
