REMARK  4 active torsions:
REMARK  status: ('A' for Active; 'I' for Inactive)
REMARK    1  A    between atoms: N2_5  and  C5_7 
REMARK    2  A    between atoms: C5_7  and  C6_8 
REMARK    3  A    between atoms: C5_7  and  C12_15 
REMARK    4  A    between atoms: C12_15  and  N3_17 
ROOT
ATOM      1  C5  <0> d          -0.029  -3.340   1.495  0.00  0.00     0.172 C 
ENDROOT
BRANCH   1   2
ATOM      2  N2  <0> d          -0.124  -1.989   0.937  0.00  0.00    -0.270 N 
ATOM      3  N1  <0> d          -0.122  -1.658  -0.425  0.00  0.00    -0.184 NA
ATOM      4  C3  <0> d          -0.223  -0.358  -0.529  0.00  0.00     0.147 A 
ATOM      5  C2  <0> d          -0.292   0.180   0.760  0.00  0.00    -0.026 A 
ATOM      6  C1  <0> d          -0.414   1.642   1.105  0.00  0.00     0.051 C 
ATOM      7  C4  <0> d          -0.224  -0.843   1.642  0.00  0.00     0.121 A 
ENDBRANCH   1   2
BRANCH   1   8
ATOM      8  C6  <0> d          -0.872  -3.429   2.741  0.00  0.00    -0.030 A 
ATOM      9  C11 <0> d          -0.464  -4.224   3.796  0.00  0.00     0.028 A 
ATOM     10  C10 <0> d          -1.235  -4.301   4.942  0.00  0.00     0.011 A 
ATOM     11  C9  <0> d          -2.419  -3.591   5.027  0.00  0.00     0.019 A 
ATOM     12 Br1  <0> d          -0.674  -5.381   6.389  0.00  0.00    -0.051 Br
ATOM     13  C8  <0> d          -2.829  -2.801   3.970  0.00  0.00     0.002 A 
ATOM     14  C7  <0> d          -2.055  -2.720   2.827  0.00  0.00     0.009 A 
ENDBRANCH   1   8
BRANCH   1  15
ATOM     15  C12 <0> d           1.430  -3.646   1.843  0.00  0.00     0.208 C 
ATOM     16  C13 <0> d           1.964  -2.571   2.791  0.00  0.00     0.042 C 
BRANCH  15  17
ATOM     17  N3  <0> d           2.234  -3.660   0.614  0.00  0.00    -0.073 N 
ATOM     18  H15 <0> d           3.195  -3.862   0.843  0.00  0.00     0.274 HD
ATOM     19  H16 <0> d           1.881  -4.369  -0.011  0.00  0.00     0.274 HD
ATOM     20  H17 <0> d           2.177  -2.758   0.165  0.00  0.00     0.274 HD
ENDBRANCH  15  17
ENDBRANCH   1  15
TORSDOF 4
