REMARK  5 active torsions:
REMARK  status: ('A' for Active; 'I' for Inactive)
REMARK    1  A    between atoms: N1_8  and  C7_9 
REMARK    2  A    between atoms: C7_9  and  C8_10 
REMARK    3  A    between atoms: N2_19  and  C18_22 
REMARK    4  A    between atoms: C18_22  and  C19_23 
REMARK    5  A    between atoms: C26_31  and  N3_33 
ROOT
ATOM      1  C1  <0> d          -0.018   1.503   0.010  0.00  0.00     0.068 C 
ATOM      2  C2  <0> d           0.002  -0.004   0.002  0.00  0.00     0.014 A 
ATOM      3  C3  <0> d           0.005  -0.663  -1.176  0.00  0.00     0.063 A 
ATOM      4  C4  <0> d           0.024  -2.074  -1.190  0.00  0.00     0.093 A 
ATOM      5  C5  <0> d           0.036  -2.753   0.011  0.00  0.00     0.072 A 
ATOM      6  C6  <0> d           0.033  -2.026   1.208  0.00  0.00     0.259 A 
ATOM      7  O1  <0> d           0.044  -2.614   2.278  0.00  0.00    -0.267 OA
ATOM      8  N1  <0> d           0.022  -0.680   1.180  0.00  0.00    -0.315 N 
ATOM      9  C10 <0> d           0.053  -4.255   0.038  0.00  0.00     0.147 A 
ATOM     10  C11 <0> d           1.388  -4.767   0.481  0.00  0.00    -0.003 A 
ATOM     11  C12 <0> d           2.645  -4.632  -0.067  0.00  0.00     0.011 A 
ATOM     12  C13 <0> d           3.697  -5.242   0.608  0.00  0.00     0.001 A 
ATOM     13  C14 <0> d           3.488  -5.951   1.773  0.00  0.00     0.002 A 
ATOM     14  C15 <0> d           2.227  -6.091   2.331  0.00  0.00     0.030 A 
ATOM     15  C16 <0> d           1.162  -5.482   1.663  0.00  0.00     0.045 A 
ATOM     16  N2  <0> d          -0.182  -5.460   1.990  0.00  0.00    -0.312 N 
ATOM     17  C17 <0> d          -0.909  -4.761   1.094  0.00  0.00     0.248 A 
ATOM     18  O2  <0> d          -2.107  -4.574   1.126  0.00  0.00    -0.271 OA
ATOM     19  C25 <0> d          -0.320  -4.814  -1.304  0.00  0.00     0.100 C 
ATOM     20  C26 <0> d          -0.310  -4.035  -2.413  0.00  0.00     0.160 C 
ATOM     21  O3  <0> d           0.031  -2.736  -2.366  0.00  0.00    -0.292 OA
ATOM     22  C27 <0> d          -0.691  -6.192  -1.415  0.00  0.00     0.101 C 
ATOM     23  N4  <0> d          -0.985  -7.286  -1.502  0.00  0.00    -0.191 NA
ENDROOT
BRANCH  20  24
ATOM     24  N3  <0> d          -0.660  -4.589  -3.619  0.00  0.00    -0.379 N 
ATOM     25  H20 <0> d          -0.909  -5.525  -3.669  0.00  0.00     0.158 HD
ATOM     26  H21 <0> d          -0.658  -4.044  -4.422  0.00  0.00     0.158 HD
ENDBRANCH  20  24
BRANCH  16  27
ATOM     27  C18 <0> d          -0.749  -6.116   3.171  0.00  0.00     0.171 C 
BRANCH  27  28
ATOM     28  C19 <0> d          -0.739  -5.156   4.332  0.00  0.00    -0.037 A 
ATOM     29  C24 <0> d          -1.825  -4.331   4.555  0.00  0.00     0.051 A 
ATOM     30  C23 <0> d          -1.818  -3.453   5.627  0.00  0.00     0.117 A 
ATOM     31  C22 <0> d          -0.718  -3.395   6.466  0.00  0.00     0.042 A 
ATOM     32  F1  <0> d          -2.881  -2.650   5.849  0.00  0.00    -0.206 F 
ATOM     33  C21 <0> d           0.369  -4.217   6.237  0.00  0.00     0.004 A 
ATOM     34  C20 <0> d           0.359  -5.097   5.171  0.00  0.00     0.009 A 
ENDBRANCH  27  28
ENDBRANCH  16  27
BRANCH   8  35
ATOM     35  C7  <0> d           0.028   0.067   2.441  0.00  0.00     0.158 C 
BRANCH  35  36
ATOM     36  C8  <0> d          -1.391   0.306   2.888  0.00  0.00    -0.017 C 
ATOM     37  C9  <0> d          -1.775  -0.073   4.082  0.00  0.00     0.008 C 
ENDBRANCH  35  36
ENDBRANCH   8  35
TORSDOF 5
