REMARK  6 active torsions:
REMARK  status: ('A' for Active; 'I' for Inactive)
REMARK    1  A    between atoms: C2_2  and  C3_3 
REMARK    2  A    between atoms: C3_3  and  N1_5 
REMARK       I    between atoms: N1_5  and  C5_6 
REMARK    3  A    between atoms: C5_6  and  C6_8 
REMARK       I    between atoms: C6_8  and  N2_10 
REMARK    4  A    between atoms: N2_10  and  C7_11 
REMARK    5  A    between atoms: C10_14  and  S1_17 
REMARK    6  A    between atoms: S1_17  and  C13_20 
ROOT
ATOM      1  C7  <0> d           6.266   1.096  -3.410  0.00  0.00     0.035 A 
ATOM      2  C8  <0> d           6.736   1.910  -4.434  0.00  0.00     0.031 A 
ATOM      3  C9  <0> d           8.030   2.390  -4.393  0.00  0.00     0.026 A 
ATOM      4  C10 <0> d           8.858   2.062  -3.336  0.00  0.00     0.065 A 
ATOM      5  C11 <0> d           8.394   1.252  -2.315  0.00  0.00     0.026 A 
ATOM      6  C12 <0> d           7.099   0.773  -2.346  0.00  0.00     0.031 A 
ENDROOT
BRANCH   1   7
ATOM      7  N2  <0> d           4.957   0.609  -3.448  0.00  0.00    -0.319 N 
ATOM      8  C6  <0> d           4.258   0.468  -2.305  0.00  0.00     0.313 C 
ATOM      9  O2  <0> d           4.791   0.684  -1.236  0.00  0.00    -0.262 OA
ATOM     10  H11 <0> d           4.552   0.371  -4.297  0.00  0.00     0.169 HD
BRANCH   8  11
ATOM     11  C5  <0> d           2.826   0.045  -2.353  0.00  0.00     0.310 C 
ATOM     12  N1  <0> d           2.126  -0.096  -1.210  0.00  0.00    -0.349 N 
ATOM     13  H10 <0> d           2.552   0.077  -0.355  0.00  0.00     0.163 HD
ATOM     14  O1  <0> d           2.293  -0.172  -3.421  0.00  0.00    -0.262 OA
BRANCH  12  15
ATOM     15  C3  <0> d           0.722  -0.510  -1.257  0.00  0.00     0.080 C 
ATOM     16  C4  <0> d           0.642  -2.037  -1.321  0.00  0.00     0.032 C 
BRANCH  15  17
ATOM     17  C2  <0> d           0.001  -0.014  -0.001  0.00  0.00     0.020 C 
ATOM     18  C1  <0> d          -0.028   1.515  -0.001  0.00  0.00     0.007 C 
ENDBRANCH  15  17
ENDBRANCH  12  15
ENDBRANCH   8  11
ENDBRANCH   1   7
BRANCH   4  19
ATOM     19  S1  <0> d          10.509   2.677  -3.288  0.00  0.00     0.236 S 
ATOM     20  O3  <0> d          11.226   1.730  -2.508  0.00  0.00    -0.217 OA
ATOM     21  O4  <0> d          10.851   2.902  -4.649  0.00  0.00    -0.217 OA
BRANCH  19  22
ATOM     22  C13 <0> d          10.393   4.256  -2.404  0.00  0.00     0.478 C 
ATOM     23  F1  <0> d           9.539   5.119  -3.099  0.00  0.00    -0.197 F 
ATOM     24  F2  <0> d           9.886   4.035  -1.119  0.00  0.00    -0.197 F 
ENDBRANCH  19  22
ENDBRANCH   4  19
TORSDOF 6
