REMARK  6 active torsions:
REMARK  status: ('A' for Active; 'I' for Inactive)
REMARK    1  A    between atoms: C2_2  and  C3_3 
REMARK    2  A    between atoms: C2_2  and  N2_9 
REMARK    3  A    between atoms: N2_9  and  S1_11 
REMARK    4  A    between atoms: S1_11  and  C9_14 
REMARK    5  A    between atoms: C9_14  and  C10_15 
REMARK    6  A    between atoms: C14_19  and  N3_21 
ROOT
ATOM      1  S1  <0> d           2.166  -1.185   1.159  0.00  0.00     0.232 S 
ATOM      2  O1  <0> d           2.280  -1.853   2.409  0.00  0.00    -0.205 OA
ATOM      3  O2  <0> d           2.066  -1.925  -0.050  0.00  0.00    -0.205 OA
ENDROOT
BRANCH   1   4
ATOM      4  N2  <0> d           0.745  -0.341   1.258  0.00  0.00    -0.306 N 
ATOM      5  C8  <0> d           0.226   0.069   2.565  0.00  0.00     0.163 C 
BRANCH   4   6
ATOM      6  C2  <0> d           0.006  -0.005   0.038  0.00  0.00     0.124 C 
ATOM      7  C1  <0> d          -0.261   1.501   0.003  0.00  0.00     0.038 C 
BRANCH   6   8
ATOM      8  C3  <0> d          -1.305  -0.748   0.024  0.00  0.00    -0.032 A 
ATOM      9  C7  <0> d          -1.699  -1.470  -1.092  0.00  0.00     0.028 A 
ATOM     10  C6  <0> d          -2.906  -2.144  -1.066  0.00  0.00     0.116 A 
ATOM     11  N1  <0> d          -3.682  -2.096  -0.001  0.00  0.00    -0.273 NA
ATOM     12  C5  <0> d          -3.342  -1.416   1.075  0.00  0.00     0.116 A 
ATOM     13  C4  <0> d          -2.147  -0.722   1.125  0.00  0.00     0.028 A 
ENDBRANCH   6   8
ENDBRANCH   4   6
ENDBRANCH   1   4
BRANCH   1  14
ATOM     14  C9  <0> d           3.453   0.084   1.010  0.00  0.00     0.201 C 
BRANCH  14  15
ATOM     15  C10 <0> d           4.803  -0.578   0.912  0.00  0.00    -0.041 A 
ATOM     16  C15 <0> d           5.318  -0.916  -0.324  0.00  0.00     0.037 A 
ATOM     17  C14 <0> d           6.565  -1.521  -0.414  0.00  0.00     0.026 A 
ATOM     18  C13 <0> d           7.286  -1.794   0.742  0.00  0.00     0.029 A 
ATOM     19  C12 <0> d           6.763  -1.458   1.975  0.00  0.00     0.003 A 
ATOM     20  C11 <0> d           5.524  -0.851   2.061  0.00  0.00     0.008 A 
BRANCH  17  21
ATOM     21  N3  <0> d           7.090  -1.860  -1.663  0.00  0.00    -0.399 N 
ATOM     22  H18 <0> d           7.960  -2.285  -1.724  0.00  0.00     0.156 HD
ATOM     23  H19 <0> d           6.586  -1.669  -2.469  0.00  0.00     0.156 HD
ENDBRANCH  17  21
ENDBRANCH  14  15
ENDBRANCH   1  14
TORSDOF 6
