REMARK  7 active torsions:
REMARK  status: ('A' for Active; 'I' for Inactive)
REMARK    1  A    between atoms: C10_12  and  O3_13 
REMARK    2  A    between atoms: O3_13  and  C11_14 
REMARK    3  A    between atoms: C11_14  and  C12_15 
REMARK       I    between atoms: C12_15  and  N1_17 
REMARK    4  A    between atoms: C14_19  and  C21_27 
REMARK       I    between atoms: C21_27  and  N3_29 
REMARK    5  A    between atoms: N3_29  and  C22_30 
REMARK    6  A    between atoms: C22_30  and  C23_31 
REMARK    7  A    between atoms: C23_31  and  N4_32 
ROOT
ATOM      1  C12 <0> d           0.217  -6.186   3.538  0.00  0.00     0.244 C 
ATOM      2  O4  <0> d           0.250  -6.525   2.374  0.00  0.00    -0.271 OA
ATOM      3  N1  <0> d           0.194  -7.118   4.511  0.00  0.00    -0.349 N 
ATOM      4  C13 <0> d           0.146  -6.901   5.976  0.00  0.00     0.140 C 
ATOM      5  C14 <0> d          -0.808  -7.996   6.502  0.00  0.00     0.106 C 
ATOM      6  C15 <0> d          -0.759  -9.104   5.436  0.00  0.00    -0.007 C 
ATOM      7  C16 <0> d           0.206  -8.593   4.357  0.00  0.00     0.136 C 
ATOM      8  C17 <0> d          -2.145  -9.322   4.836  0.00  0.00     0.039 C 
ATOM      9  C18 <0> d          -2.082 -10.467   3.821  0.00  0.00     0.233 C 
ATOM     10  N2  <0> d          -1.617 -11.689   4.487  0.00  0.00    -0.075 N 
ATOM     11  C19 <0> d          -0.248 -11.502   4.981  0.00  0.00     0.233 C 
ATOM     12  C20 <0> d          -0.233 -10.400   6.045  0.00  0.00     0.039 C 
ATOM     13  H19 <0> d          -2.227 -11.900   5.263  0.00  0.00     0.277 HD
ATOM     14  H35 <0> d          -1.635 -12.456   3.831  0.00  0.00     0.277 HD
ENDROOT
BRANCH   1  15
ATOM     15  C11 <0> d           0.199  -4.722   3.896  0.00  0.00     0.278 C 
BRANCH  15  16
ATOM     16  O3  <0> d           0.229  -3.939   2.701  0.00  0.00    -0.339 OA
BRANCH  16  17
ATOM     17  C10 <0> d           0.218  -2.587   2.849  0.00  0.00     0.104 A 
ATOM     18  C5  <0> d           0.245  -1.762   1.726  0.00  0.00     0.123 A 
ATOM     19  O2  <0> d           0.282  -2.289   0.483  0.00  0.00    -0.272 OA
ATOM     20  C6  <0> d           0.238  -0.367   1.895  0.00  0.00     0.007 A 
ATOM     21  C4  <0> d           0.308  -1.509  -0.608  0.00  0.00     0.288 A 
ATOM     22  C3  <0> d           0.298  -0.101  -0.513  0.00  0.00     0.090 A 
ATOM     23  O1  <0> d           0.342  -2.029  -1.709  0.00  0.00    -0.260 OA
ATOM     24  C2  <0> d           0.261   0.492   0.707  0.00  0.00    -0.043 A 
ATOM     25  C1  <0> d           0.250   1.994   0.838  0.00  0.00     0.049 C 
ATOM     26  C7  <0> d           0.205   0.181   3.181  0.00  0.00     0.015 A 
ATOM     27  C8  <0> d           0.184  -0.651   4.277  0.00  0.00     0.004 A 
ATOM     28  C9  <0> d           0.196  -2.028   4.114  0.00  0.00     0.040 A 
ENDBRANCH  16  17
ENDBRANCH  15  16
ENDBRANCH   1  15
BRANCH   5  29
ATOM     29  C21 <0> d          -2.208  -7.454   6.634  0.00  0.00     0.224 C 
ATOM     30  O5  <0> d          -2.589  -6.573   5.892  0.00  0.00    -0.273 OA
ATOM     31  N3  <0> d          -3.036  -7.947   7.576  0.00  0.00    -0.359 N 
ATOM     32  H24 <0> d          -2.731  -8.651   8.169  0.00  0.00     0.162 HD
BRANCH  31  33
ATOM     33  C22 <0> d          -4.396  -7.420   7.704  0.00  0.00     0.150 C 
BRANCH  33  34
ATOM     34  C23 <0> d          -5.120  -8.145   8.840  0.00  0.00     0.253 C 
BRANCH  34  35
ATOM     35  N4  <0> d          -6.484  -7.617   8.969  0.00  0.00    -0.077 N 
ATOM     36  C24 <0> d          -7.217  -8.393   9.978  0.00  0.00     0.269 C 
ATOM     37  C25 <0> d          -6.426  -6.208   9.382  0.00  0.00     0.269 C 
ATOM     38  H36 <0> d          -6.957  -7.687   8.081  0.00  0.00     0.279 HD
ENDBRANCH  34  35
ENDBRANCH  33  34
ENDBRANCH  31  33
ENDBRANCH   5  29
TORSDOF 7
