REMARK  9 active torsions:
REMARK  status: ('A' for Active; 'I' for Inactive)
REMARK    1  A    between atoms: O1_2  and  C2_3 
REMARK    2  A    between atoms: C2_3  and  C3_4 
REMARK    3  A    between atoms: C3_4  and  N1_5 
REMARK    4  A    between atoms: N1_5  and  S1_6 
REMARK    5  A    between atoms: S1_6  and  C4_9 
REMARK    6  A    between atoms: C5_10  and  C10_17 
REMARK    7  A    between atoms: C11_18  and  C12_19 
REMARK    8  A    between atoms: C12_19  and  C13_20 
REMARK    9  A    between atoms: C13_20  and  O4_21 
ROOT
ATOM      1  C4  <0> d          -0.504  -5.071  -0.035  0.00  0.00     0.136 A 
ATOM      2  C5  <0> d           0.807  -5.550  -0.033  0.00  0.00     0.047 A 
ATOM      3  C6  <0> d           1.277  -6.277   1.061  0.00  0.00     0.064 A 
ATOM      4  C7  <0> d           0.443  -6.518   2.137  0.00  0.00     0.120 A 
ATOM      5  C8  <0> d          -0.857  -6.040   2.129  0.00  0.00     0.086 A 
ATOM      6  C9  <0> d          -1.327  -5.313   1.048  0.00  0.00     0.144 A 
ATOM      7  F1  <0> d          -2.594  -4.845   1.050  0.00  0.00    -0.204 F 
ATOM      8  F2  <0> d           0.897  -7.222   3.197  0.00  0.00    -0.206 F 
ENDROOT
BRANCH   1   9
ATOM      9  S1  <0> d          -1.105  -4.152  -1.413  0.00  0.00     0.263 S 
ATOM     10  O2  <0> d          -2.520  -4.284  -1.402  0.00  0.00    -0.200 OA
ATOM     11  O3  <0> d          -0.313  -4.531  -2.531  0.00  0.00    -0.200 OA
BRANCH   9  12
ATOM     12  N1  <0> d          -0.776  -2.556  -1.119  0.00  0.00    -0.313 N 
ATOM     13  H8  <0> d          -1.503  -1.925  -0.998  0.00  0.00     0.172 HD
BRANCH  12  14
ATOM     14  C3  <0> d           0.613  -2.097  -1.041  0.00  0.00     0.158 C 
BRANCH  14  15
ATOM     15  C2  <0> d           0.652  -0.570  -1.138  0.00  0.00     0.187 C 
BRANCH  15  16
ATOM     16  O1  <0> d           0.002  -0.004   0.002  0.00  0.00    -0.394 OA
ATOM     17  C1  <0> d          -0.017   1.425   0.010  0.00  0.00     0.201 C 
ENDBRANCH  15  16
ENDBRANCH  14  15
ENDBRANCH  12  14
ENDBRANCH   9  12
ENDBRANCH   1   9
BRANCH   2  18
ATOM     18  C10 <0> d           1.666  -5.297  -1.150  0.00  0.00    -0.065 C 
ATOM     19  C11 <0> d           2.371  -5.090  -2.067  0.00  0.00    -0.099 C 
BRANCH  19  20
ATOM     20  C12 <0> d           3.254  -4.830  -3.215  0.00  0.00     0.120 C 
BRANCH  20  21
ATOM     21  C13 <0> d           4.624  -5.461  -2.958  0.00  0.00     0.176 C 
BRANCH  21  22
ATOM     22  O4  <0> d           5.481  -5.209  -4.073  0.00  0.00    -0.400 OA
ATOM     23  H15 <0> d           6.369  -5.581  -3.978  0.00  0.00     0.209 HD
ENDBRANCH  21  22
ENDBRANCH  20  21
ENDBRANCH  19  20
ENDBRANCH   2  18
TORSDOF 9
