REMARK  6 active torsions:
REMARK  status: ('A' for Active; 'I' for Inactive)
REMARK    1  A    between atoms: C8_8  and  C9_10 
REMARK    2  A    between atoms: C9_10  and  N1_11 
REMARK       I    between atoms: N1_11  and  C10_12 
REMARK    3  A    between atoms: C10_12  and  C11_14 
REMARK    4  A    between atoms: C11_14  and  C12_15 
REMARK    5  A    between atoms: C12_15  and  C13_16 
REMARK       I    between atoms: C13_16  and  N2_18 
REMARK    6  A    between atoms: N2_18  and  C14_19 
ROOT
ATOM      1  N1  <0> d           5.218  -3.192  -0.157  0.00  0.00    -0.359 N 
ATOM      2  C10 <0> d           6.098  -4.081   0.345  0.00  0.00     0.218 C 
ATOM      3  O2  <0> d           5.726  -4.920   1.138  0.00  0.00    -0.274 OA
ATOM      4  H10 <0> d           5.515  -2.521  -0.791  0.00  0.00     0.162 HD
ENDROOT
BRANCH   2   5
ATOM      5  C11 <0> d           7.543  -4.032  -0.078  0.00  0.00     0.112 C 
BRANCH   5   6
ATOM      6  C12 <0> d           8.320  -5.141   0.633  0.00  0.00     0.112 C 
BRANCH   6   7
ATOM      7  C13 <0> d           9.766  -5.093   0.210  0.00  0.00     0.224 C 
ATOM      8  O3  <0> d          10.138  -4.253  -0.582  0.00  0.00    -0.273 OA
ATOM      9  N2  <0> d          10.646  -5.982   0.713  0.00  0.00    -0.306 N 
ATOM     10  H15 <0> d          10.348  -6.653   1.346  0.00  0.00     0.171 HD
BRANCH   9  11
ATOM     11  C14 <0> d          11.979  -5.936   0.322  0.00  0.00     0.172 A 
ATOM     12  S1  <0> d          13.246  -6.932   0.810  0.00  0.00    -0.062 SA
ATOM     13  C16 <0> d          14.540  -6.176  -0.161  0.00  0.00     0.072 A 
ATOM     14  C15 <0> d          13.848  -5.191  -0.783  0.00  0.00     0.126 A 
ATOM     15  N3  <0> d          12.558  -5.102  -0.513  0.00  0.00    -0.236 NA
ENDBRANCH   9  11
ENDBRANCH   6   7
ENDBRANCH   5   6
ENDBRANCH   2   5
BRANCH   1  16
ATOM     16  C9  <0> d           3.813  -3.240   0.254  0.00  0.00     0.155 C 
BRANCH  16  17
ATOM     17  C8  <0> d           3.035  -2.130  -0.457  0.00  0.00     0.151 C 
ATOM     18  C7  <0> d           1.545  -2.154  -0.043  0.00  0.00     0.075 C 
ATOM     19  C5  <0> d           1.204  -0.676  -0.013  0.00  0.00    -0.022 A 
ATOM     20  C4  <0> d           2.407   0.019  -0.013  0.00  0.00     0.075 A 
ATOM     21  C6  <0> d           0.002  -0.004   0.002  0.00  0.00     0.010 A 
ATOM     22  C3  <0> d           2.379   1.411  -0.009  0.00  0.00     0.037 A 
ATOM     23  O1  <0> d           3.469  -0.834  -0.012  0.00  0.00    -0.343 OA
ATOM     24  C2  <0> d           1.174   2.082   0.002  0.00  0.00     0.003 A 
ATOM     25  C1  <0> d          -0.017   1.379   0.010  0.00  0.00     0.001 A 
ENDBRANCH  16  17
ENDBRANCH   1  16
TORSDOF 6
