REMARK  3 active torsions:
REMARK  status: ('A' for Active; 'I' for Inactive)
REMARK    1  A    between atoms: C2_2  and  C3_3 
REMARK    2  A    between atoms: C10_12  and  C11_13 
REMARK    3  A    between atoms: N2_17  and  C15_21 
ROOT
ATOM      1  C11 <0> d          -3.137  -0.033   0.108  0.00  0.00     0.049 C 
ATOM      2  C12 <0> d          -4.475  -0.272   0.182  0.00  0.00     0.104 A 
ATOM      3  C13 <0> d          -5.113  -1.535   0.313  0.00  0.00     0.281 A 
ATOM      4  O1  <0> d          -4.564  -2.620   0.383  0.00  0.00    -0.265 OA
ATOM      5  N2  <0> d          -6.440  -1.305   0.350  0.00  0.00    -0.253 N 
ATOM      6  C14 <0> d          -6.673   0.014   0.242  0.00  0.00     0.186 A 
ATOM      7  S1  <0> d          -8.223   0.741   0.238  0.00  0.00    -0.040 SA
ATOM      8  N3  <0> d          -5.507   0.678   0.138  0.00  0.00    -0.328 N 
ATOM      9  H12 <0> d          -5.399   1.638   0.049  0.00  0.00     0.168 HD
ENDROOT
BRANCH   1  10
ATOM     10  C10 <0> d          -2.636   1.341   0.147  0.00  0.00    -0.006 A 
ATOM     11  C7  <0> d          -1.296   1.804  -0.261  0.00  0.00     0.003 A 
ATOM     12  C6  <0> d          -0.163   1.166  -0.758  0.00  0.00     0.014 A 
ATOM     13  C8  <0> d          -1.284   3.191  -0.041  0.00  0.00     0.049 A 
ATOM     14  C5  <0> d           0.966   1.904  -1.042  0.00  0.00     0.002 A 
ATOM     15  C4  <0> d           0.978   3.275  -0.830  0.00  0.00     0.009 A 
ATOM     16  C3  <0> d          -0.135   3.918  -0.334  0.00  0.00    -0.031 A 
ATOM     17  N1  <0> d          -2.523   3.544   0.454  0.00  0.00    -0.364 N 
ATOM     18  H1  <0> d          -2.788   4.447   0.691  0.00  0.00     0.165 HD
ATOM     19  C9  <0> d          -3.318   2.450   0.564  0.00  0.00     0.100 A 
BRANCH  16  20
ATOM     20  C2  <0> d          -0.107   5.408  -0.110  0.00  0.00     0.036 C 
ATOM     21  C1  <0> d           0.259   5.697   1.347  0.00  0.00     0.010 C 
ENDBRANCH  16  20
ENDBRANCH   1  10
BRANCH   5  22
ATOM     22  C15 <0> d          -7.428  -2.292   0.476  0.00  0.00     0.045 A 
ATOM     23  C20 <0> d          -7.507  -3.319  -0.454  0.00  0.00     0.037 A 
ATOM     24  C19 <0> d          -8.481  -4.290  -0.328  0.00  0.00    -0.054 A 
ATOM     25  C18 <0> d          -9.376  -4.240   0.725  0.00  0.00    -0.056 A 
ATOM     26  C21 <0> d          -8.567  -5.406  -1.337  0.00  0.00     0.049 C 
ATOM     27  C17 <0> d          -9.300  -3.218   1.653  0.00  0.00     0.009 A 
ATOM     28  C22 <0> d         -10.437  -5.302   0.860  0.00  0.00     0.049 C 
ATOM     29  C16 <0> d          -8.325  -2.247   1.534  0.00  0.00     0.031 A 
ENDBRANCH   5  22
TORSDOF 3
