REMARK  5 active torsions:
REMARK  status: ('A' for Active; 'I' for Inactive)
REMARK    1  A    between atoms: O1_2  and  C2_3 
REMARK    2  A    between atoms: C2_3  and  C3_4 
REMARK    3  A    between atoms: C2_3  and  O3_17 
REMARK    4  A    between atoms: C3_4  and  N1_5 
REMARK    5  A    between atoms: N1_5  and  C4_6 
ROOT
ATOM      1  C4  <0> d          -0.531  -4.099   1.136  0.00  0.00     0.348 A 
ATOM      2  C5  <0> d           0.073  -4.539   2.449  0.00  0.00     0.028 A 
ATOM      3  C6  <0> d           1.216  -5.262   2.131  0.00  0.00     0.045 A 
ATOM      4  C7  <0> d           1.985  -5.797   3.162  0.00  0.00     0.030 A 
ATOM      5  C8  <0> d           1.611  -5.607   4.476  0.00  0.00     0.004 A 
ATOM      6  C9  <0> d           0.472  -4.885   4.782  0.00  0.00     0.020 A 
ATOM      7  C10 <0> d          -0.298  -4.350   3.762  0.00  0.00     0.022 A 
ATOM      8 Br1  <0> d          -1.858  -3.362   4.172  0.00  0.00    -0.050 Br
ATOM      9  N2  <0> d           1.382  -5.316   0.746  0.00  0.00    -0.324 N 
ATOM     10  C11 <0> d           0.405  -4.664   0.089  0.00  0.00     0.260 A 
ATOM     11  O2  <0> d           0.294  -4.548  -1.114  0.00  0.00    -0.270 OA
ATOM     12  H12 <0> d           2.117  -5.772   0.307  0.00  0.00     0.169 HD
ENDROOT
BRANCH   1  13
ATOM     13  N1  <0> d          -0.572  -2.633   1.054  0.00  0.00     0.106 N 
ATOM     14  H8  <0> d           0.333  -2.260   0.807  0.00  0.00     0.317 HD
BRANCH  13  15
ATOM     15  C3  <0> d          -1.601  -2.187   0.105  0.00  0.00     0.331 C 
BRANCH  15  16
ATOM     16  C2  <0> d          -1.613  -0.658   0.047  0.00  0.00     0.286 C 
BRANCH  16  17
ATOM     17  O1  <0> d          -0.334  -0.188  -0.383  0.00  0.00    -0.364 OA
ATOM     18  C1  <0> d          -0.348   1.145  -0.897  0.00  0.00     0.204 C 
ENDBRANCH  16  17
BRANCH  16  19
ATOM     19  O3  <0> d          -1.902  -0.134   1.344  0.00  0.00    -0.364 OA
ATOM     20  C12 <0> d          -2.343   1.225   1.337  0.00  0.00     0.204 C 
ENDBRANCH  16  19
ENDBRANCH  15  16
ENDBRANCH  13  15
ENDBRANCH   1  13
TORSDOF 5
