REMARK  3 active torsions:
REMARK  status: ('A' for Active; 'I' for Inactive)
REMARK    1  A    between atoms: C6_6  and  C10_13 
REMARK    2  A    between atoms: C8_8  and  N1_10 
REMARK    3  A    between atoms: C19_22  and  O2_23 
ROOT
ATOM      1  C1  <0> d          -0.314   6.435   3.764  0.00  0.00     0.015 C 
ATOM      2  C2  <0> d          -0.395   6.229   2.250  0.00  0.00    -0.035 C 
ATOM      3  C3  <0> d           0.430   5.004   1.853  0.00  0.00     0.075 C 
ATOM      4  C4  <0> d          -0.127   3.774   2.531  0.00  0.00     0.067 C 
ATOM      5  C5  <0> d          -1.439   3.679   2.810  0.00  0.00     0.031 C 
ATOM      6  C6  <0> d          -1.994   2.447   3.483  0.00  0.00     0.109 C 
ATOM      7  C7  <0> d          -0.886   1.677   4.145  0.00  0.00     0.086 C 
ATOM      8  C8  <0> d           0.404   1.890   3.789  0.00  0.00     0.159 C 
ATOM      9  O1  <0> d           0.729   2.782   2.841  0.00  0.00    -0.297 OA
ATOM     10  C9  <0> d          -1.195   0.712   5.157  0.00  0.00     0.100 C 
ATOM     11  N2  <0> d          -1.440  -0.053   5.960  0.00  0.00    -0.191 NA
ATOM     12  C21 <0> d          -2.334   4.718   2.488  0.00  0.00     0.159 C 
ATOM     13  O3  <0> d          -3.515   4.587   2.738  0.00  0.00    -0.293 OA
ATOM     14  C22 <0> d          -1.852   5.987   1.840  0.00  0.00     0.092 C 
ATOM     15  C23 <0> d           0.146   7.468   1.533  0.00  0.00     0.015 C 
ENDROOT
BRANCH   6  16
ATOM     16  C10 <0> d          -2.664   1.574   2.453  0.00  0.00     0.000 A 
ATOM     17  C19 <0> d          -1.956   1.109   1.382  0.00  0.00     0.076 A 
ATOM     18  C18 <0> d          -2.565   0.303   0.414  0.00  0.00     0.038 A 
ATOM     19  C17 <0> d          -3.874  -0.049   0.521  0.00  0.00     0.015 A 
ATOM     20  C16 <0> d          -4.633   0.411   1.612  0.00  0.00    -0.025 A 
ATOM     21  C11 <0> d          -4.020   1.233   2.590  0.00  0.00    -0.016 A 
ATOM     22  C15 <0> d          -5.990   0.072   1.750  0.00  0.00     0.012 A 
ATOM     23  C12 <0> d          -4.781   1.692   3.679  0.00  0.00     0.013 A 
ATOM     24  C13 <0> d          -6.092   1.343   3.780  0.00  0.00     0.001 A 
ATOM     25  C14 <0> d          -6.695   0.534   2.818  0.00  0.00     0.001 A 
BRANCH  17  26
ATOM     26  O2  <0> d          -0.645   1.440   1.250  0.00  0.00    -0.355 OA
ATOM     27  C20 <0> d           0.043   0.924   0.109  0.00  0.00     0.210 C 
ENDBRANCH  17  26
ENDBRANCH   6  16
BRANCH   8  28
ATOM     28  N1  <0> d           1.399   1.178   4.412  0.00  0.00    -0.379 N 
ATOM     29  H7  <0> d           2.326   1.323   4.165  0.00  0.00     0.158 HD
ATOM     30  H8  <0> d           1.175   0.531   5.098  0.00  0.00     0.158 HD
ENDBRANCH   8  28
TORSDOF 3
