REMARK  6 active torsions:
REMARK  status: ('A' for Active; 'I' for Inactive)
REMARK    1  A    between atoms: C5_5  and  N3_20 
REMARK    2  A    between atoms: C7_7  and  N1_8 
REMARK       I    between atoms: N1_8  and  C8_9 
REMARK    3  A    between atoms: C8_9  and  C9_11 
REMARK    4  A    between atoms: C9_11  and  C10_12 
REMARK    5  A    between atoms: C10_12  and  N2_13 
REMARK    6  A    between atoms: N2_13  and  C12_15 
ROOT
ATOM      1  N1  <0> d           0.025  -0.011   2.417  0.00  0.00    -0.327 N 
ATOM      2  C8  <0> d          -0.057  -0.689   3.579  0.00  0.00     0.223 C 
ATOM      3  O1  <0> d          -0.040  -1.901   3.577  0.00  0.00    -0.273 OA
ATOM      4  H8  <0> d           0.078   0.958   2.423  0.00  0.00     0.169 HD
ENDROOT
BRANCH   1   5
ATOM      5  C7  <0> d           0.033  -0.705   1.202  0.00  0.00     0.042 A 
ATOM      6  C2  <0> d          -0.585  -0.158   0.085  0.00  0.00    -0.035 A 
ATOM      7  C1  <0> d          -1.265   1.183   0.182  0.00  0.00     0.050 C 
ATOM      8  C3  <0> d          -0.572  -0.840  -1.117  0.00  0.00     0.011 A 
ATOM      9  C4  <0> d           0.050  -2.069  -1.210  0.00  0.00     0.029 A 
ATOM     10  C5  <0> d           0.666  -2.625  -0.095  0.00  0.00     0.027 A 
ATOM     11  C6  <0> d           0.655  -1.942   1.113  0.00  0.00     0.059 A 
BRANCH  10  12
ATOM     12  N3  <0> d           1.294  -3.869  -0.190  0.00  0.00    -0.399 N 
ATOM     13  H22 <0> d           1.301  -4.345  -1.035  0.00  0.00     0.156 HD
ATOM     14  H23 <0> d           1.723  -4.256   0.589  0.00  0.00     0.156 HD
ENDBRANCH  10  12
ENDBRANCH   1   5
BRANCH   2  15
ATOM     15  C9  <0> d          -0.168   0.061   4.882  0.00  0.00     0.131 C 
BRANCH  15  16
ATOM     16  C10 <0> d          -0.245  -0.937   6.039  0.00  0.00     0.244 C 
BRANCH  16  17
ATOM     17  N2  <0> d          -0.353  -0.207   7.309  0.00  0.00    -0.070 N 
ATOM     18  C11 <0> d           0.877   0.561   7.539  0.00  0.00     0.270 C 
ATOM     19  H24 <0> d          -1.140   0.424   7.269  0.00  0.00     0.279 HD
BRANCH  17  20
ATOM     20  C12 <0> d          -0.547  -1.162   8.408  0.00  0.00     0.197 C 
ATOM     21  C15 <0> d          -0.629  -0.379   9.734  0.00  0.00     0.107 C 
ATOM     22  S1  <0> d          -2.215  -0.949  10.467  0.00  0.00    -0.167 SA
ATOM     23  C14 <0> d          -2.445  -2.472   9.448  0.00  0.00     0.076 C 
ATOM     24  C13 <0> d          -1.795  -1.994   8.119  0.00  0.00     0.044 C 
ENDBRANCH  17  20
ENDBRANCH  16  17
ENDBRANCH  15  16
ENDBRANCH   2  15
TORSDOF 6
