REMARK  7 active torsions:
REMARK  status: ('A' for Active; 'I' for Inactive)
REMARK    1  A    between atoms: C2_2  and  C3_3 
REMARK    2  A    between atoms: C3_3  and  C4_4 
REMARK    3  A    between atoms: C3_3  and  N3_20 
REMARK    4  A    between atoms: C4_4  and  C5_5 
REMARK    5  A    between atoms: C4_4  and  N1_11 
REMARK    6  A    between atoms: N1_11  and  C10_13 
REMARK    7  A    between atoms: C10_13  and  C11_14 
ROOT
ATOM      1  C4  <0> d           0.772  -1.989  -1.129  0.00  0.00     0.292 C 
ENDROOT
BRANCH   1   2
ATOM      2  C3  <0> d           0.786  -0.463  -1.242  0.00  0.00     0.221 C 
BRANCH   2   3
ATOM      3  C2  <0> d           0.039  -0.039  -2.509  0.00  0.00     0.031 C 
ATOM      4  C1  <0> d          -0.079   1.486  -2.544  0.00  0.00     0.007 C 
ENDBRANCH   2   3
BRANCH   2   5
ATOM      5  N3  <0> d           2.175   0.009  -1.312  0.00  0.00    -0.073 N 
ATOM      6  H19 <0> d           2.185   1.016  -1.387  0.00  0.00     0.274 HD
ATOM      7  H20 <0> d           2.668  -0.270  -0.477  0.00  0.00     0.274 HD
ATOM      8  H21 <0> d           2.627  -0.392  -2.119  0.00  0.00     0.274 HD
ENDBRANCH   2   5
ENDBRANCH   1   2
BRANCH   1   9
ATOM      9  C5  <0> d           1.514  -2.587  -2.296  0.00  0.00     0.019 A 
ATOM     10  S1  <0> d           3.274  -2.768  -2.535  0.00  0.00    -0.085 SA
ATOM     11  C8  <0> d           3.231  -3.553  -4.138  0.00  0.00     0.051 A 
ATOM     12  C7  <0> d           1.899  -3.615  -4.385  0.00  0.00     0.028 A 
ATOM     13 Br1  <0> d           4.670  -4.137  -5.217  0.00  0.00    -0.043 Br
ATOM     14  C6  <0> d           1.019  -3.120  -3.440  0.00  0.00     0.019 A 
ENDBRANCH   1   9
BRANCH   1  15
ATOM     15  N1  <0> d           1.423  -2.393   0.124  0.00  0.00     0.101 N 
ATOM     16  C9  <0> d           1.544  -3.855   0.207  0.00  0.00     0.311 C 
BRANCH  15  17
ATOM     17  C10 <0> d           0.704  -1.857   1.288  0.00  0.00     0.334 C 
BRANCH  17  18
ATOM     18  C11 <0> d           1.487  -2.152   2.541  0.00  0.00     0.092 A 
ATOM     19  N2  <0> d           1.438  -3.256   3.232  0.00  0.00    -0.131 NA
ATOM     20  O1  <0> d           2.326  -3.123   4.328  0.00  0.00    -0.218 OA
ATOM     21  C13 <0> d           2.886  -1.906   4.259  0.00  0.00     0.077 A 
ATOM     22  C12 <0> d           2.394  -1.282   3.173  0.00  0.00     0.065 A 
ATOM     23  C14 <0> d           3.892  -1.339   5.228  0.00  0.00     0.079 C 
ENDBRANCH  17  18
ENDBRANCH  15  17
ENDBRANCH   1  15
TORSDOF 7
