REMARK  3 active torsions:
REMARK  status: ('A' for Active; 'I' for Inactive)
REMARK    1  A    between atoms: C2_2  and  N1_5 
REMARK    2  A    between atoms: C5_6  and  N3_14 
REMARK       I    between atoms: N3_14  and  C10_15 
REMARK    3  A    between atoms: C10_15  and  C11_17 
ROOT
ATOM      1  N1  <0> d           0.671  -0.406  -1.219  0.00  0.00    -0.244 N 
ATOM      2  C5  <0> d           0.825  -1.699  -1.586  0.00  0.00     0.137 A 
ATOM      3  C6  <0> d           1.610  -1.721  -2.716  0.00  0.00     0.026 A 
ATOM      4  C7  <0> d           1.933  -0.413  -3.032  0.00  0.00     0.077 A 
ATOM      5  N2  <0> d           1.366   0.383  -2.138  0.00  0.00    -0.173 NA
ATOM      6  C8  <0> d           2.809  -0.200  -4.266  0.00  0.00     0.170 C 
ATOM      7  S1  <0> d           3.467  -1.893  -4.557  0.00  0.00     0.025 S 
ATOM      8  O1  <0> d           3.376  -2.205  -5.940  0.00  0.00    -0.257 OA
ATOM      9  C9  <0> d           2.164  -2.808  -3.635  0.00  0.00     0.153 C 
ENDROOT
BRANCH   2  10
ATOM     10  N3  <0> d           0.285  -2.808  -0.937  0.00  0.00    -0.305 N 
ATOM     11  C10 <0> d           0.018  -3.932  -1.631  0.00  0.00     0.281 C 
ATOM     12  O2  <0> d           0.313  -4.003  -2.810  0.00  0.00    -0.265 OA
ATOM     13  H14 <0> d           0.102  -2.771   0.015  0.00  0.00     0.170 HD
BRANCH  11  14
ATOM     14  C11 <0> d          -0.627  -5.068  -0.967  0.00  0.00     0.142 A 
ATOM     15  O3  <0> d          -1.003  -5.121   0.327  0.00  0.00    -0.317 OA
ATOM     16  C14 <0> d          -1.562  -6.312   0.580  0.00  0.00     0.143 A 
ATOM     17  C13 <0> d          -1.544  -7.049  -0.553  0.00  0.00     0.027 A 
ATOM     18  C12 <0> d          -0.947  -6.262  -1.549  0.00  0.00     0.045 A 
ENDBRANCH  11  14
ENDBRANCH   2  10
BRANCH   1  19
ATOM     19  C2  <0> d          -0.092   0.081  -0.067  0.00  0.00     0.047 C 
ATOM     20  C1  <0> d          -0.125   1.610  -0.086  0.00  0.00     0.040 C 
ATOM     21  C3  <0> d           0.573  -0.399   1.225  0.00  0.00     0.040 C 
ATOM     22  C4  <0> d          -1.521  -0.462  -0.136  0.00  0.00     0.040 C 
ENDBRANCH   1  19
TORSDOF 3
