REMARK  7 active torsions:
REMARK  status: ('A' for Active; 'I' for Inactive)
REMARK    1  A    between atoms: C4_4  and  N2_7 
REMARK       I    between atoms: N2_7  and  C5_8 
REMARK    2  A    between atoms: C5_8  and  C6_10 
REMARK    3  A    between atoms: C6_10  and  N3_11 
REMARK       I    between atoms: N4_14  and  C11_17 
REMARK    4  A    between atoms: C11_17  and  C12_19 
REMARK    5  A    between atoms: C17_24  and  S1_25 
REMARK    6  A    between atoms: S1_25  and  C18_26 
REMARK    7  A    between atoms: C18_26  and  C19_27 
ROOT
ATOM      1  N3  <0> d          -5.080  -3.929  -0.045  0.00  0.00     0.100 N 
ATOM      2  C7  <0> d          -5.419  -3.258   1.217  0.00  0.00     0.293 C 
ATOM      3  C8  <0> d          -6.851  -2.717   1.135  0.00  0.00     0.156 C 
ATOM      4  N4  <0> d          -7.746  -3.822   0.757  0.00  0.00    -0.345 N 
ATOM      5  C9  <0> d          -7.396  -4.630  -0.421  0.00  0.00     0.156 C 
ATOM      6  C10 <0> d          -5.943  -5.094  -0.278  0.00  0.00     0.293 C 
ATOM      7  C11 <0> d          -8.858  -4.086   1.472  0.00  0.00     0.255 C 
ATOM      8  O3  <0> d          -9.078  -3.478   2.502  0.00  0.00    -0.267 OA
ENDROOT
BRANCH   7   9
ATOM      9  C12 <0> d          -9.807  -5.112   1.005  0.00  0.00     0.049 A 
ATOM     10  C17 <0> d         -10.188  -6.163   1.856  0.00  0.00     0.016 A 
ATOM     11  C16 <0> d         -11.089  -7.120   1.405  0.00  0.00     0.019 A 
ATOM     12  C15 <0> d         -11.595  -7.044   0.125  0.00  0.00     0.001 A 
ATOM     13  C14 <0> d         -11.217  -6.012  -0.720  0.00  0.00     0.001 A 
ATOM     14  C13 <0> d         -10.330  -5.050  -0.290  0.00  0.00     0.018 A 
BRANCH  10  15
ATOM     15  S1  <0> d          -9.533  -6.261   3.489  0.00  0.00    -0.124 SA
BRANCH  15  16
ATOM     16  C18 <0> d         -10.302  -7.751   4.181  0.00  0.00     0.118 C 
BRANCH  16  17
ATOM     17  C19 <0> d          -9.821  -7.955   5.594  0.00  0.00    -0.042 A 
ATOM     18  C22 <0> d         -10.491  -7.404   6.636  0.00  0.00     0.057 A 
ATOM     19  S2  <0> d          -9.519  -7.948   8.030  0.00  0.00    -0.113 SA
ATOM     20  C21 <0> d          -8.280  -8.866   7.130  0.00  0.00     0.050 A 
ATOM     21  C20 <0> d          -8.686  -8.702   5.848  0.00  0.00     0.015 A 
ENDBRANCH  16  17
ENDBRANCH  15  16
ENDBRANCH  10  15
ENDBRANCH   7   9
BRANCH   1  22
ATOM     22  C6  <0> d          -3.661  -4.310  -0.074  0.00  0.00     0.375 C 
BRANCH  22  23
ATOM     23  C5  <0> d          -2.808  -3.068  -0.079  0.00  0.00     0.251 C 
ATOM     24  N2  <0> d          -1.464  -3.174  -0.103  0.00  0.00    -0.308 N 
ATOM     25  H5  <0> d          -1.047  -4.049  -0.118  0.00  0.00     0.170 HD
ATOM     26  O2  <0> d          -3.329  -1.973  -0.060  0.00  0.00    -0.271 OA
BRANCH  24  27
ATOM     27  C4  <0> d          -0.674  -2.024  -0.108  0.00  0.00     0.160 A 
ATOM     28  C3  <0> d          -1.144  -0.692  -0.088  0.00  0.00     0.087 A 
ATOM     29  C2  <0> d          -0.077   0.127  -0.100  0.00  0.00     0.078 A 
ATOM     30  C1  <0> d          -0.119   1.634  -0.087  0.00  0.00     0.079 C 
ATOM     31  O1  <0> d           1.031  -0.629  -0.132  0.00  0.00    -0.216 OA
ATOM     32  N1  <0> d           0.634  -1.988  -0.131  0.00  0.00    -0.110 NA
ENDBRANCH  24  27
ENDBRANCH  22  23
ENDBRANCH   1  22
TORSDOF 7
