REMARK  5 active torsions:
REMARK  status: ('A' for Active; 'I' for Inactive)
REMARK    1  A    between atoms: C5_5  and  N1_8 
REMARK       I    between atoms: N1_8  and  C8_9 
REMARK    2  A    between atoms: C8_9  and  C9_11 
REMARK    3  A    between atoms: C9_11  and  N2_12 
REMARK       I    between atoms: N2_12  and  C11_14 
REMARK    4  A    between atoms: C11_14  and  C12_16 
REMARK    5  A    between atoms: C12_16  and  C13_17 
ROOT
ATOM      1  N2  <0> d           0.420  -6.845   2.495  0.00  0.00    -0.347 N 
ATOM      2  C10 <0> d          -0.787  -7.205   3.244  0.00  0.00     0.153 C 
ATOM      3  C11 <0> d           1.632  -6.969   3.071  0.00  0.00     0.223 C 
ATOM      4  O2  <0> d           2.631  -6.670   2.452  0.00  0.00    -0.273 OA
ENDROOT
BRANCH   1   5
ATOM      5  C9  <0> d           0.309  -6.349   1.121  0.00  0.00     0.228 C 
BRANCH   5   6
ATOM      6  C8  <0> d           0.175  -4.848   1.138  0.00  0.00     0.240 C 
ATOM      7  N1  <0> d           0.059  -4.170  -0.021  0.00  0.00    -0.326 N 
ATOM      8  H8  <0> d          -0.017  -4.651  -0.860  0.00  0.00     0.169 HD
ATOM      9  O1  <0> d           0.173  -4.251   2.193  0.00  0.00    -0.271 OA
BRANCH   7  10
ATOM     10  C5  <0> d           0.046  -2.771  -0.014  0.00  0.00     0.034 A 
ATOM     11  C4  <0> d           0.791  -2.073   0.927  0.00  0.00     0.030 A 
ATOM     12  C3  <0> d           0.777  -0.692   0.931  0.00  0.00     0.009 A 
ATOM     13  C2  <0> d           0.022  -0.004  -0.001  0.00  0.00    -0.062 A 
ATOM     14  C1  <0> d           0.008   1.503   0.007  0.00  0.00     0.048 C 
ATOM     15  C7  <0> d          -0.726  -0.696  -0.936  0.00  0.00     0.009 A 
ATOM     16  C6  <0> d          -0.712  -2.077  -0.948  0.00  0.00     0.030 A 
ENDBRANCH   7  10
ENDBRANCH   5   6
ENDBRANCH   1   5
BRANCH   3  17
ATOM     17  C12 <0> d           1.746  -7.479   4.485  0.00  0.00     0.139 C 
BRANCH  17  18
ATOM     18  C13 <0> d           3.197  -7.522   4.888  0.00  0.00    -0.041 A 
ATOM     19  C20 <0> d           4.181  -8.640   4.623  0.00  0.00     0.155 A 
ATOM     20  N3  <0> d           5.454  -8.202   5.208  0.00  0.00    -0.385 N 
ATOM     21  C19 <0> d           5.281  -7.021   5.749  0.00  0.00     0.038 A 
ATOM     22  H22 <0> d           6.283  -8.705   5.199  0.00  0.00     0.160 HD
ATOM     23  C14 <0> d           3.882  -6.572   5.564  0.00  0.00    -0.005 A 
ATOM     24  C18 <0> d           6.173  -6.157   6.441  0.00  0.00     0.030 A 
ATOM     25  C15 <0> d           3.496  -5.263   6.105  0.00  0.00     0.014 A 
ATOM     26  C16 <0> d           4.425  -4.520   6.749  0.00  0.00     0.001 A 
ATOM     27  C17 <0> d           5.744  -4.966   6.911  0.00  0.00     0.002 A 
ENDBRANCH  17  18
ENDBRANCH   3  17
TORSDOF 5
