REMARK  4 active torsions:
REMARK  status: ('A' for Active; 'I' for Inactive)
REMARK    1  A    between atoms: C3_3  and  C5_6 
REMARK    2  A    between atoms: C7_8  and  C8_9 
REMARK       I    between atoms: C8_9  and  N1_11 
REMARK    3  A    between atoms: N1_11  and  C9_12 
REMARK    4  A    between atoms: N2_15  and  C14_18 
ROOT
ATOM      1  C8  <0> d           5.580   0.514  -1.704  0.00  0.00     0.223 C 
ATOM      2  O2  <0> d           6.050   1.492  -1.163  0.00  0.00    -0.273 OA
ATOM      3  N1  <0> d           6.221  -0.054  -2.745  0.00  0.00    -0.356 N 
ATOM      4  H8  <0> d           5.844  -0.836  -3.178  0.00  0.00     0.162 HD
ENDROOT
BRANCH   3   5
ATOM      5  C9  <0> d           7.486   0.509  -3.222  0.00  0.00     0.087 C 
ATOM      6  C13 <0> d           8.300  -0.582  -3.923  0.00  0.00     0.053 C 
ATOM      7  C12 <0> d           9.584   0.031  -4.488  0.00  0.00     0.237 C 
ATOM      8  N2  <0> d           9.244   1.085  -5.451  0.00  0.00    -0.067 N 
ATOM      9  C11 <0> d           8.526   2.169  -4.770  0.00  0.00     0.237 C 
ATOM     10  H23 <0> d           8.660   0.700  -6.178  0.00  0.00     0.280 HD
ATOM     11  C10 <0> d           7.202   1.639  -4.216  0.00  0.00     0.053 C 
BRANCH   8  12
ATOM     12  C14 <0> d          10.477   1.617  -6.047  0.00  0.00     0.188 A 
ATOM     13  C16 <0> d          11.373   0.637  -6.808  0.00  0.00     0.035 A 
ATOM     14  C15 <0> d          10.554   1.677  -7.574  0.00  0.00     0.035 A 
ENDBRANCH   8  12
ENDBRANCH   3   5
BRANCH   1  15
ATOM     15  C7  <0> d           4.278  -0.066  -1.214  0.00  0.00     0.089 A 
ATOM     16  C5  <0> d           3.599   0.625  -0.029  0.00  0.00     0.057 A 
ATOM     17  C6  <0> d           4.276  -0.734   0.163  0.00  0.00     0.027 A 
BRANCH  16  18
ATOM     18  C3  <0> d           2.092   0.660  -0.014  0.00  0.00     0.057 A 
ATOM     19  C2  <0> d           1.331   1.769  -0.001  0.00  0.00     0.035 A 
ATOM     20  C1  <0> d          -0.016   1.341   0.009  0.00  0.00     0.027 A 
ATOM     21  C4  <0> d           0.002  -0.004   0.002  0.00  0.00     0.142 A 
ATOM     22  O1  <0> d           1.282  -0.411  -0.012  0.00  0.00    -0.327 OA
ENDBRANCH  16  18
ENDBRANCH   1  15
TORSDOF 4
