REMARK  2 active torsions:
REMARK  status: ('A' for Active; 'I' for Inactive)
REMARK    1  A    between atoms: C4_5  and  C7_10 
REMARK       I    between atoms: C7_10  and  N3_12 
REMARK    2  A    between atoms: N3_12  and  C8_13 
ROOT
ATOM      1  C7  <0> d           0.038  -3.527  -2.689  0.00  0.00     0.269 C 
ATOM      2  O1  <0> d           0.144  -4.633  -3.187  0.00  0.00    -0.266 OA
ATOM      3  N3  <0> d          -0.083  -2.441  -3.479  0.00  0.00    -0.349 N 
ATOM      4  H8  <0> d          -0.094  -1.554  -3.087  0.00  0.00     0.163 HD
ENDROOT
BRANCH   3   5
ATOM      5  C8  <0> d          -0.199  -2.601  -4.931  0.00  0.00     0.105 C 
ATOM      6  C14 <0> d          -1.678  -2.762  -5.347  0.00  0.00     0.152 C 
ATOM      7  N5  <0> d          -2.147  -1.439  -5.777  0.00  0.00    -0.335 N 
ATOM      8  C10 <0> d          -1.058  -0.457  -5.587  0.00  0.00     0.181 C 
ATOM      9  C13 <0> d          -3.344  -1.105  -6.326  0.00  0.00     0.238 C 
ATOM     10  C9  <0> d           0.236  -1.302  -5.663  0.00  0.00     0.061 C 
ATOM     11  C11 <0> d          -1.093   0.520  -6.735  0.00  0.00     0.241 C 
ATOM     12  O2  <0> d          -0.062   1.003  -7.154  0.00  0.00    -0.271 OA
ATOM     13  N4  <0> d          -2.271   0.854  -7.295  0.00  0.00    -0.351 N 
ATOM     14  C12 <0> d          -3.538   0.319  -6.795  0.00  0.00     0.225 C 
ATOM     15  H11 <0> d          -2.281   1.464  -8.049  0.00  0.00     0.163 HD
ATOM     16  O3  <0> d          -4.234  -1.922  -6.422  0.00  0.00    -0.272 OA
ENDBRANCH   3   5
BRANCH   1  17
ATOM     17  C4  <0> d           0.042  -3.375  -1.234  0.00  0.00     0.115 A 
ATOM     18  N1  <0> d           0.059  -4.498  -0.418  0.00  0.00    -0.294 N 
ATOM     19  C3  <0> d           0.075  -5.882  -0.562  0.00  0.00     0.126 A 
ATOM     20  C6  <0> d           0.062  -4.286   0.933  0.00  0.00     0.177 A 
ATOM     21  C2  <0> d           0.087  -6.420   0.669  0.00  0.00     0.049 A 
ATOM     22  C1  <0> d           0.107  -7.893   0.986  0.00  0.00     0.072 C 
ATOM     23  N2  <0> d           0.073  -5.424   1.566  0.00  0.00    -0.228 NA
ATOM     24  S1  <0> d           0.040  -2.514   1.066  0.00  0.00    -0.061 SA
ATOM     25  C5  <0> d           0.028  -2.138  -0.679  0.00  0.00     0.089 A 
ENDBRANCH   1  17
TORSDOF 2
