REMARK  4 active torsions:
REMARK  status: ('A' for Active; 'I' for Inactive)
REMARK    1  A    between atoms: C6_6  and  S1_7 
REMARK    2  A    between atoms: S1_7  and  N1_10 
REMARK    3  A    between atoms: N1_10  and  N2_11 
REMARK       I    between atoms: N2_11  and  C7_12 
REMARK    4  A    between atoms: C7_12  and  C8_14 
ROOT
ATOM      1  S1  <0> d          -1.514  -0.902   0.012  0.00  0.00     0.276 S 
ATOM      2  O1  <0> d          -1.224  -2.183   0.553  0.00  0.00    -0.199 OA
ATOM      3  O2  <0> d          -2.493  -0.040   0.576  0.00  0.00    -0.199 OA
ENDROOT
BRANCH   1   4
ATOM      4  C6  <0> d           0.002  -0.004   0.002  0.00  0.00     0.084 A 
ATOM      5  C1  <0> d          -0.017   1.379   0.010  0.00  0.00     0.028 A 
ATOM      6  C2  <0> d           1.168   2.090   0.002  0.00  0.00     0.034 A 
ATOM      7  C3  <0> d           2.377   1.414  -0.013  0.00  0.00     0.071 A 
ATOM      8  N4  <0> d           3.708   1.832  -0.024  0.00  0.00    -0.300 N 
ATOM      9  C4  <0> d           2.397   0.019  -0.021  0.00  0.00     0.109 A 
ATOM     10  C13 <0> d           4.479   0.727  -0.038  0.00  0.00     0.370 A 
ATOM     11  H9  <0> d           4.021   2.750  -0.022  0.00  0.00     0.171 HD
ATOM     12  O4  <0> d           3.697  -0.364  -0.036  0.00  0.00    -0.259 OA
ATOM     13  O5  <0> d           5.695   0.719  -0.050  0.00  0.00    -0.238 OA
ATOM     14  C5  <0> d           1.204  -0.685  -0.013  0.00  0.00     0.065 A 
ENDBRANCH   1   4
BRANCH   1  15
ATOM     15  N1  <0> d          -1.950  -1.143  -1.568  0.00  0.00    -0.220 N 
ATOM     16  H10 <0> d          -2.793  -0.792  -1.897  0.00  0.00     0.200 HD
BRANCH  15  17
ATOM     17  N2  <0> d          -1.103  -1.853  -2.428  0.00  0.00    -0.256 N 
ATOM     18  C7  <0> d          -1.568  -2.926  -3.097  0.00  0.00     0.270 C 
ATOM     19  O3  <0> d          -2.722  -3.278  -2.954  0.00  0.00    -0.266 OA
ATOM     20  H4  <0> d          -0.182  -1.571  -2.542  0.00  0.00     0.191 HD
BRANCH  18  21
ATOM     21  C8  <0> d          -0.671  -3.677  -4.007  0.00  0.00     0.036 A 
ATOM     22  C12 <0> d          -1.133  -4.793  -4.711  0.00  0.00     0.036 A 
ATOM     23  C11 <0> d          -0.265  -5.461  -5.552  0.00  0.00     0.117 A 
ATOM     24  N3  <0> d           0.985  -5.064  -5.688  0.00  0.00    -0.273 NA
ATOM     25  C10 <0> d           1.462  -4.021  -5.040  0.00  0.00     0.117 A 
ATOM     26  C9  <0> d           0.661  -3.292  -4.182  0.00  0.00     0.036 A 
ENDBRANCH  18  21
ENDBRANCH  15  17
ENDBRANCH   1  15
TORSDOF 4
