REMARK  2 active torsions:
REMARK  status: ('A' for Active; 'I' for Inactive)
REMARK    1  A    between atoms: C8_9  and  C9_11 
REMARK       I    between atoms: C9_11  and  N1_13 
REMARK    2  A    between atoms: N1_13  and  C10_14 
ROOT
ATOM      1  C1  <0> d          -0.017   1.378   0.010  0.00  0.00     0.003 A 
ATOM      2  C2  <0> d           1.182   2.067   0.002  0.00  0.00     0.019 A 
ATOM      3  C3  <0> d           2.377   1.373  -0.009  0.00  0.00     0.011 A 
ATOM      4  C4  <0> d           2.420  -0.019  -0.002  0.00  0.00     0.000 A 
ATOM      5  C5  <0> d           1.195  -0.694  -0.005  0.00  0.00     0.043 A 
ATOM      6  C6  <0> d           0.002  -0.004   0.002  0.00  0.00     0.024 A 
ATOM      7 Cl1  <0> d           1.177  -2.430  -0.017  0.00  0.00    -0.084 Cl
ATOM      8  C7  <0> d           3.792  -0.646   0.027  0.00  0.00     0.141 C 
ATOM      9  C8  <0> d           4.880   0.335  -0.463  0.00  0.00     0.167 C 
ATOM     10  S1  <0> d           4.066   1.931  -0.042  0.00  0.00    -0.113 SA
ATOM     11 Cl2  <0> d           4.174  -1.146   1.717  0.00  0.00    -0.118 Cl
ENDROOT
BRANCH   9  12
ATOM     12  C9  <0> d           5.106   0.208  -1.948  0.00  0.00     0.236 C 
ATOM     13  O1  <0> d           4.175  -0.041  -2.684  0.00  0.00    -0.272 OA
ATOM     14  N1  <0> d           6.343   0.369  -2.458  0.00  0.00    -0.317 N 
ATOM     15  H6  <0> d           7.088   0.568  -1.869  0.00  0.00     0.166 HD
BRANCH  14  16
ATOM     16  C10 <0> d           6.563   0.245  -3.901  0.00  0.00     0.382 A 
ATOM     17  N5  <0> d           7.875   0.801  -4.274  0.00  0.00    -0.120 NA
ATOM     18  N4  <0> d           8.521  -0.138  -4.759  0.00  0.00    -0.025 NA
ATOM     19  N3  <0> d           7.790  -1.323  -4.768  0.00  0.00    -0.025 NA
ATOM     20  N2  <0> d           6.657  -1.172  -4.290  0.00  0.00    -0.120 NA
ENDBRANCH  14  16
ENDBRANCH   9  12
TORSDOF 2
