REMARK  3 active torsions:
REMARK  status: ('A' for Active; 'I' for Inactive)
REMARK    1  A    between atoms: C5_5  and  O3_23 
REMARK    2  A    between atoms: C6_6  and  C7_7 
REMARK    3  A    between atoms: C10_13  and  O1_14 
ROOT
ATOM      1  C7  <0> d           3.671   2.193  -0.021  0.00  0.00     0.101 C 
ATOM      2  C8  <0> d           3.724   3.064  -1.243  0.00  0.00     0.055 A 
ATOM      3  C9  <0> d           3.556   4.422  -1.185  0.00  0.00     0.133 A 
ATOM      4  N1  <0> d           3.655   4.903  -2.438  0.00  0.00    -0.260 N 
ATOM      5  H2  <0> d           3.572   5.862  -2.710  0.00  0.00     0.191 HD
ATOM      6  N2  <0> d           3.895   3.817  -3.296  0.00  0.00    -0.147 NA
ATOM      7  C10 <0> d           3.935   2.718  -2.575  0.00  0.00     0.192 A 
ATOM      8  N3  <0> d           3.334   5.072   0.024  0.00  0.00    -0.344 N 
ATOM      9  C11 <0> d           3.588   4.392   1.189  0.00  0.00     0.021 C 
ATOM     10  C12 <0> d           3.751   3.052   1.222  0.00  0.00     0.024 C 
ATOM     11  C13 <0> d           4.004   2.387   2.435  0.00  0.00     0.158 C 
ATOM     12  O2  <0> d           4.153   1.180   2.431  0.00  0.00    -0.293 OA
ATOM     13  C14 <0> d           4.094   3.133   3.737  0.00  0.00     0.084 C 
ATOM     14  C15 <0> d           3.220   4.389   3.649  0.00  0.00     0.014 C 
ATOM     15  C16 <0> d           3.689   5.217   2.451  0.00  0.00     0.058 C 
ATOM     16  H6  <0> d           3.007   5.985   0.043  0.00  0.00     0.167 HD
ENDROOT
BRANCH   1  17
ATOM     17  C6  <0> d           2.378   1.418  -0.013  0.00  0.00    -0.008 A 
ATOM     18  C1  <0> d           1.171   2.089   0.002  0.00  0.00     0.035 A 
ATOM     19  C2  <0> d          -0.017   1.379   0.010  0.00  0.00     0.036 A 
ATOM     20  C3  <0> d           0.002  -0.004   0.002  0.00  0.00     0.050 A 
ATOM     21 Cl2  <0> d          -1.532   2.225   0.021  0.00  0.00    -0.084 Cl
ATOM     22  C4  <0> d           1.208  -0.680  -0.014  0.00  0.00     0.069 A 
ATOM     23  C5  <0> d           2.400   0.031  -0.021  0.00  0.00     0.094 A 
ATOM     24 Cl1  <0> d           1.232  -2.415  -0.023  0.00  0.00    -0.081 Cl
BRANCH  23  25
ATOM     25  O3  <0> d           3.588  -0.630  -0.037  0.00  0.00    -0.358 OA
ATOM     26  H13 <0> d           3.922  -0.817  -0.925  0.00  0.00     0.217 HD
ENDBRANCH  23  25
ENDBRANCH   1  17
BRANCH   7  27
ATOM     27  O1  <0> d           4.148   1.461  -3.048  0.00  0.00    -0.343 OA
ATOM     28  H5  <0> d           4.270   1.495  -4.040  0.00  0.00     0.219 HD
ENDBRANCH   7  27
TORSDOF 3
