REMARK  4 active torsions:
REMARK  status: ('A' for Active; 'I' for Inactive)
REMARK    1  A    between atoms: C2_2  and  C3_3 
REMARK    2  A    between atoms: C2_2  and  O2_17 
REMARK    3  A    between atoms: C3_3  and  N1_4 
REMARK    4  A    between atoms: N1_4  and  C4_5 
ROOT
ATOM      1  C4  <0> d           1.420  -2.477  -2.462  0.00  0.00     0.347 A 
ATOM      2  C5  <0> d           0.969  -3.887  -2.767  0.00  0.00     0.012 A 
ATOM      3  C6  <0> d          -0.258  -4.431  -3.079  0.00  0.00     0.034 A 
ATOM      4  C7  <0> d          -0.371  -5.790  -3.313  0.00  0.00     0.050 A 
ATOM      5  C8  <0> d           0.752  -6.599  -3.233  0.00  0.00     0.136 A 
ATOM      6  C9  <0> d           1.982  -6.054  -2.921  0.00  0.00     0.073 A 
ATOM      7  C10 <0> d           2.102  -4.686  -2.683  0.00  0.00     0.046 A 
ATOM      8  N2  <0> d           3.216  -3.912  -2.356  0.00  0.00    -0.324 N 
ATOM      9  C11 <0> d           2.906  -2.609  -2.210  0.00  0.00     0.260 A 
ATOM     10  O1  <0> d           3.672  -1.711  -1.929  0.00  0.00    -0.270 OA
ATOM     11  F1  <0> d           0.642  -7.926  -3.462  0.00  0.00    -0.205 F 
ATOM     12 Br1  <0> d          -2.053  -6.541  -3.743  0.00  0.00    -0.048 Br
ATOM     13  H11 <0> d           4.110  -4.270  -2.247  0.00  0.00     0.169 HD
ENDROOT
BRANCH   1  14
ATOM     14  N1  <0> d           0.738  -1.966  -1.265  0.00  0.00     0.104 N 
ATOM     15  H8  <0> d           1.165  -2.327  -0.424  0.00  0.00     0.317 HD
BRANCH  14  16
ATOM     16  C3  <0> d           0.718  -0.497  -1.257  0.00  0.00     0.302 C 
BRANCH  16  17
ATOM     17  C2  <0> d           0.002  -0.004   0.002  0.00  0.00     0.142 C 
ATOM     18  C1  <0> d          -0.019   1.526   0.010  0.00  0.00     0.041 C 
BRANCH  17  19
ATOM     19  O2  <0> d          -1.339  -0.499   0.012  0.00  0.00    -0.394 OA
ATOM     20  H12 <0> d          -1.853  -0.225   0.784  0.00  0.00     0.210 HD
ENDBRANCH  17  19
ENDBRANCH  16  17
ENDBRANCH  14  16
ENDBRANCH   1  14
TORSDOF 4
