REMARK  3 active torsions:
REMARK  status: ('A' for Active; 'I' for Inactive)
REMARK    1  A    between atoms: C2_2  and  N1_9 
REMARK       I    between atoms: N1_9  and  C6_10 
REMARK    2  A    between atoms: C6_10  and  C7_12 
REMARK    3  A    between atoms: C9_14  and  N2_19 
ROOT
ATOM      1  N1  <0> d           0.731  -0.456  -1.186  0.00  0.00    -0.347 N 
ATOM      2  C6  <0> d           0.300  -0.105  -2.414  0.00  0.00     0.253 C 
ATOM      3  O3  <0> d          -0.693   0.586  -2.536  0.00  0.00    -0.268 OA
ATOM      4  H10 <0> d           1.523  -1.007  -1.089  0.00  0.00     0.163 HD
ENDROOT
BRANCH   2   5
ATOM      5  C7  <0> d           1.035  -0.561  -3.613  0.00  0.00     0.051 A 
ATOM      6  C12 <0> d           0.592  -0.200  -4.887  0.00  0.00     0.026 A 
ATOM      7  C11 <0> d           1.287  -0.625  -6.002  0.00  0.00     0.022 A 
ATOM      8 Br1  <0> d          -0.951   0.875  -5.085  0.00  0.00    -0.050 Br
ATOM      9  C10 <0> d           2.412  -1.416  -5.859  0.00  0.00     0.037 A 
ATOM     10  C9  <0> d           2.854  -1.781  -4.599  0.00  0.00     0.103 A 
ATOM     11  C8  <0> d           2.172  -1.359  -3.477  0.00  0.00     0.054 A 
BRANCH  10  12
ATOM     12  N2  <0> d           4.060  -2.627  -4.456  0.00  0.00    -0.116 N 
ATOM     13  O4  <0> d           4.447  -2.947  -3.356  0.00  0.00    -0.532 OA
ATOM     14  O5  <0> d           4.658  -2.998  -5.439  0.00  0.00    -0.532 OA
ENDBRANCH  10  12
ENDBRANCH   2   5
BRANCH   1  15
ATOM     15  C2  <0> d           0.002  -0.004   0.002  0.00  0.00     0.043 C 
ATOM     16  C1  <0> d          -0.019   1.526   0.010  0.00  0.00     0.039 C 
ATOM     17  C5  <0> d           0.751  -0.495   1.257  0.00  0.00     0.170 C 
ATOM     18  S1  <0> d          -0.454  -1.644   2.043  0.00  0.00     0.146 S 
ATOM     19  C4  <0> d          -1.556  -1.909   0.586  0.00  0.00     0.143 C 
ATOM     20  O1  <0> d           0.203  -2.864   2.360  0.00  0.00    -0.228 OA
ATOM     21  O2  <0> d          -1.173  -0.950   3.053  0.00  0.00    -0.228 OA
ATOM     22  C3  <0> d          -1.436  -0.513  -0.087  0.00  0.00     0.046 C 
ENDBRANCH   1  15
TORSDOF 3
