REMARK  5 active torsions:
REMARK  status: ('A' for Active; 'I' for Inactive)
REMARK       I    between atoms: C2_2  and  N1_4 
REMARK    1  A    between atoms: N1_4  and  C3_5 
REMARK    2  A    between atoms: C3_5  and  C4_6 
REMARK    3  A    between atoms: N2_10  and  C9_12 
REMARK    4  A    between atoms: C9_12  and  N3_13 
REMARK    5  A    between atoms: C11_16  and  C14_21 
ROOT
ATOM      1  C4  <0> d          -2.571  -2.688   0.012  0.00  0.00     0.029 C 
ATOM      2  C5  <0> d          -3.249  -2.302   1.330  0.00  0.00     0.009 C 
ATOM      3  C6  <0> d          -4.657  -2.903   1.364  0.00  0.00     0.028 C 
ATOM      4  C7  <0> d          -4.563  -4.419   1.183  0.00  0.00     0.237 C 
ATOM      5  N2  <0> d          -3.930  -4.724  -0.106  0.00  0.00    -0.054 N 
ATOM      6  C8  <0> d          -2.555  -4.213  -0.120  0.00  0.00     0.243 C 
ATOM      7  H27 <0> d          -4.457  -4.288  -0.849  0.00  0.00     0.281 HD
ENDROOT
BRANCH   5   8
ATOM      8  C9  <0> d          -3.913  -6.178  -0.310  0.00  0.00     0.371 C 
BRANCH   8   9
ATOM      9  N3  <0> d          -5.287  -6.672  -0.426  0.00  0.00    -0.242 N 
ATOM     10  C12 <0> d          -5.956  -6.771  -1.581  0.00  0.00     0.327 A 
ATOM     11  N4  <0> d          -7.200  -7.255  -1.415  0.00  0.00    -0.324 N 
ATOM     12  O3  <0> d          -5.490  -6.460  -2.659  0.00  0.00    -0.247 OA
ATOM     13  C11 <0> d          -7.369  -7.496   0.029  0.00  0.00     0.116 A 
ATOM     14  H18 <0> d          -7.858  -7.413  -2.110  0.00  0.00     0.165 HD
ATOM     15  C10 <0> d          -6.037  -7.077   0.619  0.00  0.00     0.257 A 
ATOM     16  C13 <0> d          -7.636  -8.978   0.300  0.00  0.00     0.049 C 
ATOM     17  O2  <0> d          -5.713  -7.101   1.787  0.00  0.00    -0.270 OA
BRANCH  13  18
ATOM     18  C14 <0> d          -8.501  -6.632   0.589  0.00  0.00     0.023 A 
ATOM     19  C16 <0> d          -9.920  -6.922   0.097  0.00  0.00     0.008 A 
ATOM     20  C15 <0> d          -9.191  -5.661  -0.372  0.00  0.00     0.008 A 
ENDBRANCH  13  18
ENDBRANCH   8   9
ENDBRANCH   5   8
BRANCH   1  21
ATOM     21  C3  <0> d          -1.136  -2.159   0.001  0.00  0.00     0.128 C 
BRANCH  21  22
ATOM     22  N1  <0> d          -1.156  -0.694   0.009  0.00  0.00    -0.361 N 
ATOM     23  C2  <0> d           0.002  -0.004   0.002  0.00  0.00     0.213 C 
ATOM     24  C1  <0> d          -0.018   1.503   0.010  0.00  0.00     0.117 C 
ATOM     25  O1  <0> d           1.060  -0.596  -0.011  0.00  0.00    -0.274 OA
ATOM     26  H5  <0> d          -2.002  -0.220   0.020  0.00  0.00     0.162 HD
ENDBRANCH  21  22
ENDBRANCH   1  21
TORSDOF 5
