REMARK  5 active torsions:
REMARK  status: ('A' for Active; 'I' for Inactive)
REMARK    1  A    between atoms: C2_2  and  C3_3 
REMARK    2  A    between atoms: C5_6  and  C17_22 
REMARK    3  A    between atoms: C8_10  and  C11_14 
REMARK    4  A    between atoms: C12_15  and  O3_21 
REMARK    5  A    between atoms: C14_17  and  O2_20 
ROOT
ATOM      1  C3  <0> d           0.742  -0.511   1.242  0.00  0.00     0.075 C 
ATOM      2  C4  <0> d           0.050  -0.066   2.526  0.00  0.00     0.151 C 
ATOM      3  O1  <0> d          -0.959   0.599   2.536  0.00  0.00    -0.296 OA
ATOM      4  C5  <0> d           0.749  -0.539   3.796  0.00  0.00     0.075 C 
ATOM      5  C6  <0> d           0.819  -2.072   3.713  0.00  0.00     0.257 C 
ATOM      6  N1  <0> d           1.525  -2.474   2.495  0.00  0.00    -0.033 N 
ATOM      7  C7  <0> d           0.789  -2.046   1.278  0.00  0.00     0.257 C 
ATOM      8  C8  <0> d           2.889  -1.937   2.499  0.00  0.00     0.458 C 
ATOM      9  N2  <0> d           2.835  -0.468   2.514  0.00  0.00     0.127 N 
ATOM     10  C9  <0> d           2.182   0.012   3.740  0.00  0.00     0.295 C 
ATOM     11  C10 <0> d           2.185   0.017   1.289  0.00  0.00     0.295 C 
ATOM     12  H29 <0> d           1.590  -3.481   2.484  0.00  0.00     0.282 HD
ENDROOT
BRANCH   8  13
ATOM     13  C11 <0> d           3.620  -2.426   3.723  0.00  0.00     0.036 A 
ATOM     14  C16 <0> d           3.230  -3.601   4.335  0.00  0.00     0.017 A 
ATOM     15  C15 <0> d           3.901  -4.055   5.455  0.00  0.00     0.037 A 
ATOM     16  C14 <0> d           4.961  -3.325   5.973  0.00  0.00     0.068 A 
ATOM     17  C13 <0> d           5.350  -2.142   5.364  0.00  0.00     0.073 A 
ATOM     18  C12 <0> d           4.679  -1.692   4.237  0.00  0.00     0.078 A 
BRANCH  16  19
ATOM     19  O2  <0> d           5.617  -3.769   7.078  0.00  0.00    -0.361 OA
ATOM     20  H17 <0> d           5.246  -3.448   7.911  0.00  0.00     0.217 HD
ENDBRANCH  16  19
BRANCH  18  21
ATOM     21  O3  <0> d           5.059  -0.533   3.637  0.00  0.00    -0.360 OA
ATOM     22  H18 <0> d           4.609   0.252   3.977  0.00  0.00     0.217 HD
ENDBRANCH  18  21
ENDBRANCH   8  13
BRANCH   4  23
ATOM     23  C17 <0> d           0.015  -0.060   5.050  0.00  0.00    -0.003 C 
ATOM     24  C18 <0> d          -0.029   1.469   5.062  0.00  0.00     0.011 C 
ATOM     25  C19 <0> d          -1.413  -0.611   5.048  0.00  0.00     0.011 C 
ENDBRANCH   4  23
BRANCH   1  26
ATOM     26  C2  <0> d           0.002  -0.004   0.002  0.00  0.00    -0.003 C 
ATOM     27  C1  <0> d          -0.019   1.526   0.010  0.00  0.00     0.011 C 
ATOM     28  C20 <0> d          -1.433  -0.534   0.013  0.00  0.00     0.011 C 
ENDBRANCH   1  26
TORSDOF 5
