REMARK  4 active torsions:
REMARK  status: ('A' for Active; 'I' for Inactive)
REMARK    1  A    between atoms: C2_2  and  N1_3 
REMARK    2  A    between atoms: C4_6  and  C5_7 
REMARK    3  A    between atoms: N2_9  and  C7_10 
REMARK    4  A    between atoms: N4_18  and  C14_21 
ROOT
ATOM      1  N1  <0> d          -1.043  -0.495   0.697  0.00  0.00    -0.290 N 
ATOM      2  C3  <0> d          -1.785  -0.890   1.751  0.00  0.00     0.267 A 
ATOM      3  O1  <0> d          -1.309  -0.933   2.870  0.00  0.00    -0.267 OA
ATOM      4  C4  <0> d          -3.190  -1.268   1.511  0.00  0.00     0.122 A 
ATOM      5  C12 <0> d          -3.680  -1.185   0.123  0.00  0.00     0.267 A 
ATOM      6  O2  <0> d          -4.827  -1.480  -0.154  0.00  0.00    -0.267 OA
ATOM      7  N4  <0> d          -2.821  -0.771  -0.832  0.00  0.00    -0.290 N 
ATOM      8  C13 <0> d          -1.556  -0.438  -0.540  0.00  0.00     0.186 A 
ATOM      9  S1  <0> d          -0.540   0.083  -1.816  0.00  0.00    -0.040 SA
ENDROOT
BRANCH   4  10
ATOM     10  C5  <0> d          -4.011  -1.683   2.542  0.00  0.00     0.027 C 
ATOM     11  C6  <0> d          -3.443  -1.890   3.922  0.00  0.00     0.069 C 
ATOM     12  N2  <0> d          -5.324  -1.902   2.313  0.00  0.00    -0.359 N 
ATOM     13  H9  <0> d          -5.599  -2.576   1.672  0.00  0.00     0.166 HD
BRANCH  12  14
ATOM     14  C7  <0> d          -6.285  -1.159   2.998  0.00  0.00     0.035 A 
ATOM     15  C11 <0> d          -7.639  -1.477   2.899  0.00  0.00     0.048 A 
ATOM     16  C10 <0> d          -8.557  -0.719   3.597  0.00  0.00     0.118 A 
ATOM     17  N3  <0> d          -8.169   0.299   4.340  0.00  0.00    -0.273 NA
ATOM     18  C9  <0> d          -6.898   0.635   4.455  0.00  0.00     0.118 A 
ATOM     19  C8  <0> d          -5.917  -0.075   3.794  0.00  0.00     0.048 A 
ENDBRANCH  12  14
ENDBRANCH   4  10
BRANCH   1  20
ATOM     20  C2  <0> d           0.356  -0.113   0.909  0.00  0.00     0.130 C 
ATOM     21  C1  <0> d           0.435   1.384   1.216  0.00  0.00     0.027 C 
ENDBRANCH   1  20
BRANCH   7  22
ATOM     22  C14 <0> d          -3.284  -0.680  -2.219  0.00  0.00     0.130 C 
ATOM     23  C15 <0> d          -3.851   0.718  -2.476  0.00  0.00     0.027 C 
ENDBRANCH   7  22
TORSDOF 4
