REMARK  4 active torsions:
REMARK  status: ('A' for Active; 'I' for Inactive)
REMARK    1  A    between atoms: C8_9  and  C10_12 
REMARK       I    between atoms: C10_12  and  N1_14 
REMARK    2  A    between atoms: N1_14  and  C11_15 
REMARK    3  A    between atoms: C11_15  and  C12_16 
REMARK    4  A    between atoms: C15_19  and  N2_21 
ROOT
ATOM      1  C10 <0> d          -2.363  -2.935   0.340  0.00  0.00     0.250 C 
ATOM      2  O2  <0> d          -3.441  -2.448   0.052  0.00  0.00    -0.268 OA
ATOM      3  N1  <0> d          -2.278  -4.241   0.662  0.00  0.00    -0.353 N 
ATOM      4  H7  <0> d          -1.419  -4.629   0.892  0.00  0.00     0.163 HD
ENDROOT
BRANCH   3   5
ATOM      5  C11 <0> d          -3.483  -5.074   0.667  0.00  0.00     0.162 C 
BRANCH   5   6
ATOM      6  C12 <0> d          -3.119  -6.483   1.058  0.00  0.00    -0.025 A 
ATOM      7  C16 <0> d          -2.772  -7.407   0.094  0.00  0.00     0.098 A 
ATOM      8  N3  <0> d          -2.425  -8.693   0.369  0.00  0.00    -0.356 N 
ATOM      9  C15 <0> d          -2.448  -9.045   1.687  0.00  0.00     0.082 A 
ATOM     10  H21 <0> d          -2.163  -9.357  -0.369  0.00  0.00     0.166 HD
ATOM     11  C14 <0> d          -2.792  -8.168   2.710  0.00  0.00     0.043 A 
ATOM     12  C13 <0> d          -3.133  -6.865   2.393  0.00  0.00     0.013 A 
BRANCH   9  13
ATOM     13  N2  <0> d          -2.103 -10.357   1.991  0.00  0.00    -0.265 NA
ATOM     14  C20 <0> d          -1.776 -11.112   0.773  0.00  0.00     0.123 C 
ATOM     15  C19 <0> d          -1.461 -12.563   1.147  0.00  0.00     0.182 C 
ATOM     16  O3  <0> d          -0.395 -12.583   2.099  0.00  0.00    -0.389 OA
ATOM     17  C18 <0> d          -0.680 -11.858   3.299  0.00  0.00     0.182 C 
ATOM     18  C17 <0> d          -0.987 -10.400   2.946  0.00  0.00     0.123 C 
ENDBRANCH   9  13
ENDBRANCH   5   6
ENDBRANCH   3   5
BRANCH   1  19
ATOM     19  C8  <0> d          -1.160  -2.103   0.336  0.00  0.00     0.034 C 
ATOM     20  C7  <0> d          -1.242  -0.789   0.011  0.00  0.00     0.029 C 
ATOM     21  C4  <0> d           0.002  -0.004   0.002  0.00  0.00    -0.000 A 
ATOM     22  C3  <0> d           1.229  -0.691  -0.014  0.00  0.00     0.079 A 
ATOM     23  C5  <0> d          -0.017   1.390   0.010  0.00  0.00     0.038 A 
ATOM     24  C2  <0> d           2.413   0.023  -0.021  0.00  0.00     0.039 A 
ATOM     25  O1  <0> d           1.224  -2.047  -0.023  0.00  0.00    -0.346 OA
ATOM     26  C1  <0> d           2.383   1.406  -0.013  0.00  0.00     0.026 A 
ATOM     27  C6  <0> d           1.176   2.086   0.002  0.00  0.00     0.035 A 
ATOM     28 Cl1  <0> d           1.162   3.822   0.011  0.00  0.00    -0.084 Cl
ATOM     29  C9  <0> d           0.175  -2.703   0.691  0.00  0.00     0.220 C 
ENDBRANCH   1  19
TORSDOF 4
