REMARK  3 active torsions:
REMARK  status: ('A' for Active; 'I' for Inactive)
REMARK    1  A    between atoms: C5_6  and  S1_13 
REMARK    2  A    between atoms: S1_13  and  N3_16 
REMARK    3  A    between atoms: N3_16  and  C10_17 
ROOT
ATOM      1  C1  <0> d          -5.024   3.778   5.841  0.00  0.00     0.161 C 
ATOM      2  N1  <0> d          -4.143   4.811   5.290  0.00  0.00    -0.302 N 
ATOM      3  C2  <0> d          -3.678   4.870   3.979  0.00  0.00     0.065 A 
ATOM      4  C3  <0> d          -3.865   4.065   2.865  0.00  0.00     0.034 A 
ATOM      5  C4  <0> d          -3.261   4.396   1.668  0.00  0.00     0.028 A 
ATOM      6  C5  <0> d          -2.459   5.522   1.579  0.00  0.00     0.082 A 
ATOM      7  C6  <0> d          -2.266   6.329   2.683  0.00  0.00     0.057 A 
ATOM      8  C7  <0> d          -2.874   6.008   3.887  0.00  0.00     0.067 A 
ATOM      9  N2  <0> d          -2.875   6.604   5.146  0.00  0.00    -0.302 N 
ATOM     10  C8  <0> d          -3.645   5.864   5.965  0.00  0.00     0.329 A 
ATOM     11  O1  <0> d          -3.858   6.109   7.138  0.00  0.00    -0.246 OA
ATOM     12  C9  <0> d          -2.161   7.829   5.515  0.00  0.00     0.161 C 
ENDROOT
BRANCH   6  13
ATOM     13  S1  <0> d          -1.688   5.930   0.048  0.00  0.00     0.264 S 
ATOM     14  O2  <0> d          -1.437   7.328   0.080  0.00  0.00    -0.200 OA
ATOM     15  O3  <0> d          -2.464   5.318  -0.973  0.00  0.00    -0.200 OA
BRANCH  13  16
ATOM     16  N3  <0> d          -0.210   5.183   0.030  0.00  0.00    -0.264 N 
ATOM     17  H10 <0> d           0.602   5.715   0.025  0.00  0.00     0.180 HD
BRANCH  16  18
ATOM     18  C10 <0> d          -0.132   3.796   0.023  0.00  0.00     0.136 A 
ATOM     19  N4  <0> d          -1.243   3.076   0.030  0.00  0.00    -0.243 NA
ATOM     20  C14 <0> d          -1.213   1.757   0.017  0.00  0.00     0.119 A 
ATOM     21  C13 <0> d          -0.013   1.076   0.008  0.00  0.00     0.019 A 
ATOM     22  C12 <0> d           1.176   1.794   0.001  0.00  0.00     0.005 A 
ATOM     23  C11 <0> d           1.113   3.175   0.008  0.00  0.00     0.051 A 
ENDBRANCH  16  18
ENDBRANCH  13  16
ENDBRANCH   6  13
TORSDOF 3
