REMARK  6 active torsions:
REMARK  status: ('A' for Active; 'I' for Inactive)
REMARK    1  A    between atoms: C2_2  and  N1_3 
REMARK    2  A    between atoms: N1_3  and  C3_4 
REMARK    3  A    between atoms: N1_3  and  C14_21 
REMARK    4  A    between atoms: C3_4  and  C4_5 
REMARK    5  A    between atoms: C4_5  and  N2_6 
REMARK       I    between atoms: N2_6  and  C5_7 
REMARK    6  A    between atoms: C5_7  and  C6_9 
ROOT
ATOM      1  N2  <0> d           2.736  -3.225   0.087  0.00  0.00    -0.354 N 
ATOM      2  C5  <0> d           2.705  -4.330   0.858  0.00  0.00     0.272 C 
ATOM      3  O1  <0> d           1.644  -4.749   1.279  0.00  0.00    -0.266 OA
ATOM      4  H11 <0> d           3.583  -2.891  -0.249  0.00  0.00     0.162 HD
ENDROOT
BRANCH   1   5
ATOM      5  C4  <0> d           1.491  -2.527  -0.243  0.00  0.00     0.143 C 
BRANCH   5   6
ATOM      6  C3  <0> d           1.803  -1.315  -1.122  0.00  0.00     0.142 C 
BRANCH   6   7
ATOM      7  N1  <0> d           0.577  -0.544  -1.345  0.00  0.00    -0.379 N 
BRANCH   7   8
ATOM      8  C2  <0> d           0.153   0.456  -0.362  0.00  0.00     0.118 C 
ATOM      9  C1  <0> d           0.765   1.812  -0.718  0.00  0.00     0.026 C 
ENDBRANCH   7   8
BRANCH   7  10
ATOM     10  C14 <0> d          -0.186  -0.764  -2.493  0.00  0.00     0.036 A 
ATOM     11  C19 <0> d          -1.308  -1.581  -2.438  0.00  0.00    -0.035 A 
ATOM     12  C18 <0> d          -2.064  -1.792  -3.575  0.00  0.00     0.009 A 
ATOM     13  C20 <0> d          -1.702  -2.234  -1.138  0.00  0.00     0.050 C 
ATOM     14  C17 <0> d          -1.699  -1.198  -4.769  0.00  0.00     0.001 A 
ATOM     15  C16 <0> d          -0.580  -0.388  -4.829  0.00  0.00     0.002 A 
ATOM     16  C15 <0> d           0.177  -0.169  -3.695  0.00  0.00     0.030 A 
ENDBRANCH   7  10
ENDBRANCH   6   7
ENDBRANCH   5   6
ENDBRANCH   1   5
BRANCH   2  17
ATOM     17  C6  <0> d           3.960  -5.034   1.190  0.00  0.00     0.155 A 
ATOM     18  N4  <0> d           5.109  -4.589   0.740  0.00  0.00    -0.166 NA
ATOM     19  N3  <0> d           6.239  -5.136   0.987  0.00  0.00    -0.242 N 
ATOM     20  C13 <0> d           6.380  -6.249   1.736  0.00  0.00     0.272 A 
ATOM     21  H1  <0> d           7.036  -4.731   0.612  0.00  0.00     0.192 HD
ATOM     22  C12 <0> d           5.175  -6.868   2.305  0.00  0.00     0.046 A 
ATOM     23  O2  <0> d           7.480  -6.731   1.934  0.00  0.00    -0.266 OA
ATOM     24  C7  <0> d           3.936  -6.245   2.026  0.00  0.00     0.016 A 
ATOM     25  C11 <0> d           5.213  -8.015   3.091  0.00  0.00     0.018 A 
ATOM     26  C8  <0> d           2.761  -6.784   2.538  0.00  0.00     0.015 A 
ATOM     27  C9  <0> d           2.820  -7.922   3.314  0.00  0.00     0.001 A 
ATOM     28  C10 <0> d           4.036  -8.533   3.588  0.00  0.00     0.001 A 
ENDBRANCH   2  17
TORSDOF 6
