REMARK  6 active torsions:
REMARK  status: ('A' for Active; 'I' for Inactive)
REMARK    1  A    between atoms: C2_2  and  C3_3 
REMARK    2  A    between atoms: C3_3  and  N1_4 
REMARK    3  A    between atoms: C7_8  and  C9_11 
REMARK       I    between atoms: C9_11  and  N3_13 
REMARK    4  A    between atoms: N3_13  and  C11_15 
REMARK    5  A    between atoms: C11_15  and  C12_16 
REMARK    6  A    between atoms: C15_19  and  N4_22 
ROOT
ATOM      1  N1  <0> d          -1.237  -0.440  -0.990  0.00  0.00    -0.283 N 
ATOM      2  C4  <0> d          -0.017   0.179  -0.799  0.00  0.00     0.149 A 
ATOM      3  C5  <0> d           1.140  -0.449  -1.303  0.00  0.00     0.079 A 
ATOM      4  C6  <0> d           2.381   0.151  -1.127  0.00  0.00     0.039 A 
ATOM      5  C7  <0> d           2.424   1.373  -0.444  0.00  0.00     0.050 A 
ATOM      6  C8  <0> d           1.232   1.933   0.026  0.00  0.00     0.136 A 
ATOM      7  N2  <0> d           0.075   1.335  -0.160  0.00  0.00    -0.241 NA
ATOM      8  C20 <0> d           0.991  -1.732  -2.013  0.00  0.00     0.263 A 
ATOM      9  O2  <0> d           1.959  -2.311  -2.466  0.00  0.00    -0.267 OA
ATOM     10  N5  <0> d          -0.251  -2.250  -2.138  0.00  0.00    -0.274 N 
ATOM     11  H1  <0> d          -0.396  -3.210  -2.655  0.00  0.00     0.173 HD
ATOM     12  C21 <0> d          -1.321  -1.612  -1.640  0.00  0.00     0.331 A 
ATOM     13  O3  <0> d          -2.417  -2.119  -1.783  0.00  0.00    -0.246 OA
ENDROOT
BRANCH   5  14
ATOM     14  C9  <0> d           3.712   2.062  -0.224  0.00  0.00     0.255 C 
ATOM     15  O1  <0> d           3.774   3.274  -0.305  0.00  0.00    -0.267 OA
ATOM     16  N3  <0> d           4.817   1.348   0.066  0.00  0.00    -0.348 N 
ATOM     17  C10 <0> d           4.766  -0.116   0.059  0.00  0.00     0.153 C 
BRANCH  16  18
ATOM     18  C11 <0> d           6.070   2.036   0.388  0.00  0.00     0.164 C 
BRANCH  18  19
ATOM     19  C12 <0> d           6.142   2.277   1.874  0.00  0.00    -0.040 A 
ATOM     20  C17 <0> d           6.719   1.330   2.700  0.00  0.00     0.011 A 
ATOM     21  C16 <0> d           6.787   1.548   4.062  0.00  0.00     0.030 A 
ATOM     22  C15 <0> d           6.275   2.721   4.602  0.00  0.00     0.029 A 
ATOM     23  C14 <0> d           5.697   3.671   3.770  0.00  0.00     0.030 A 
ATOM     24  C13 <0> d           5.637   3.449   2.408  0.00  0.00     0.011 A 
BRANCH  22  25
ATOM     25  N4  <0> d           6.342   2.944   5.979  0.00  0.00    -0.390 N 
ATOM     26  C18 <0> d           6.952   1.941   6.856  0.00  0.00     0.149 C 
ATOM     27  C19 <0> d           5.802   4.182   6.547  0.00  0.00     0.149 C 
ENDBRANCH  22  25
ENDBRANCH  18  19
ENDBRANCH  16  18
ENDBRANCH   5  14
BRANCH   1  28
ATOM     28  C3  <0> d          -2.455   0.191  -0.476  0.00  0.00     0.135 C 
BRANCH  28  29
ATOM     29  C2  <0> d          -3.041   1.114  -1.546  0.00  0.00     0.016 C 
ATOM     30  C1  <0> d          -4.314   1.773  -1.009  0.00  0.00     0.006 C 
ENDBRANCH  28  29
ENDBRANCH   1  28
TORSDOF 6
