REMARK  6 active torsions:
REMARK  status: ('A' for Active; 'I' for Inactive)
REMARK    1  A    between atoms: C5_5  and  C6_7 
REMARK    2  A    between atoms: C6_7  and  C7_9 
REMARK    3  A    between atoms: C7_9  and  C8_10 
REMARK    4  A    between atoms: C8_10  and  C9_11 
REMARK       I    between atoms: C9_11  and  N1_13 
REMARK    5  A    between atoms: N1_13  and  C10_14 
REMARK    6  A    between atoms: C10_14  and  C12_16 
ROOT
ATOM      1  C9  <0> d           4.376  -5.757  -0.051  0.00  0.00     0.218 C 
ATOM      2  O2  <0> d           5.107  -4.789  -0.049  0.00  0.00    -0.274 OA
ATOM      3  N1  <0> d           4.902  -6.998  -0.060  0.00  0.00    -0.350 N 
ATOM      4  H11 <0> d           4.317  -7.772  -0.061  0.00  0.00     0.163 HD
ENDROOT
BRANCH   1   5
ATOM      5  C8  <0> d           2.881  -5.572  -0.042  0.00  0.00     0.110 C 
BRANCH   5   6
ATOM      6  C7  <0> d           2.552  -4.078  -0.033  0.00  0.00     0.093 C 
BRANCH   6   7
ATOM      7  C6  <0> d           1.056  -3.893  -0.025  0.00  0.00     0.166 C 
ATOM      8  O1  <0> d           0.324  -4.862  -0.026  0.00  0.00    -0.292 OA
BRANCH   7   9
ATOM      9  C5  <0> d           0.506  -2.592  -0.015  0.00  0.00     0.051 A 
ATOM     10  C4  <0> d          -0.831  -2.205  -0.007  0.00  0.00     0.024 A 
ATOM     11  C3  <0> d          -1.058  -0.852   0.002  0.00  0.00     0.015 A 
ATOM     12  C2  <0> d           0.002  -0.004   0.002  0.00  0.00    -0.021 A 
ATOM     13  C1  <0> d          -0.018   1.503   0.010  0.00  0.00     0.056 C 
ATOM     14  S1  <0> d           1.342  -1.017  -0.017  0.00  0.00    -0.092 SA
ENDBRANCH   7   9
ENDBRANCH   6   7
ENDBRANCH   5   6
ENDBRANCH   1   5
BRANCH   3  15
ATOM     15  C10 <0> d           6.356  -7.178  -0.068  0.00  0.00     0.152 C 
ATOM     16  C11 <0> d           6.870  -7.108  -1.507  0.00  0.00     0.040 C 
BRANCH  15  17
ATOM     17  C12 <0> d           6.699  -8.521   0.524  0.00  0.00     0.152 A 
ATOM     18  N4  <0> d           7.676  -8.775   1.430  0.00  0.00    -0.319 N 
ATOM     19  C13 <0> d           7.620 -10.102   1.680  0.00  0.00     0.130 A 
ATOM     20  C14 <0> d           8.741  -8.133   2.210  0.00  0.00     0.132 C 
ATOM     21  N3  <0> d           6.662 -10.597   0.941  0.00  0.00    -0.135 NA
ATOM     22  C16 <0> d           8.675 -10.481   2.696  0.00  0.00     0.082 C 
ATOM     23  N2  <0> d           6.114  -9.657   0.256  0.00  0.00    -0.133 NA
ATOM     24  C15 <0> d           9.098  -9.138   3.328  0.00  0.00     0.028 C 
ENDBRANCH  15  17
ENDBRANCH   3  15
TORSDOF 6
