REMARK  7 active torsions:
REMARK  status: ('A' for Active; 'I' for Inactive)
REMARK    1  A    between atoms: C9_9  and  C15_16 
REMARK    2  A    between atoms: C11_11  and  C12_12 
REMARK    3  A    between atoms: C12_12  and  C13_13 
REMARK    4  A    between atoms: C13_13  and  S1_14 
REMARK       I    between atoms: C15_16  and  N1_18 
REMARK    5  A    between atoms: N1_18  and  C16_19 
REMARK    6  A    between atoms: C18_21  and  O3_27 
REMARK    7  A    between atoms: C21_24  and  O2_25 
ROOT
ATOM      1  C1  <0> d          -6.517  -4.663  -3.396  0.00  0.00     0.048 C 
ATOM      2  C2  <0> d          -5.138  -4.428  -2.834  0.00  0.00    -0.061 A 
ATOM      3  C3  <0> d          -4.029  -4.947  -3.477  0.00  0.00     0.009 A 
ATOM      4  C4  <0> d          -2.765  -4.734  -2.968  0.00  0.00     0.031 A 
ATOM      5  C5  <0> d          -2.597  -3.994  -1.799  0.00  0.00     0.044 A 
ATOM      6  C6  <0> d          -3.719  -3.478  -1.161  0.00  0.00     0.015 A 
ATOM      7  C7  <0> d          -4.979  -3.692  -1.673  0.00  0.00     0.019 A 
ATOM      8  C8  <0> d          -3.207  -2.744   0.049  0.00  0.00     0.247 A 
ATOM      9  C9  <0> d          -3.594  -1.261  -0.001  0.00  0.00     0.131 C 
ATOM     10  C10 <0> d          -4.425  -1.024   1.283  0.00  0.00     0.050 C 
ATOM     11  C11 <0> d          -4.916  -2.448   1.646  0.00  0.00     0.189 C 
ATOM     12  C24 <0> d          -1.711  -2.912  -0.004  0.00  0.00     0.264 A 
ATOM     13  O4  <0> d          -0.905  -2.471   0.788  0.00  0.00    -0.270 OA
ATOM     14  N2  <0> d          -1.440  -3.646  -1.099  0.00  0.00    -0.324 N 
ATOM     15  H28 <0> d          -0.545  -3.904  -1.370  0.00  0.00     0.169 HD
ATOM     16  N3  <0> d          -3.768  -3.291   1.276  0.00  0.00    -0.048 N 
ATOM     17  H29 <0> d          -3.064  -3.273   2.023  0.00  0.00     0.279 HD
ATOM     18  H30 <0> d          -4.078  -4.257   1.120  0.00  0.00     0.279 HD
ENDROOT
BRANCH   9  19
ATOM     19  C15 <0> d          -2.360  -0.396   0.006  0.00  0.00     0.229 C 
ATOM     20  O1  <0> d          -1.839  -0.091   1.058  0.00  0.00    -0.273 OA
ATOM     21  N1  <0> d          -1.835   0.038  -1.157  0.00  0.00    -0.324 N 
ATOM     22  H18 <0> d          -2.295  -0.138  -1.993  0.00  0.00     0.169 HD
BRANCH  21  23
ATOM     23  C16 <0> d          -0.624   0.743  -1.159  0.00  0.00     0.071 A 
ATOM     24  C21 <0> d          -0.330   1.621  -2.199  0.00  0.00     0.095 A 
ATOM     25  C20 <0> d           0.872   2.311  -2.202  0.00  0.00     0.042 A 
ATOM     26  C19 <0> d           1.775   2.134  -1.171  0.00  0.00     0.039 A 
ATOM     27  C18 <0> d           1.482   1.264  -0.131  0.00  0.00     0.070 A 
ATOM     28  C17 <0> d           0.282   0.571  -0.123  0.00  0.00     0.069 A 
BRANCH  24  29
ATOM     29  O2  <0> d          -1.218   1.797  -3.214  0.00  0.00    -0.354 OA
ATOM     30  C22 <0> d          -0.848   2.708  -4.250  0.00  0.00     0.210 C 
ENDBRANCH  24  29
BRANCH  27  31
ATOM     31  O3  <0> d           2.373   1.092   0.882  0.00  0.00    -0.356 OA
ATOM     32  C23 <0> d           3.590   1.839   0.810  0.00  0.00     0.210 C 
ENDBRANCH  27  31
ENDBRANCH  21  23
ENDBRANCH   9  19
BRANCH  11  33
ATOM     33  C12 <0> d          -5.223  -2.548   3.142  0.00  0.00     0.043 C 
BRANCH  33  34
ATOM     34  C13 <0> d          -5.714  -3.960   3.469  0.00  0.00     0.075 C 
BRANCH  34  35
ATOM     35  S1  <0> d          -6.077  -4.079   5.242  0.00  0.00    -0.173 SA
ATOM     36  C14 <0> d          -6.639  -5.789   5.461  0.00  0.00     0.089 C 
ENDBRANCH  34  35
ENDBRANCH  33  34
ENDBRANCH  11  33
TORSDOF 7
