REMARK  8 active torsions:
REMARK  status: ('A' for Active; 'I' for Inactive)
REMARK    1  A    between atoms: C2_2  and  C4_4 
REMARK    2  A    between atoms: C2_2  and  N5_23 
REMARK    3  A    between atoms: C4_4  and  N1_5 
REMARK       I    between atoms: N1_5  and  C5_6 
REMARK       I    between atoms: C5_6  and  N2_8 
REMARK    4  A    between atoms: N2_8  and  C6_9 
REMARK    5  A    between atoms: C6_9  and  C7_10 
REMARK    6  A    between atoms: C7_10  and  N3_11 
REMARK    7  A    between atoms: N3_11  and  C8_12 
REMARK    8  A    between atoms: C11_15  and  C13_18 
ROOT
ATOM      1  C6  <0> d          -4.218  -4.165  -0.998  0.00  0.00     0.144 C 
ENDROOT
BRANCH   1   2
ATOM      2  N2  <0> d          -2.899  -3.592  -0.717  0.00  0.00    -0.342 N 
ATOM      3  C5  <0> d          -2.771  -2.267  -0.505  0.00  0.00     0.316 C 
ATOM      4  N1  <0> d          -1.558  -1.740  -0.246  0.00  0.00    -0.341 N 
ATOM      5  O1  <0> d          -3.751  -1.548  -0.546  0.00  0.00    -0.247 OA
ATOM      6  H9  <0> d          -0.777  -2.314  -0.213  0.00  0.00     0.164 HD
ATOM      7  H10 <0> d          -2.118  -4.166  -0.684  0.00  0.00     0.164 HD
BRANCH   4   8
ATOM      8  C4  <0> d          -1.419  -0.300  -0.016  0.00  0.00     0.162 C 
BRANCH   8   9
ATOM      9  C2  <0> d           0.060   0.047   0.166  0.00  0.00     0.135 C 
ATOM     10  C1  <0> d           0.811  -0.220  -1.140  0.00  0.00     0.048 C 
ATOM     11  C3  <0> d           0.195   1.525   0.539  0.00  0.00     0.048 C 
BRANCH   9  12
ATOM     12  N5  <0> d           0.629  -0.781   1.237  0.00  0.00    -0.069 N 
ATOM     13  C14 <0> d           2.044  -0.433   1.426  0.00  0.00     0.270 C 
ATOM     14  C15 <0> d          -0.106  -0.541   2.486  0.00  0.00     0.270 C 
ATOM     15  H24 <0> d           0.554  -1.756   0.985  0.00  0.00     0.280 HD
ENDBRANCH   9  12
ENDBRANCH   8   9
ENDBRANCH   4   8
ENDBRANCH   1   2
BRANCH   1  16
ATOM     16  C7  <0> d          -4.085  -5.676  -1.198  0.00  0.00     0.141 C 
BRANCH  16  17
ATOM     17  N3  <0> d          -5.404  -6.249  -1.479  0.00  0.00    -0.372 N 
ATOM     18  H15 <0> d          -6.185  -5.675  -1.512  0.00  0.00     0.161 HD
BRANCH  17  19
ATOM     19  C8  <0> d          -5.536  -7.616  -1.698  0.00  0.00     0.145 A 
ATOM     20  N4  <0> d          -4.466  -8.394  -1.651  0.00  0.00    -0.241 NA
ATOM     21  C12 <0> d          -4.548  -9.696  -1.849  0.00  0.00     0.135 A 
ATOM     22  C11 <0> d          -5.760 -10.296  -2.123  0.00  0.00     0.067 A 
ATOM     23  C10 <0> d          -6.907  -9.515  -2.186  0.00  0.00     0.045 A 
ATOM     24  C9  <0> d          -6.791  -8.153  -1.970  0.00  0.00     0.080 A 
ATOM     25 Cl1  <0> d          -8.191  -7.129  -2.036  0.00  0.00    -0.080 Cl
BRANCH  22  26
ATOM     26  C13 <0> d          -5.839 -11.784  -2.351  0.00  0.00     0.418 C 
ATOM     27  F1  <0> d          -5.665 -12.056  -3.712  0.00  0.00    -0.166 F 
ATOM     28  F2  <0> d          -4.835 -12.422  -1.615  0.00  0.00    -0.166 F 
ATOM     29  F3  <0> d          -7.090 -12.253  -1.938  0.00  0.00    -0.166 F 
ENDBRANCH  22  26
ENDBRANCH  17  19
ENDBRANCH  16  17
ENDBRANCH   1  16
TORSDOF 8
