REMARK  5 active torsions:
REMARK  status: ('A' for Active; 'I' for Inactive)
REMARK    1  A    between atoms: C7_7  and  N1_8 
REMARK    2  A    between atoms: N1_8  and  C8_9 
REMARK    3  A    between atoms: N2_11  and  N3_12 
REMARK       I    between atoms: N3_12  and  C9_13 
REMARK    4  A    between atoms: C9_13  and  C10_15 
REMARK    5  A    between atoms: C15_20  and  O2_21 
ROOT
ATOM      1  C8  <0> d          -0.321  -0.742   6.040  0.00  0.00     0.191 C 
ATOM      2  S1  <0> d          -0.818  -0.023   7.512  0.00  0.00    -0.039 SA
ATOM      3  N2  <0> d          -0.337  -0.023   4.899  0.00  0.00    -0.273 N 
ATOM      4  H9  <0> d          -0.630   0.902   4.913  0.00  0.00     0.189 HD
ENDROOT
BRANCH   3   5
ATOM      5  N3  <0> d           0.069  -0.611   3.695  0.00  0.00    -0.264 N 
ATOM      6  C9  <0> d           0.052   0.108   2.555  0.00  0.00     0.272 C 
ATOM      7  O1  <0> d          -0.315   1.267   2.572  0.00  0.00    -0.266 OA
ATOM      8  H10 <0> d           0.362  -1.536   3.681  0.00  0.00     0.190 HD
BRANCH   6   9
ATOM      9  C10 <0> d           0.480  -0.511   1.286  0.00  0.00     0.066 A 
ATOM     10  C15 <0> d           0.465   0.232   0.098  0.00  0.00     0.081 A 
ATOM     11  C14 <0> d           0.864  -0.362  -1.090  0.00  0.00     0.037 A 
ATOM     12  C13 <0> d           1.284  -1.677  -1.099  0.00  0.00     0.003 A 
ATOM     13  C12 <0> d           1.301  -2.416   0.073  0.00  0.00     0.001 A 
ATOM     14  C11 <0> d           0.903  -1.843   1.261  0.00  0.00     0.020 A 
BRANCH  10  15
ATOM     15  O2  <0> d           0.057   1.526   0.110  0.00  0.00    -0.360 OA
ATOM     16  H15 <0> d           0.769   2.162   0.265  0.00  0.00     0.217 HD
ENDBRANCH  10  15
ENDBRANCH   6   9
ENDBRANCH   3   5
BRANCH   1  17
ATOM     17  N1  <0> d           0.086  -2.026   6.020  0.00  0.00    -0.332 N 
ATOM     18  H8  <0> d           0.291  -2.457   5.176  0.00  0.00     0.168 HD
BRANCH  17  19
ATOM     19  C7  <0> d           0.213  -2.738   7.218  0.00  0.00     0.040 A 
ATOM     20  C2  <0> d          -0.264  -4.039   7.308  0.00  0.00    -0.035 A 
ATOM     21  C1  <0> d          -0.919  -4.687   6.115  0.00  0.00     0.050 C 
ATOM     22  C3  <0> d          -0.137  -4.739   8.492  0.00  0.00     0.009 A 
ATOM     23  C4  <0> d           0.464  -4.146   9.587  0.00  0.00     0.001 A 
ATOM     24  C5  <0> d           0.940  -2.850   9.500  0.00  0.00     0.002 A 
ATOM     25  C6  <0> d           0.821  -2.146   8.318  0.00  0.00     0.030 A 
ENDBRANCH  17  19
ENDBRANCH   1  17
TORSDOF 5
