REMARK  3 active torsions:
REMARK  status: ('A' for Active; 'I' for Inactive)
REMARK    1  A    between atoms: C3_5  and  N3_7 
REMARK       I    between atoms: N3_7  and  C4_8 
REMARK    2  A    between atoms: C4_8  and  C5_10 
REMARK    3  A    between atoms: N5_14  and  C8_15 
ROOT
ATOM      1  C5  <0> d          -0.045  -0.014  -0.217  0.00  0.00     0.126 A 
ATOM      2  C6  <0> d           1.059  -0.821  -0.237  0.00  0.00     0.153 A 
ATOM      3  N4  <0> d           0.665  -2.059   0.062  0.00  0.00    -0.253 NA
ATOM      4  C7  <0> d          -0.628  -2.075   0.262  0.00  0.00     0.215 A 
ATOM      5  N5  <0> d          -1.116  -0.830   0.100  0.00  0.00    -0.300 N 
ENDROOT
BRANCH   1   6
ATOM      6  C4  <0> d          -0.086   1.427  -0.485  0.00  0.00     0.276 C 
ATOM      7  N3  <0> d           1.060   2.111  -0.672  0.00  0.00    -0.299 N 
ATOM      8  H4  <0> d           1.907   1.639  -0.702  0.00  0.00     0.171 HD
ATOM      9  O1  <0> d          -1.155   2.006  -0.534  0.00  0.00    -0.266 OA
BRANCH   7  10
ATOM     10  C3  <0> d           1.029   3.492  -0.821  0.00  0.00     0.196 A 
ATOM     11  N2  <0> d          -0.000   4.328  -0.813  0.00  0.00    -0.123 NA
ATOM     12  N1  <0> d           0.151   5.571  -0.964  0.00  0.00    -0.145 NA
ATOM     13  C2  <0> d           1.338   6.117  -1.140  0.00  0.00     0.097 A 
ATOM     14  C1  <0> d           1.720   7.562  -1.335  0.00  0.00     0.081 C 
ATOM     15  S1  <0> d           2.368   4.654  -1.072  0.00  0.00    -0.034 SA
ENDBRANCH   7  10
ENDBRANCH   1   6
BRANCH   5  16
ATOM     16  C8  <0> d          -2.455  -0.436   0.228  0.00  0.00     0.041 A 
ATOM     17  C13 <0> d          -3.437  -1.052  -0.537  0.00  0.00     0.033 A 
ATOM     18  C12 <0> d          -4.756  -0.663  -0.409  0.00  0.00     0.044 A 
ATOM     19  C11 <0> d          -5.099   0.341   0.481  0.00  0.00     0.116 A 
ATOM     20  C10 <0> d          -4.121   0.957   1.244  0.00  0.00     0.044 A 
ATOM     21  F1  <0> d          -6.390   0.721   0.604  0.00  0.00    -0.206 F 
ATOM     22  C9  <0> d          -2.802   0.567   1.123  0.00  0.00     0.033 A 
ENDBRANCH   5  16
TORSDOF 3
