REMARK  2 active torsions:
REMARK  status: ('A' for Active; 'I' for Inactive)
REMARK    1  A    between atoms: C4_6  and  N4_11 
REMARK    2  A    between atoms: C5_7  and  C6_8 
ROOT
ATOM      1  C1  <0> d          -2.365  -0.606  -1.366  0.00  0.00     0.051 C 
ATOM      2  C2  <0> d          -1.111  -1.021  -0.640  0.00  0.00    -0.019 A 
ATOM      3  C3  <0> d           0.141  -0.774  -1.179  0.00  0.00     0.060 A 
ATOM      4  N1  <0> d           1.227  -1.145  -0.529  0.00  0.00    -0.153 NA
ATOM      5  N2  <0> d           1.186  -1.739   0.607  0.00  0.00    -0.131 NA
ATOM      6  C4  <0> d           0.042  -2.025   1.213  0.00  0.00     0.162 A 
ATOM      7  C5  <0> d          -1.175  -1.664   0.603  0.00  0.00     0.057 A 
ATOM      8  C16 <0> d           0.262  -0.079  -2.511  0.00  0.00     0.073 C 
ENDROOT
BRANCH   6   9
ATOM      9  N4  <0> d           0.044  -2.668   2.439  0.00  0.00    -0.358 N 
ATOM     10  C11 <0> d           0.132  -4.130   2.522  0.00  0.00     0.090 C 
ATOM     11  C10 <0> d           1.319  -4.490   3.430  0.00  0.00     0.009 C 
ATOM     12  C12 <0> d           0.359  -4.734   1.138  0.00  0.00     0.026 C 
ATOM     13  C9  <0> d           1.126  -3.824   4.791  0.00  0.00     0.008 C 
ATOM     14  C15 <0> d           1.381  -6.010   3.577  0.00  0.00     0.007 C 
ATOM     15  C8  <0> d           1.111  -2.303   4.609  0.00  0.00     0.020 C 
ATOM     16  C7  <0> d          -0.049  -1.905   3.693  0.00  0.00     0.125 C 
ATOM     17  C14 <0> d           1.592  -6.642   2.194  0.00  0.00     0.001 C 
ATOM     18  C13 <0> d           0.439  -6.258   1.265  0.00  0.00     0.002 C 
ENDBRANCH   6   9
BRANCH   7  19
ATOM     19  C6  <0> d          -2.469  -1.958   1.246  0.00  0.00     0.109 C 
ATOM     20  S1  <0> d          -3.216  -0.782   2.241  0.00  0.00    -0.060 SA
ATOM     21  N3  <0> d          -3.064  -3.151   1.050  0.00  0.00    -0.389 N 
ATOM     22  H6  <0> d          -2.685  -3.784   0.420  0.00  0.00     0.157 HD
ATOM     23  H7  <0> d          -3.870  -3.377   1.540  0.00  0.00     0.157 HD
ENDBRANCH   7  19
TORSDOF 2
