REMARK  3 active torsions:
REMARK  status: ('A' for Active; 'I' for Inactive)
REMARK    1  A    between atoms: C4_4  and  C7_7 
REMARK    2  A    between atoms: C11_13  and  N5_22 
REMARK    3  A    between atoms: C12_15  and  N4_17 
ROOT
ATOM      1  C7  <0> d          -4.040   5.332  -1.656  0.00  0.00     0.175 C 
ATOM      2  C8  <0> d          -3.989   6.815  -1.278  0.00  0.00     0.070 C 
ATOM      3  C9  <0> d          -3.805   7.534  -2.628  0.00  0.00     0.108 C 
ATOM      4  C10 <0> d          -3.692   6.439  -3.663  0.00  0.00     0.241 C 
ATOM      5  O1  <0> d          -3.659   6.620  -4.861  0.00  0.00    -0.272 OA
ATOM      6  N1  <0> d          -3.633   5.246  -3.071  0.00  0.00    -0.116 N 
ATOM      7  C11 <0> d          -3.224   4.037  -3.609  0.00  0.00     0.721 C 
ATOM      8  N2  <0> d          -2.631   3.211  -2.758  0.00  0.00     0.126 NA
ATOM      9  C12 <0> d          -2.462   3.541  -1.467  0.00  0.00     0.716 C 
ATOM     10  N3  <0> d          -3.079   4.539  -0.886  0.00  0.00    -0.191 N 
ATOM     11  H20 <0> d          -2.873   4.774   0.169  0.00  0.00     0.180 HD
ENDROOT
BRANCH   1  12
ATOM     12  C4  <0> d          -5.431   4.780  -1.476  0.00  0.00    -0.008 A 
ATOM     13  C3  <0> d          -5.799   4.215  -0.269  0.00  0.00     0.011 A 
ATOM     14  C2  <0> d          -7.074   3.708  -0.104  0.00  0.00     0.001 A 
ATOM     15  C1  <0> d          -7.981   3.766  -1.145  0.00  0.00     0.000 A 
ATOM     16  C6  <0> d          -7.614   4.331  -2.352  0.00  0.00     0.001 A 
ATOM     17  C5  <0> d          -6.340   4.843  -2.516  0.00  0.00     0.011 A 
ENDBRANCH   1  12
BRANCH   7  18
ATOM     18  N5  <0> d          -3.417   3.719  -4.924  0.00  0.00    -0.232 N 
ATOM     19  H18 <0> d          -3.076   2.747  -5.310  0.00  0.00     0.174 HD
ATOM     20  H19 <0> d          -3.914   4.434  -5.596  0.00  0.00     0.174 HD
ENDBRANCH   7  18
BRANCH   9  21
ATOM     21  N4  <0> d          -1.592   2.783  -0.710  0.00  0.00    -0.216 N 
ATOM     22  C16 <0> d          -1.283   2.998   0.716  0.00  0.00     0.141 C 
ATOM     23  C15 <0> d          -0.802   1.617   1.234  0.00  0.00     0.022 C 
ATOM     24  C14 <0> d          -0.013   1.086   0.008  0.00  0.00     0.022 C 
ATOM     25  C13 <0> d          -0.821   1.627  -1.190  0.00  0.00     0.141 C 
ENDBRANCH   9  21
TORSDOF 3
