REMARK  4 active torsions:
REMARK  status: ('A' for Active; 'I' for Inactive)
REMARK    1  A    between atoms: C9_10  and  N4_26 
REMARK    2  A    between atoms: C10_12  and  C11_14 
REMARK    3  A    between atoms: C11_14  and  N3_15 
REMARK    4  A    between atoms: C15_19  and  C17_22 
ROOT
ATOM      1  C1  <0> d          -2.009   0.731   0.322  0.00  0.00     0.010 C 
ATOM      2  C2  <0> d          -1.528  -0.718   0.214  0.00  0.00    -0.014 C 
ATOM      3  C3  <0> d          -0.605  -0.864  -0.999  0.00  0.00     0.009 C 
ATOM      4  C4  <0> d          -0.321  -2.343  -1.259  0.00  0.00     0.041 C 
ATOM      5  C5  <0> d           0.187  -2.983   0.030  0.00  0.00    -0.028 A 
ATOM      6  C6  <0> d          -0.027  -2.386   1.225  0.00  0.00    -0.008 A 
ATOM      7  S1  <0> d           0.721  -3.460   2.425  0.00  0.00    -0.073 SA
ATOM      8  C7  <0> d           1.321  -4.704   1.329  0.00  0.00     0.114 A 
ATOM      9  C8  <0> d           0.915  -4.242   0.051  0.00  0.00     0.053 A 
ATOM     10  C9  <0> d           1.262  -5.053  -1.067  0.00  0.00     0.137 A 
ATOM     11  N1  <0> d           1.936  -6.167  -0.788  0.00  0.00    -0.214 NA
ATOM     12  C10 <0> d           2.280  -6.535   0.430  0.00  0.00     0.147 A 
ATOM     13  N2  <0> d           1.988  -5.825   1.514  0.00  0.00    -0.224 NA
ATOM     14  C18 <0> d          -0.746  -1.097   1.480  0.00  0.00     0.051 C 
ENDROOT
BRANCH  12  15
ATOM     15  C11 <0> d           3.042  -7.823   0.601  0.00  0.00     0.212 C 
BRANCH  15  16
ATOM     16  N3  <0> d           4.480  -7.554   0.527  0.00  0.00    -0.317 N 
ATOM     17  C16 <0> d           5.161  -7.262   1.651  0.00  0.00     0.263 A 
ATOM     18  C15 <0> d           6.542  -7.007   1.591  0.00  0.00     0.115 A 
ATOM     19  O1  <0> d           4.580  -7.222   2.724  0.00  0.00    -0.267 OA
ATOM     20  C14 <0> d           7.176  -7.050   0.385  0.00  0.00     0.023 A 
ATOM     21  C13 <0> d           6.438  -7.351  -0.768  0.00  0.00     0.018 A 
ATOM     22  C12 <0> d           5.110  -7.596  -0.675  0.00  0.00     0.095 A 
BRANCH  18  23
ATOM     23  C17 <0> d           7.312  -6.685   2.846  0.00  0.00     0.422 C 
ATOM     24  F1  <0> d           8.656  -6.468   2.525  0.00  0.00    -0.166 F 
ATOM     25  F2  <0> d           6.782  -5.533   3.436  0.00  0.00    -0.166 F 
ATOM     26  F3  <0> d           7.213  -7.755   3.741  0.00  0.00    -0.166 F 
ENDBRANCH  18  23
ENDBRANCH  15  16
ENDBRANCH  12  15
BRANCH  10  27
ATOM     27  N4  <0> d           0.921  -4.705  -2.361  0.00  0.00    -0.383 N 
ATOM     28  H14 <0> d           1.363  -5.134  -3.111  0.00  0.00     0.157 HD
ATOM     29  H15 <0> d           0.239  -4.033  -2.519  0.00  0.00     0.157 HD
ENDBRANCH  10  27
TORSDOF 4
