REMARK  3 active torsions:
REMARK  status: ('A' for Active; 'I' for Inactive)
REMARK    1  A    between atoms: C4_4  and  C9_14 
REMARK    2  A    between atoms: C6_6  and  N4_11 
REMARK    3  A    between atoms: C12_17  and  N6_20 
ROOT
ATOM      1  C1  <0> d          -0.018   1.503   0.010  0.00  0.00     0.072 C 
ATOM      2  C2  <0> d           0.002  -0.004   0.002  0.00  0.00     0.060 A 
ATOM      3  C3  <0> d          -1.064  -0.768   0.003  0.00  0.00     0.005 A 
ATOM      4  C4  <0> d          -2.535  -0.493  -0.141  0.00  0.00     0.101 C 
ATOM      5  C5  <0> d          -3.068  -1.530  -1.109  0.00  0.00     0.086 C 
ATOM      6  C6  <0> d          -2.345  -2.581  -1.509  0.00  0.00     0.216 C 
ATOM      7  N1  <0> d          -1.056  -2.852  -1.129  0.00  0.00    -0.342 N 
ATOM      8  C7  <0> d          -0.527  -2.199   0.076  0.00  0.00     0.263 A 
ATOM      9  N2  <0> d           0.921  -1.985   0.003  0.00  0.00    -0.162 NA
ATOM     10  N3  <0> d           1.127  -0.764  -0.013  0.00  0.00    -0.158 NA
ATOM     11  C8  <0> d          -4.399  -1.378  -1.616  0.00  0.00     0.100 C 
ATOM     12  N5  <0> d          -5.455  -1.258  -2.018  0.00  0.00    -0.192 NA
ATOM     13  H6  <0> d          -0.505  -3.461  -1.645  0.00  0.00     0.163 HD
ENDROOT
BRANCH   4  14
ATOM     14  C9  <0> d          -3.220  -0.628   1.194  0.00  0.00    -0.044 A 
ATOM     15  C14 <0> d          -3.889   0.451   1.740  0.00  0.00     0.011 A 
ATOM     16  C13 <0> d          -4.521   0.326   2.963  0.00  0.00     0.036 A 
ATOM     17  C12 <0> d          -4.476  -0.876   3.645  0.00  0.00     0.102 A 
ATOM     18  C11 <0> d          -3.802  -1.954   3.101  0.00  0.00     0.036 A 
ATOM     19  C10 <0> d          -3.174  -1.830   1.876  0.00  0.00     0.011 A 
BRANCH  17  20
ATOM     20  N6  <0> d          -5.149  -1.009   4.956  0.00  0.00    -0.116 N 
ATOM     21  O1  <0> d          -5.111  -2.061   5.552  0.00  0.00    -0.532 OA
ATOM     22  O2  <0> d          -5.739  -0.067   5.431  0.00  0.00    -0.532 OA
ENDBRANCH  17  20
ENDBRANCH   4  14
BRANCH   6  23
ATOM     23  N4  <0> d          -2.955  -3.480  -2.388  0.00  0.00    -0.033 N 
ATOM     24  H7  <0> d          -2.779  -3.193  -3.339  0.00  0.00     0.282 HD
ATOM     25  H8  <0> d          -2.577  -4.404  -2.240  0.00  0.00     0.282 HD
ATOM     26  H13 <0> d          -3.950  -3.493  -2.219  0.00  0.00     0.282 HD
ENDBRANCH   6  23
TORSDOF 3
