REMARK  5 active torsions:
REMARK  status: ('A' for Active; 'I' for Inactive)
REMARK    1  A    between atoms: N2_9  and  C9_12 
REMARK    2  A    between atoms: C9_12  and  C10_13 
REMARK       I    between atoms: C10_13  and  N3_15 
REMARK    3  A    between atoms: N3_15  and  C11_16 
REMARK    4  A    between atoms: C12_18  and  C14_21 
REMARK    5  A    between atoms: C14_21  and  N5_22 
ROOT
ATOM      1  C10 <0> d          -2.107   5.666   0.053  0.00  0.00     0.243 C 
ATOM      2  O2  <0> d          -0.985   6.126   0.045  0.00  0.00    -0.271 OA
ATOM      3  N3  <0> d          -2.288   4.330   0.047  0.00  0.00    -0.304 N 
ATOM      4  H8  <0> d          -3.306   3.913   0.054  0.00  0.00     0.171 HD
ENDROOT
BRANCH   3   5
ATOM      5  C11 <0> d          -1.188   3.480   0.032  0.00  0.00     0.173 A 
ATOM      6  S1  <0> d           0.501   3.882   0.018  0.00  0.00    -0.062 SA
ATOM      7  C13 <0> d           1.137   2.212   0.003  0.00  0.00     0.082 A 
ATOM      8  C12 <0> d          -0.018   1.503   0.010  0.00  0.00     0.069 A 
ATOM      9  N4  <0> d          -1.160   2.162   0.019  0.00  0.00    -0.227 NA
BRANCH   8  10
ATOM     10  C14 <0> d           0.002  -0.004   0.002  0.00  0.00     0.294 C 
BRANCH  10  11
ATOM     11  N5  <0> d          -0.099  -0.503   1.380  0.00  0.00    -0.066 N 
ATOM     12  C20 <0> d          -0.322  -1.966   1.400  0.00  0.00     0.235 C 
ATOM     13  C19 <0> d           0.957  -2.752   1.308  0.00  0.00     0.028 C 
ATOM     14  C18 <0> d           1.431  -3.086   2.738  0.00  0.00     0.002 C 
ATOM     15  C17 <0> d           2.082  -1.951   3.382  0.00  0.00     0.002 C 
ATOM     16  C16 <0> d           1.135  -0.741   3.526  0.00  0.00     0.028 C 
ATOM     17  C15 <0> d           1.047  -0.043   2.196  0.00  0.00     0.235 C 
ATOM     18  H24 <0> d          -0.990  -0.064   1.852  0.00  0.00     0.280 HD
ENDBRANCH  10  11
ENDBRANCH   8  10
ENDBRANCH   3   5
BRANCH   1  19
ATOM     19  C9  <0> d          -3.299   6.588   0.070  0.00  0.00     0.257 C 
BRANCH  19  20
ATOM     20  N2  <0> d          -2.841   7.979   0.073  0.00  0.00    -0.226 N 
ATOM     21  N1  <0> d          -2.623   8.619   1.294  0.00  0.00    -0.181 NA
ATOM     22  C7  <0> d          -2.211   9.849   1.378  0.00  0.00     0.151 A 
ATOM     23  C5  <0> d          -1.969  10.624   0.161  0.00  0.00    -0.001 A 
ATOM     24  C4  <0> d          -2.187  10.004  -1.090  0.00  0.00     0.045 A 
ATOM     25  C6  <0> d          -1.533  11.950   0.207  0.00  0.00     0.014 A 
ATOM     26  C3  <0> d          -1.965  10.721  -2.265  0.00  0.00     0.018 A 
ATOM     27  C8  <0> d          -2.646   8.610  -1.104  0.00  0.00     0.275 A 
ATOM     28  C2  <0> d          -1.535  12.027  -2.189  0.00  0.00     0.001 A 
ATOM     29  C1  <0> d          -1.322  12.633  -0.958  0.00  0.00     0.001 A 
ATOM     30  O1  <0> d          -2.848   8.033  -2.157  0.00  0.00    -0.266 OA
ENDBRANCH  19  20
ENDBRANCH   1  19
TORSDOF 5
