REMARK  5 active torsions:
REMARK  status: ('A' for Active; 'I' for Inactive)
REMARK    1  A    between atoms: C2_2  and  O1_4 
REMARK    2  A    between atoms: O1_4  and  C4_5 
REMARK    3  A    between atoms: C4_5  and  C5_6 
REMARK    4  A    between atoms: C4_5  and  C6_8 
REMARK    5  A    between atoms: C5_6  and  N1_7 
ROOT
ATOM      1  C6  <0> d           2.531  -1.587  -2.176  0.00  0.00    -0.025 A 
ATOM      2  C7  <0> d           1.988  -1.627  -3.447  0.00  0.00     0.013 A 
ATOM      3  C8  <0> d           2.450  -2.545  -4.370  0.00  0.00     0.040 A 
ATOM      4  C9  <0> d           3.462  -3.429  -4.025  0.00  0.00     0.102 A 
ATOM      5  C10 <0> d           4.010  -3.388  -2.748  0.00  0.00     0.102 A 
ATOM      6  C11 <0> d           3.543  -2.461  -1.827  0.00  0.00     0.049 A 
ATOM      7  O2  <0> d           5.008  -4.241  -2.391  0.00  0.00    -0.346 OA
ATOM      8  C12 <0> d           5.195  -5.395  -3.217  0.00  0.00     0.202 C 
ATOM      9  C13 <0> d           5.171  -4.945  -4.684  0.00  0.00     0.202 C 
ATOM     10  O3  <0> d           3.904  -4.330  -4.944  0.00  0.00    -0.346 OA
ENDROOT
BRANCH   1  11
ATOM     11  C4  <0> d           2.023  -0.586  -1.171  0.00  0.00     0.180 C 
BRANCH  11  12
ATOM     12  O1  <0> d           0.601  -0.485  -1.277  0.00  0.00    -0.375 OA
BRANCH  12  13
ATOM     13  C2  <0> d          -0.110  -1.426  -0.471  0.00  0.00     0.114 C 
ATOM     14  C1  <0> d          -0.356  -0.828   0.915  0.00  0.00     0.039 C 
ATOM     15  C3  <0> d          -1.452  -1.752  -1.132  0.00  0.00     0.039 C 
ENDBRANCH  12  13
ENDBRANCH  11  12
BRANCH  11  16
ATOM     16  C5  <0> d           2.653   0.780  -1.449  0.00  0.00     0.266 C 
BRANCH  16  17
ATOM     17  N1  <0> d           2.244   1.730  -0.406  0.00  0.00    -0.077 N 
ATOM     18  H11 <0> d           2.613   2.644  -0.619  0.00  0.00     0.274 HD
ATOM     19  H12 <0> d           1.236   1.775  -0.369  0.00  0.00     0.274 HD
ATOM     20  H20 <0> d           2.599   1.423   0.487  0.00  0.00     0.274 HD
ENDBRANCH  16  17
ENDBRANCH  11  16
ENDBRANCH   1  11
TORSDOF 5
