REMARK  6 active torsions:
REMARK  status: ('A' for Active; 'I' for Inactive)
REMARK    1  A    between atoms: C7_7  and  N1_8 
REMARK       I    between atoms: N1_8  and  C8_9 
REMARK    2  A    between atoms: C8_9  and  C9_11 
REMARK    3  A    between atoms: C9_11  and  O2_13 
REMARK    4  A    between atoms: O2_13  and  C11_14 
REMARK    5  A    between atoms: C11_14  and  C12_16 
REMARK    6  A    between atoms: N3_18  and  C16_23 
ROOT
ATOM      1  C11 <0> d          -4.604   1.812   0.953  0.00  0.00     0.310 C 
ATOM      2  O3  <0> d          -4.715   0.717   1.469  0.00  0.00    -0.258 OA
ENDROOT
BRANCH   1   3
ATOM      3  O2  <0> d          -3.496   2.115   0.246  0.00  0.00    -0.302 OA
BRANCH   3   4
ATOM      4  C9  <0> d          -2.478   1.085   0.142  0.00  0.00     0.220 C 
ATOM      5  C10 <0> d          -2.749   0.223  -1.093  0.00  0.00     0.050 C 
BRANCH   4   6
ATOM      6  C8  <0> d          -1.122   1.729   0.016  0.00  0.00     0.251 C 
ATOM      7  N1  <0> d          -0.011   0.966   0.007  0.00  0.00    -0.324 N 
ATOM      8  H10 <0> d          -0.097  -0.131   0.022  0.00  0.00     0.169 HD
ATOM      9  O1  <0> d          -1.030   2.935  -0.076  0.00  0.00    -0.270 OA
BRANCH   7  10
ATOM     10  C7  <0> d           1.252   1.568  -0.020  0.00  0.00     0.040 A 
ATOM     11  C2  <0> d           2.315   0.987   0.658  0.00  0.00    -0.035 A 
ATOM     12  C1  <0> d           2.110  -0.294   1.425  0.00  0.00     0.050 C 
ATOM     13  C3  <0> d           3.561   1.581   0.624  0.00  0.00     0.009 A 
ATOM     14  C4  <0> d           3.748   2.759  -0.075  0.00  0.00     0.001 A 
ATOM     15  C5  <0> d           2.690   3.344  -0.747  0.00  0.00     0.002 A 
ATOM     16  C6  <0> d           1.443   2.752  -0.722  0.00  0.00     0.030 A 
ENDBRANCH   7  10
ENDBRANCH   4   6
ENDBRANCH   3   4
ENDBRANCH   1   3
BRANCH   1  17
ATOM     17  C12 <0> d          -5.673   2.804   1.101  0.00  0.00     0.130 C 
ATOM     18  C15 <0> d          -6.907   2.453   1.887  0.00  0.00     0.077 C 
ATOM     19  C14 <0> d          -7.418   3.701   2.618  0.00  0.00     0.111 C 
ATOM     20  C13 <0> d          -7.463   4.856   1.649  0.00  0.00     0.240 C 
ATOM     21  N3  <0> d          -6.543   4.942   0.668  0.00  0.00    -0.232 N 
ATOM     22  O4  <0> d          -8.324   5.703   1.752  0.00  0.00    -0.272 OA
ATOM     23  N2  <0> d          -5.545   3.970   0.547  0.00  0.00    -0.168 NA
BRANCH  21  24
ATOM     24  C16 <0> d          -6.590   6.060  -0.277  0.00  0.00     0.128 C 
ATOM     25  C19 <0> d          -5.264   6.855  -0.197  0.00  0.00     0.167 C 
ATOM     26  S1  <0> d          -5.057   7.471  -1.917  0.00  0.00     0.146 S 
ATOM     27  C18 <0> d          -6.522   6.676  -2.704  0.00  0.00     0.142 C 
ATOM     28  O5  <0> d          -3.874   6.909  -2.470  0.00  0.00    -0.228 OA
ATOM     29  O6  <0> d          -5.234   8.881  -1.930  0.00  0.00    -0.228 OA
ATOM     30  C17 <0> d          -6.789   5.517  -1.702  0.00  0.00     0.043 C 
ENDBRANCH  21  24
ENDBRANCH   1  17
TORSDOF 6
