REMARK  7 active torsions:
REMARK  status: ('A' for Active; 'I' for Inactive)
REMARK    1  A    between atoms: C3_3  and  C10_12 
REMARK    2  A    between atoms: C10_12  and  C11_13 
REMARK       I    between atoms: C11_13  and  N2_15 
REMARK    3  A    between atoms: N2_15  and  C12_16 
REMARK    4  A    between atoms: C12_16  and  C13_17 
REMARK    5  A    between atoms: C15_20  and  C16_22 
REMARK    6  A    between atoms: C20_26  and  N4_28 
REMARK       I    between atoms: N4_28  and  C22_29 
REMARK    7  A    between atoms: C22_29  and  C23_31 
ROOT
ATOM      1  C13 <0> d           0.059  -3.848   2.981  0.00  0.00     0.084 A 
ATOM      2  C14 <0> d          -1.014  -4.658   2.994  0.00  0.00     0.078 A 
ATOM      3  O2  <0> d          -0.558  -5.926   2.986  0.00  0.00    -0.294 OA
ATOM      4  C15 <0> d           0.785  -5.877   2.978  0.00  0.00     0.180 A 
ATOM      5  N3  <0> d           1.157  -4.619   2.975  0.00  0.00    -0.224 NA
ATOM      6  C28 <0> d          -2.458  -4.228   3.010  0.00  0.00     0.079 C 
ENDROOT
BRANCH   1   7
ATOM      7  C12 <0> d           0.034  -2.341   2.979  0.00  0.00     0.184 C 
BRANCH   7   8
ATOM      8  N2  <0> d           0.017  -1.854   1.598  0.00  0.00    -0.355 N 
ATOM      9  C11 <0> d          -0.007  -0.529   1.350  0.00  0.00     0.222 C 
ATOM     10  O1  <0> d          -0.015   0.260   2.271  0.00  0.00    -0.273 OA
ATOM     11  H11 <0> d           0.023  -2.485   0.861  0.00  0.00     0.162 HD
BRANCH   9  12
ATOM     12  C10 <0> d          -0.025  -0.029  -0.071  0.00  0.00     0.144 C 
BRANCH  12  13
ATOM     13  C3  <0> d          -0.051   1.478  -0.073  0.00  0.00    -0.015 A 
ATOM     14  C2  <0> d          -1.143   2.258  -0.072  0.00  0.00     0.013 A 
ATOM     15  C1  <0> d          -2.564   1.757  -0.071  0.00  0.00     0.068 C 
ATOM     16  N1  <0> d          -0.775   3.576  -0.071  0.00  0.00    -0.359 N 
ATOM     17  C9  <0> d           0.598   3.679  -0.080  0.00  0.00     0.043 A 
ATOM     18  H1  <0> d          -1.390   4.327  -0.068  0.00  0.00     0.166 HD
ATOM     19  C4  <0> d           1.112   2.369  -0.081  0.00  0.00    -0.001 A 
ATOM     20  C8  <0> d           1.478   4.756  -0.087  0.00  0.00     0.030 A 
ATOM     21  C5  <0> d           2.493   2.163  -0.090  0.00  0.00     0.014 A 
ATOM     22  C6  <0> d           3.339   3.236  -0.097  0.00  0.00     0.001 A 
ATOM     23  C7  <0> d           2.837   4.530  -0.096  0.00  0.00     0.002 A 
ENDBRANCH  12  13
ENDBRANCH   9  12
ENDBRANCH   7   8
ENDBRANCH   1   7
BRANCH   4  24
ATOM     24  C16 <0> d           1.692  -7.045   2.974  0.00  0.00     0.019 A 
ATOM     25  C21 <0> d           1.167  -8.338   2.979  0.00  0.00     0.045 A 
ATOM     26  C20 <0> d           2.024  -9.428   2.974  0.00  0.00     0.035 A 
ATOM     27  C19 <0> d           3.399  -9.231   2.965  0.00  0.00     0.029 A 
ATOM     28  C18 <0> d           3.919  -7.950   2.960  0.00  0.00     0.003 A 
ATOM     29  C17 <0> d           3.075  -6.858   2.960  0.00  0.00     0.016 A 
BRANCH  26  30
ATOM     30  N4  <0> d           1.503 -10.726   2.978  0.00  0.00    -0.323 N 
ATOM     31  C22 <0> d           0.370 -10.996   3.656  0.00  0.00     0.258 C 
ATOM     32  O3  <0> d          -0.245 -10.095   4.195  0.00  0.00    -0.267 OA
ATOM     33  H18 <0> d           1.957 -11.433   2.493  0.00  0.00     0.169 HD
BRANCH  31  34
ATOM     34  C23 <0> d          -0.123 -12.381   3.746  0.00  0.00     0.063 A 
ATOM     35  C26 <0> d          -1.244 -12.818   4.389  0.00  0.00     0.064 A 
ATOM     36  O4  <0> d          -1.334 -14.142   4.230  0.00  0.00    -0.326 OA
ATOM     37  C27 <0> d          -2.217 -11.954   5.150  0.00  0.00     0.077 C 
ATOM     38  C25 <0> d          -0.308 -14.607   3.500  0.00  0.00     0.143 A 
ATOM     39  C24 <0> d           0.486 -13.582   3.154  0.00  0.00     0.044 A 
ENDBRANCH  31  34
ENDBRANCH  26  30
ENDBRANCH   4  24
TORSDOF 7
