REMARK  6 active torsions:
REMARK  status: ('A' for Active; 'I' for Inactive)
REMARK    1  A    between atoms: C9_9  and  C11_14 
REMARK    2  A    between atoms: C11_14  and  N2_15 
REMARK    3  A    between atoms: N2_15  and  C12_16 
REMARK       I    between atoms: N2_15  and  C16_20 
REMARK    4  A    between atoms: C12_16  and  C13_17 
REMARK    5  A    between atoms: C13_17  and  N4_31 
REMARK       I    between atoms: C16_20  and  N3_22 
REMARK    6  A    between atoms: N3_22  and  C17_23 
ROOT
ATOM      1  N2  <0> d           1.071  -2.747   1.345  0.00  0.00    -0.328 N 
ATOM      2  C16 <0> d          -0.146  -2.943   1.891  0.00  0.00     0.323 C 
ATOM      3  O2  <0> d          -1.148  -2.715   1.240  0.00  0.00    -0.247 OA
ATOM      4  N3  <0> d          -0.252  -3.391   3.157  0.00  0.00    -0.306 N 
ATOM      5  H21 <0> d           0.545  -3.634   3.654  0.00  0.00     0.171 HD
ENDROOT
BRANCH   1   6
ATOM      6  C11 <0> d           1.186  -2.259  -0.032  0.00  0.00     0.171 C 
BRANCH   6   7
ATOM      7  C9  <0> d           1.222  -0.753  -0.030  0.00  0.00     0.029 A 
ATOM      8  C8  <0> d           2.414  -0.106  -0.044  0.00  0.00     0.028 A 
ATOM      9  C6  <0> d           2.414   1.359  -0.043  0.00  0.00    -0.008 A 
ATOM     10  C5  <0> d           1.184   2.041  -0.027  0.00  0.00     0.045 A 
ATOM     11  C7  <0> d           3.612   2.082  -0.057  0.00  0.00     0.020 A 
ATOM     12  C4  <0> d           1.174   3.432  -0.025  0.00  0.00     0.031 A 
ATOM     13  N1  <0> d           0.006   1.324  -0.013  0.00  0.00    -0.322 N 
ATOM     14  C3  <0> d           2.366   4.124  -0.040  0.00  0.00     0.009 A 
ATOM     15  C2  <0> d           3.578   3.447  -0.056  0.00  0.00    -0.061 A 
ATOM     16  C1  <0> d           4.868   4.226  -0.071  0.00  0.00     0.048 C 
ATOM     17  C10 <0> d           0.016  -0.021  -0.014  0.00  0.00     0.253 A 
ATOM     18  H1  <0> d          -0.867   1.811  -0.002  0.00  0.00     0.169 HD
ATOM     19  O1  <0> d          -1.044  -0.622  -0.002  0.00  0.00    -0.268 OA
ENDBRANCH   6   7
ENDBRANCH   1   6
BRANCH   1  20
ATOM     20  C12 <0> d           2.278  -3.021   2.128  0.00  0.00     0.155 C 
BRANCH  20  21
ATOM     21  C13 <0> d           2.695  -1.756   2.882  0.00  0.00     0.254 C 
BRANCH  21  22
ATOM     22  N4  <0> d           3.901  -2.055   3.683  0.00  0.00    -0.077 N 
ATOM     23  C14 <0> d           5.051  -2.309   2.790  0.00  0.00     0.269 C 
ATOM     24  C15 <0> d           4.201  -0.922   4.584  0.00  0.00     0.269 C 
ATOM     25  H26 <0> d           3.726  -2.894   4.249  0.00  0.00     0.279 HD
ENDBRANCH  21  22
ENDBRANCH  20  21
ENDBRANCH   1  20
BRANCH   4  26
ATOM     26  C17 <0> d          -1.513  -3.506   3.756  0.00  0.00     0.075 A 
ATOM     27  C22 <0> d          -1.665  -3.250   5.114  0.00  0.00     0.143 A 
ATOM     28  C21 <0> d          -2.912  -3.365   5.701  0.00  0.00     0.044 A 
ATOM     29  F1  <0> d          -0.598  -2.888   5.858  0.00  0.00    -0.204 F 
ATOM     30  C20 <0> d          -4.005  -3.735   4.939  0.00  0.00     0.003 A 
ATOM     31  C19 <0> d          -3.855  -3.990   3.589  0.00  0.00     0.002 A 
ATOM     32  C18 <0> d          -2.614  -3.872   2.994  0.00  0.00     0.033 A 
ENDBRANCH   4  26
TORSDOF 6
