REMARK  5 active torsions:
REMARK  status: ('A' for Active; 'I' for Inactive)
REMARK    1  A    between atoms: C7_7  and  C9_11 
REMARK    2  A    between atoms: C9_11  and  C10_12 
REMARK    3  A    between atoms: C10_12  and  N2_13 
REMARK       I    between atoms: N2_13  and  C11_14 
REMARK       I    between atoms: C11_14  and  N3_16 
REMARK    4  A    between atoms: N3_16  and  C12_17 
REMARK    5  A    between atoms: C15_20  and  N4_24 
ROOT
ATOM      1  N2  <0> d           0.723  -4.978  -2.396  0.00  0.00    -0.343 N 
ATOM      2  C11 <0> d           0.856  -6.309  -2.558  0.00  0.00     0.320 C 
ATOM      3  O2  <0> d           1.410  -6.973  -1.704  0.00  0.00    -0.247 OA
ATOM      4  N3  <0> d           0.374  -6.904  -3.667  0.00  0.00    -0.309 N 
ATOM      5  H11 <0> d           0.281  -4.448  -3.078  0.00  0.00     0.164 HD
ATOM      6  H12 <0> d          -0.123  -6.385  -4.319  0.00  0.00     0.170 HD
ENDROOT
BRANCH   1   7
ATOM      7  C10 <0> d           1.247  -4.331  -1.190  0.00  0.00     0.125 C 
BRANCH   7   8
ATOM      8  C9  <0> d           0.968  -2.828  -1.256  0.00  0.00     0.039 C 
BRANCH   8   9
ATOM      9  C7  <0> d           1.515  -2.152   0.004  0.00  0.00     0.115 A 
ATOM     10  C5  <0> d           1.145  -0.687   0.022  0.00  0.00    -0.018 A 
ATOM     11  C4  <0> d           2.341   0.018   0.021  0.00  0.00     0.042 A 
ATOM     12  C6  <0> d          -0.064  -0.027   0.037  0.00  0.00     0.010 A 
ATOM     13  C3  <0> d           2.303   1.411   0.035  0.00  0.00     0.030 A 
ATOM     14  N1  <0> d           3.421  -0.864   0.003  0.00  0.00    -0.326 N 
ATOM     15  C2  <0> d           1.091   2.071   0.051  0.00  0.00     0.002 A 
ATOM     16  C1  <0> d          -0.094   1.357   0.052  0.00  0.00     0.001 A 
ATOM     17  C8  <0> d           3.029  -2.149  -0.008  0.00  0.00     0.231 A 
ATOM     18  H6  <0> d           4.350  -0.583  -0.001  0.00  0.00     0.169 HD
ATOM     19  O1  <0> d           3.751  -3.123  -0.024  0.00  0.00    -0.272 OA
ENDBRANCH   8   9
ENDBRANCH   7   8
ENDBRANCH   1   7
BRANCH   4  20
ATOM     20  C12 <0> d           0.592  -8.271  -3.879  0.00  0.00     0.038 A 
ATOM     21  C17 <0> d           0.604  -9.147  -2.802  0.00  0.00     0.056 A 
ATOM     22  C16 <0> d           0.812 -10.497  -3.012  0.00  0.00     0.065 A 
ATOM     23  C15 <0> d           1.021 -10.975  -4.300  0.00  0.00     0.079 A 
ATOM     24 Cl1  <0> d           0.820 -11.594  -1.667  0.00  0.00    -0.082 Cl
ATOM     25  C14 <0> d           1.014 -10.097  -5.376  0.00  0.00     0.036 A 
ATOM     26  C13 <0> d           0.800  -8.750  -5.166  0.00  0.00     0.032 A 
BRANCH  23  27
ATOM     27  N4  <0> d           1.238 -12.344  -4.513  0.00  0.00    -0.244 N 
ATOM     28  N5  <0> d           0.457 -13.391  -4.006  0.00  0.00    -0.180 NA
ATOM     29  C20 <0> d           0.969 -14.522  -4.423  0.00  0.00     0.140 A 
ATOM     30  C19 <0> d           2.097 -14.233  -5.199  0.00  0.00     0.040 A 
ATOM     31  C18 <0> d           2.241 -12.887  -5.239  0.00  0.00     0.120 A 
ENDBRANCH  23  27
ENDBRANCH   4  20
TORSDOF 5
