REMARK  4 active torsions:
REMARK  status: ('A' for Active; 'I' for Inactive)
REMARK    1  A    between atoms: N1_5  and  C5_7 
REMARK    2  A    between atoms: C5_7  and  N3_8 
REMARK    3  A    between atoms: C8_11  and  C9_13 
REMARK       I    between atoms: C9_13  and  N5_15 
REMARK    4  A    between atoms: N5_15  and  C10_16 
ROOT
ATOM      1  N3  <0> d           1.963  -2.327  -1.418  0.00  0.00    -0.260 N 
ATOM      2  C6  <0> d           3.026  -3.001  -1.908  0.00  0.00     0.117 A 
ATOM      3  C7  <0> d           2.723  -3.360  -3.177  0.00  0.00     0.058 A 
ATOM      4  C8  <0> d           1.424  -2.852  -3.414  0.00  0.00     0.146 A 
ATOM      5  N4  <0> d           1.040  -2.245  -2.308  0.00  0.00    -0.166 NA
ENDROOT
BRANCH   4   6
ATOM      6  C9  <0> d           0.645  -2.976  -4.663  0.00  0.00     0.276 C 
ATOM      7  O1  <0> d           1.117  -3.564  -5.617  0.00  0.00    -0.266 OA
ATOM      8  N5  <0> d          -0.588  -2.438  -4.745  0.00  0.00    -0.322 N 
ATOM      9  H8  <0> d          -1.049  -1.982  -3.857  0.00  0.00     0.169 HD
BRANCH   8  10
ATOM     10  C10 <0> d          -1.278  -2.459  -5.957  0.00  0.00     0.037 A 
ATOM     11  C14 <0> d          -2.668  -2.562  -5.986  0.00  0.00     0.049 A 
ATOM     12  C13 <0> d          -3.314  -2.579  -7.204  0.00  0.00     0.118 A 
ATOM     13  N6  <0> d          -2.633  -2.500  -8.332  0.00  0.00    -0.273 NA
ATOM     14  C12 <0> d          -1.317  -2.401  -8.346  0.00  0.00     0.118 A 
ATOM     15  C11 <0> d          -0.597  -2.372  -7.170  0.00  0.00     0.049 A 
ENDBRANCH   8  10
ENDBRANCH   4   6
BRANCH   1  16
ATOM     16  C5  <0> d           1.877  -1.764  -0.068  0.00  0.00     0.300 C 
BRANCH  16  17
ATOM     17  N1  <0> d           1.570  -0.335  -0.154  0.00  0.00    -0.253 N 
ATOM     18  C4  <0> d           2.471   0.668  -0.228  0.00  0.00     0.048 A 
ATOM     19  C3  <0> d           1.786   1.834  -0.292  0.00  0.00     0.060 A 
ATOM     20  C15 <0> d           3.970   0.517  -0.237  0.00  0.00     0.071 C 
ATOM     21  C2  <0> d           0.420   1.533  -0.256  0.00  0.00     0.070 A 
ATOM     22 Br1  <0> d           2.541   3.564  -0.409  0.00  0.00    -0.047 Br
ATOM     23  C1  <0> d          -0.707   2.532  -0.310  0.00  0.00     0.074 C 
ATOM     24  N2  <0> d           0.290   0.234  -0.173  0.00  0.00    -0.174 NA
ENDBRANCH  16  17
ENDBRANCH   1  16
TORSDOF 4
