REMARK  8 active torsions:
REMARK  status: ('A' for Active; 'I' for Inactive)
REMARK    1  A    between atoms: C2_2  and  N1_3 
REMARK    2  A    between atoms: N1_3  and  C3_4 
REMARK    3  A    between atoms: N1_3  and  C10_16 
REMARK    4  A    between atoms: C3_4  and  C4_5 
REMARK       I    between atoms: C4_5  and  N2_7 
REMARK    5  A    between atoms: N2_7  and  C5_8 
REMARK    6  A    between atoms: C6_9  and  C9_13 
REMARK       I    between atoms: C9_13  and  N3_15 
REMARK    7  A    between atoms: C10_16  and  C12_18 
REMARK    8  A    between atoms: C16_22  and  O3_24 
ROOT
ATOM      1  C3  <0> d           0.731  -1.761  -1.764  0.00  0.00     0.338 C 
ENDROOT
BRANCH   1   2
ATOM      2  N1  <0> d           0.808  -0.322  -1.478  0.00  0.00    -0.055 N 
ATOM      3  H24 <0> d           0.588   0.199  -2.314  0.00  0.00     0.281 HD
BRANCH   2   4
ATOM      4  C2  <0> d          -0.154   0.019  -0.422  0.00  0.00     0.232 C 
ATOM      5  C1  <0> d           0.248  -0.679   0.879  0.00  0.00     0.034 C 
ENDBRANCH   2   4
BRANCH   2   6
ATOM      6  C10 <0> d           2.166   0.016  -1.033  0.00  0.00     0.217 C 
ATOM      7  C11 <0> d           2.239   1.510  -0.709  0.00  0.00     0.045 C 
BRANCH   6   8
ATOM      8  C12 <0> d           3.150  -0.309  -2.128  0.00  0.00    -0.025 A 
ATOM      9  C17 <0> d           4.370  -0.873  -1.813  0.00  0.00     0.045 A 
ATOM     10  C16 <0> d           5.273  -1.178  -2.822  0.00  0.00     0.068 A 
ATOM     11  C15 <0> d           4.951  -0.904  -4.143  0.00  0.00     0.037 A 
ATOM     12  C14 <0> d           3.731  -0.334  -4.452  0.00  0.00     0.003 A 
ATOM     13  C13 <0> d           2.831  -0.037  -3.446  0.00  0.00     0.009 A 
BRANCH  10  14
ATOM     14  O3  <0> d           6.473  -1.738  -2.515  0.00  0.00    -0.356 OA
ATOM     15  C18 <0> d           7.354  -2.020  -3.604  0.00  0.00     0.210 C 
ENDBRANCH  10  14
ENDBRANCH   6   8
ENDBRANCH   2   6
ENDBRANCH   1   2
BRANCH   1  16
ATOM     16  C4  <0> d          -0.624  -2.088  -2.337  0.00  0.00     0.248 C 
ATOM     17  O1  <0> d          -1.445  -1.208  -2.492  0.00  0.00    -0.271 OA
ATOM     18  N2  <0> d          -0.924  -3.357  -2.677  0.00  0.00    -0.319 N 
ATOM     19  H9  <0> d          -0.268  -4.060  -2.553  0.00  0.00     0.169 HD
BRANCH  18  20
ATOM     20  C5  <0> d          -2.171  -3.658  -3.204  0.00  0.00     0.092 A 
ATOM     21  S1  <0> d          -3.445  -2.608  -3.501  0.00  0.00    -0.083 SA
ATOM     22  C8  <0> d          -4.642  -3.746  -4.162  0.00  0.00     0.053 A 
ATOM     23  C7  <0> d          -4.000  -4.929  -4.122  0.00  0.00     0.027 A 
ATOM     24  C6  <0> d          -2.653  -4.896  -3.602  0.00  0.00     0.066 A 
BRANCH  24  25
ATOM     25  C9  <0> d          -1.836  -6.110  -3.501  0.00  0.00     0.252 C 
ATOM     26  O2  <0> d          -0.704  -6.046  -3.059  0.00  0.00    -0.268 OA
ATOM     27  N3  <0> d          -2.339  -7.295  -3.897  0.00  0.00    -0.366 N 
ATOM     28  H12 <0> d          -3.241  -7.346  -4.250  0.00  0.00     0.159 HD
ATOM     29  H13 <0> d          -1.799  -8.098  -3.830  0.00  0.00     0.159 HD
ENDBRANCH  24  25
ENDBRANCH  18  20
ENDBRANCH   1  16
TORSDOF 8
