REMARK  7 active torsions:
REMARK  status: ('A' for Active; 'I' for Inactive)
REMARK    1  A    between atoms: C2_2  and  N1_3 
REMARK    2  A    between atoms: N2_6  and  C7_9 
REMARK    3  A    between atoms: C7_9  and  C8_10 
REMARK    4  A    between atoms: C11_13  and  C14_16 
REMARK    5  A    between atoms: C14_16  and  N3_17 
REMARK    6  A    between atoms: N3_17  and  C15_18 
REMARK    7  A    between atoms: C15_18  and  C16_19 
ROOT
ATOM      1  C8  <0> d           1.361  -4.037  -4.848  0.00  0.00    -0.030 A 
ATOM      2  C9  <0> d           2.369  -4.792  -4.277  0.00  0.00     0.009 A 
ATOM      3  C10 <0> d           2.297  -6.172  -4.300  0.00  0.00     0.009 A 
ATOM      4  C11 <0> d           1.217  -6.798  -4.894  0.00  0.00    -0.033 A 
ATOM      5  C12 <0> d           0.208  -6.044  -5.464  0.00  0.00     0.009 A 
ATOM      6  C13 <0> d           0.278  -4.664  -5.437  0.00  0.00     0.009 A 
ENDROOT
BRANCH   4   7
ATOM      7  C14 <0> d           1.139  -8.303  -4.919  0.00  0.00     0.271 C 
BRANCH   7   8
ATOM      8  N3  <0> d           0.441  -8.778  -3.717  0.00  0.00    -0.067 N 
ATOM      9  H23 <0> d           0.946  -8.481  -2.896  0.00  0.00     0.277 HD
ATOM     10  H33 <0> d          -0.492  -8.393  -3.696  0.00  0.00     0.277 HD
BRANCH   8  11
ATOM     11  C15 <0> d           0.365 -10.245  -3.742  0.00  0.00     0.275 C 
BRANCH  11  12
ATOM     12  C16 <0> d          -0.351 -10.732  -2.509  0.00  0.00     0.017 A 
ATOM     13  C18 <0> d          -1.730 -10.937  -2.385  0.00  0.00     0.060 A 
ATOM     14  N5  <0> d          -1.972 -11.364  -1.173  0.00  0.00    -0.179 NA
ATOM     15  C19 <0> d          -2.757 -10.709  -3.463  0.00  0.00     0.073 C 
ATOM     16  N4  <0> d          -0.755 -11.435  -0.482  0.00  0.00    -0.282 N 
ATOM     17  C17 <0> d           0.224 -11.042  -1.324  0.00  0.00     0.034 A 
ATOM     18  H1  <0> d          -0.636 -11.717   0.438  0.00  0.00     0.189 HD
ATOM     19  C20 <0> d           1.694 -10.963  -1.003  0.00  0.00     0.070 C 
ENDBRANCH  11  12
ENDBRANCH   8  11
ENDBRANCH   7   8
ENDBRANCH   4   7
BRANCH   1  20
ATOM     20  C7  <0> d           1.439  -2.533  -4.824  0.00  0.00     0.311 C 
BRANCH  20  21
ATOM     21  N2  <0> d           0.796  -2.029  -3.603  0.00  0.00     0.095 N 
ATOM     22  C4  <0> d           0.641  -0.568  -3.654  0.00  0.00     0.300 C 
ATOM     23  C3  <0> d          -0.085  -0.091  -2.393  0.00  0.00     0.265 C 
ATOM     24  N1  <0> d           0.690  -0.478  -1.207  0.00  0.00    -0.068 N 
ATOM     25  C6  <0> d           0.815  -1.940  -1.157  0.00  0.00     0.265 C 
ATOM     26  H32 <0> d           1.608  -0.063  -1.255  0.00  0.00     0.280 HD
ATOM     27  C5  <0> d           1.548  -2.433  -2.406  0.00  0.00     0.300 C 
BRANCH  24  28
ATOM     28  C2  <0> d           0.002  -0.004   0.002  0.00  0.00     0.230 C 
ATOM     29  C1  <0> d          -0.019   1.526   0.010  0.00  0.00     0.034 C 
ENDBRANCH  24  28
ENDBRANCH  20  21
ENDBRANCH   1  20
TORSDOF 7
