REMARK  4 active torsions:
REMARK  status: ('A' for Active; 'I' for Inactive)
REMARK    1  A    between atoms: N1_2  and  C2_3 
REMARK    2  A    between atoms: C6_8  and  N2_9 
REMARK    3  A    between atoms: N2_9  and  C8_11 
REMARK    4  A    between atoms: C8_11  and  C9_12 
ROOT
ATOM      1  C2  <0> d          -1.376  -0.512   0.012  0.00  0.00     0.222 C 
ATOM      2  C3  <0> d          -2.079  -0.114  -1.289  0.00  0.00     0.061 C 
ATOM      3  C4  <0> d          -3.487  -0.715  -1.304  0.00  0.00     0.169 C 
ATOM      4  O1  <0> d          -3.400  -2.135  -1.166  0.00  0.00    -0.389 OA
ATOM      5  C5  <0> d          -2.794  -2.566   0.054  0.00  0.00     0.205 C 
ATOM      6  C6  <0> d          -1.358  -2.040   0.125  0.00  0.00     0.276 C 
ENDROOT
BRANCH   6   7
ATOM      7  N2  <0> d          -0.753  -2.430   1.406  0.00  0.00     0.097 N 
ATOM      8  C7  <0> d          -1.592  -2.007   2.535  0.00  0.00     0.310 C 
BRANCH   7   9
ATOM      9  C8  <0> d          -0.502  -3.877   1.450  0.00  0.00     0.311 C 
BRANCH   9  10
ATOM     10  C9  <0> d           0.334  -4.205   2.661  0.00  0.00    -0.027 A 
ATOM     11  C13 <0> d          -0.263  -4.512   3.874  0.00  0.00     0.028 A 
ATOM     12  C12 <0> d           0.535  -4.813   4.960  0.00  0.00     0.116 A 
ATOM     13  N3  <0> d           1.850  -4.800   4.856  0.00  0.00    -0.273 NA
ATOM     14  C11 <0> d           2.452  -4.507   3.720  0.00  0.00     0.116 A 
ATOM     15  C10 <0> d           1.719  -4.201   2.589  0.00  0.00     0.028 A 
ENDBRANCH   9  10
ENDBRANCH   7   9
ENDBRANCH   6   7
BRANCH   1  16
ATOM     16  N1  <0> d           0.002  -0.004   0.002  0.00  0.00    -0.072 N 
ATOM     17  C1  <0> d          -0.018   1.465   0.010  0.00  0.00     0.267 C 
ATOM     18  H6  <0> d           0.474  -0.330  -0.828  0.00  0.00     0.277 HD
ATOM     19  H22 <0> d           0.490  -0.338   0.820  0.00  0.00     0.277 HD
ENDBRANCH   1  16
TORSDOF 4
