REMARK  5 active torsions:
REMARK  status: ('A' for Active; 'I' for Inactive)
REMARK    1  A    between atoms: C2_2  and  C3_3 
REMARK    2  A    between atoms: C2_2  and  N3_13 
REMARK       I    between atoms: C3_3  and  N1_5 
REMARK    3  A    between atoms: N1_5  and  C4_6 
REMARK    4  A    between atoms: C4_6  and  C5_7 
REMARK    5  A    between atoms: C5_7  and  C6_8 
ROOT
ATOM      1  C1  <0> d           3.502   3.229   1.235  0.00  0.00     0.043 C 
ATOM      2  C2  <0> d           3.503   2.353  -0.019  0.00  0.00     0.181 C 
ENDROOT
BRANCH   2   3
ATOM      3  C3  <0> d           3.479   3.229  -1.244  0.00  0.00     0.240 C 
ATOM      4  O1  <0> d           2.563   3.142  -2.034  0.00  0.00    -0.271 OA
ATOM      5  N1  <0> d           4.476   4.110  -1.462  0.00  0.00    -0.359 N 
ATOM      6  H5  <0> d           5.306   4.189  -0.746  0.00  0.00     0.162 HD
BRANCH   5   7
ATOM      7  C4  <0> d           4.452   4.962  -2.654  0.00  0.00     0.129 C 
BRANCH   7   8
ATOM      8  C5  <0> d           5.689   5.863  -2.661  0.00  0.00     0.086 C 
BRANCH   8   9
ATOM      9  C6  <0> d           5.665   6.739  -3.886  0.00  0.00     0.076 A 
ATOM     10  S1  <0> d           6.330   6.432  -5.461  0.00  0.00    -0.085 SA
ATOM     11  C8  <0> d           5.835   7.969  -6.225  0.00  0.00     0.070 A 
ATOM     12  C7  <0> d           5.202   8.572  -5.186  0.00  0.00     0.124 A 
ATOM     13  N2  <0> d           5.131   7.929  -4.039  0.00  0.00    -0.258 NA
ENDBRANCH   8   9
ENDBRANCH   7   8
ENDBRANCH   5   7
ENDBRANCH   2   3
BRANCH   2  14
ATOM     14  N3  <0> d           2.319   1.490  -0.012  0.00  0.00    -0.294 N 
ATOM     15  C16 <0> d           2.469   0.145  -0.021  0.00  0.00     0.262 A 
ATOM     16  C15 <0> d           1.246  -0.672  -0.013  0.00  0.00     0.061 A 
ATOM     17  O2  <0> d           3.572  -0.368  -0.034  0.00  0.00    -0.267 OA
ATOM     18  C10 <0> d           0.002  -0.004   0.002  0.00  0.00     0.073 A 
ATOM     19  C14 <0> d           1.291  -2.065  -0.022  0.00  0.00     0.019 A 
ATOM     20  N4  <0> d          -0.016   1.352   0.009  0.00  0.00    -0.243 NA
ATOM     21  C11 <0> d          -1.177  -0.753   0.009  0.00  0.00     0.032 A 
ATOM     22  C9  <0> d           1.080   2.048   0.003  0.00  0.00     0.214 A 
ATOM     23  C12 <0> d          -1.111  -2.128   0.000  0.00  0.00     0.002 A 
ATOM     24  C13 <0> d           0.114  -2.782  -0.015  0.00  0.00     0.001 A 
ENDBRANCH   2  14
TORSDOF 5
