REMARK  3 active torsions:
REMARK  status: ('A' for Active; 'I' for Inactive)
REMARK    1  A    between atoms: C5_6  and  O2_18 
REMARK    2  A    between atoms: C6_7  and  C8_10 
REMARK    3  A    between atoms: C8_10  and  N2_11 
ROOT
ATOM      1  C1  <0> d          -0.107   1.372  -0.190  0.00  0.00     0.068 C 
ATOM      2  C2  <0> d           0.051  -0.127  -0.173  0.00  0.00     0.011 A 
ATOM      3  C3  <0> d           0.158  -0.800  -1.341  0.00  0.00     0.082 A 
ATOM      4  C4  <0> d           0.306  -2.205  -1.319  0.00  0.00     0.208 A 
ATOM      5  O1  <0> d           0.405  -2.839  -2.360  0.00  0.00    -0.285 OA
ATOM      6  C5  <0> d           0.337  -2.865  -0.064  0.00  0.00     0.140 A 
ATOM      7  C6  <0> d           0.225  -2.134   1.070  0.00  0.00     0.075 A 
ATOM      8  N1  <0> d           0.089  -0.783   1.011  0.00  0.00    -0.355 N 
ATOM      9  C7  <0> d          -0.023  -0.020   2.256  0.00  0.00     0.156 C 
ENDROOT
BRANCH   7  10
ATOM     10  C8  <0> d           0.256  -2.823   2.410  0.00  0.00     0.294 C 
BRANCH  10  11
ATOM     11  N2  <0> d           1.479  -2.442   3.128  0.00  0.00    -0.065 N 
ATOM     12  C13 <0> d           1.453  -3.019   4.477  0.00  0.00     0.239 C 
ATOM     13  C12 <0> d           2.685  -2.558   5.258  0.00  0.00     0.007 C 
ATOM     14  C11 <0> d           3.949  -3.022   4.527  0.00  0.00     0.007 C 
ATOM     15  C14 <0> d           2.657  -3.163   6.663  0.00  0.00     0.011 C 
ATOM     16  C10 <0> d           3.929  -2.475   3.097  0.00  0.00     0.028 C 
ATOM     17  C9  <0> d           2.650  -2.939   2.397  0.00  0.00     0.235 C 
ATOM     18  H23 <0> d           1.529  -1.436   3.195  0.00  0.00     0.280 HD
ENDBRANCH  10  11
ENDBRANCH   7  10
BRANCH   6  19
ATOM     19  O2  <0> d           0.478  -4.218  -0.001  0.00  0.00    -0.355 OA
ATOM     20  H22 <0> d           0.549  -4.646  -0.864  0.00  0.00     0.218 HD
ENDBRANCH   6  19
TORSDOF 3
