REMARK  3 active torsions:
REMARK  status: ('A' for Active; 'I' for Inactive)
REMARK    1  A    between atoms: C3_3  and  N1_24 
REMARK    2  A    between atoms: C6_6  and  C7_7 
REMARK    3  A    between atoms: C7_7  and  N2_27 
ROOT
ATOM      1  C8  <0> d          -0.425   4.895  -2.920  0.00  0.00     0.261 C 
ATOM      2  C9  <0> d          -1.050   3.535  -2.605  0.00  0.00     0.195 C 
ATOM      3  O1  <0> d          -0.366   2.942  -1.498  0.00  0.00    -0.387 OA
ATOM      4  C10 <0> d          -0.753   1.593  -1.232  0.00  0.00     0.193 C 
ATOM      5  C11 <0> d          -0.013   1.086   0.008  0.00  0.00     0.193 C 
ATOM      6  O2  <0> d          -0.682   1.547   1.184  0.00  0.00    -0.387 OA
ATOM      7  C12 <0> d          -0.034   1.179   2.403  0.00  0.00     0.195 C 
ATOM      8  C13 <0> d          -0.837   1.716   3.590  0.00  0.00     0.258 C 
ATOM      9  C14 <0> d          -1.163   3.954   4.453  0.00  0.00     0.258 C 
ATOM     10  C15 <0> d          -0.529   5.334   4.271  0.00  0.00     0.195 C 
ATOM     11  O3  <0> d          -1.391   6.153   3.478  0.00  0.00    -0.387 OA
ATOM     12  C16 <0> d          -0.731   7.254   2.849  0.00  0.00     0.193 C 
ATOM     13  C17 <0> d          -1.541   7.706   1.632  0.00  0.00     0.193 C 
ATOM     14  O4  <0> d          -0.744   7.571   0.453  0.00  0.00    -0.387 OA
ATOM     15  C18 <0> d          -1.490   7.644  -0.763  0.00  0.00     0.195 C 
ATOM     16  C19 <0> d          -0.648   7.085  -1.912  0.00  0.00     0.261 C 
ATOM     17  N2  <0> d          -1.377   5.952  -2.520  0.00  0.00    -0.063 N 
ATOM     18  H31 <0> d          -2.032   5.567  -1.828  0.00  0.00     0.280 HD
ATOM     19  N3  <0> d          -0.168   2.916   4.125  0.00  0.00    -0.071 N 
ATOM     20  H32 <0> d           0.484   3.283   3.422  0.00  0.00     0.277 HD
ATOM     21  H33 <0> d           0.351   2.664   4.975  0.00  0.00     0.277 HD
ENDROOT
BRANCH  17  22
ATOM     22  C7  <0> d          -2.141   6.417  -3.697  0.00  0.00     0.273 C 
BRANCH  22  23
ATOM     23  C6  <0> d          -3.248   7.326  -3.230  0.00  0.00    -0.032 A 
ATOM     24  C1  <0> d          -4.483   6.800  -2.901  0.00  0.00     0.011 A 
ATOM     25  C2  <0> d          -5.497   7.634  -2.469  0.00  0.00     0.037 A 
ATOM     26  C3  <0> d          -5.280   8.995  -2.375  0.00  0.00     0.102 A 
ATOM     27  C4  <0> d          -4.046   9.523  -2.709  0.00  0.00     0.037 A 
ATOM     28  C5  <0> d          -3.031   8.688  -3.136  0.00  0.00     0.011 A 
BRANCH  26  29
ATOM     29  N1  <0> d          -6.367   9.889  -1.917  0.00  0.00    -0.116 N 
ATOM     30  O5  <0> d          -6.175  11.089  -1.835  0.00  0.00    -0.532 OA
ATOM     31  O6  <0> d          -7.454   9.425  -1.623  0.00  0.00    -0.532 OA
ENDBRANCH  26  29
ENDBRANCH  22  23
ENDBRANCH  17  22
TORSDOF 3
