REMARK  5 active torsions:
REMARK  status: ('A' for Active; 'I' for Inactive)
REMARK    1  A    between atoms: C3_3  and  C10_13 
REMARK    2  A    between atoms: C10_13  and  C11_14 
REMARK    3  A    between atoms: C10_13  and  O3_32 
REMARK    4  A    between atoms: C11_14  and  N2_15 
REMARK    5  A    between atoms: C18_22  and  O2_31 
ROOT
ATOM      1  N2  <0> d          -0.781   1.552   1.192  0.00  0.00    -0.068 N 
ATOM      2  C12 <0> d          -2.222   1.337   1.004  0.00  0.00     0.238 C 
ATOM      3  C13 <0> d          -2.993   2.020   2.136  0.00  0.00     0.066 C 
ATOM      4  C14 <0> d          -2.540   1.441   3.477  0.00  0.00     0.073 C 
ATOM      5  C15 <0> d          -1.029   1.629   3.628  0.00  0.00     0.066 C 
ATOM      6  C16 <0> d          -0.316   0.959   2.452  0.00  0.00     0.238 C 
ATOM      7  C17 <0> d          -3.263   2.167   4.617  0.00  0.00     0.075 C 
ATOM      8  C18 <0> d          -2.716   1.642   5.947  0.00  0.00     0.157 C 
ATOM      9  C19 <0> d          -2.696   0.135   5.928  0.00  0.00     0.005 A 
ATOM     10  C20 <0> d          -2.602  -0.546   7.131  0.00  0.00     0.036 A 
ATOM     11  C21 <0> d          -2.572  -1.927   7.150  0.00  0.00     0.034 A 
ATOM     12  C22 <0> d          -2.635  -2.636   5.963  0.00  0.00     0.026 A 
ATOM     13  C23 <0> d          -2.730  -1.963   4.763  0.00  0.00     0.039 A 
ATOM     14  C24 <0> d          -2.764  -0.572   4.740  0.00  0.00     0.078 A 
ATOM     15  O1  <0> d          -2.864   0.054   3.539  0.00  0.00    -0.339 OA
ATOM     16 Cl1  <0> d          -2.457  -2.773   8.662  0.00  0.00    -0.084 Cl
ATOM     17  H27 <0> d          -0.609   2.637   1.249  0.00  0.00     0.280 HD
ENDROOT
BRANCH   1  18
ATOM     18  C11 <0> d          -0.018   1.031   0.050  0.00  0.00     0.271 C 
BRANCH  18  19
ATOM     19  C10 <0> d          -0.591   1.600  -1.249  0.00  0.00     0.179 C 
BRANCH  19  20
ATOM     20  C3  <0> d           0.201   1.076  -2.419  0.00  0.00     0.007 A 
ATOM     21  C2  <0> d          -0.192   0.136  -3.293  0.00  0.00     0.015 A 
ATOM     22  C1  <0> d          -1.519  -0.576  -3.258  0.00  0.00     0.069 C 
ATOM     23  N1  <0> d           0.791  -0.079  -4.220  0.00  0.00    -0.359 N 
ATOM     24  C9  <0> d           1.869   0.739  -3.958  0.00  0.00     0.043 A 
ATOM     25  H1  <0> d           0.642  -0.821  -5.018  0.00  0.00     0.166 HD
ATOM     26  C4  <0> d           1.544   1.502  -2.822  0.00  0.00     0.004 A 
ATOM     27  C8  <0> d           3.103   0.920  -4.574  0.00  0.00     0.033 A 
ATOM     28  C5  <0> d           2.457   2.433  -2.323  0.00  0.00     0.056 A 
ATOM     29  C6  <0> d           3.672   2.601  -2.951  0.00  0.00     0.117 A 
ATOM     30  C7  <0> d           3.990   1.848  -4.076  0.00  0.00     0.044 A 
ATOM     31  F1  <0> d           4.558   3.501  -2.472  0.00  0.00    -0.206 F 
ENDBRANCH  19  20
BRANCH  19  32
ATOM     32  O3  <0> d          -0.512   3.026  -1.220  0.00  0.00    -0.389 OA
ATOM     33  H26 <0> d          -1.031   3.590  -0.431  0.00  0.00     0.210 HD
ENDBRANCH  19  32
ENDBRANCH  18  19
ENDBRANCH   1  18
BRANCH   8  34
ATOM     34  O2  <0> d          -3.552   2.093   7.016  0.00  0.00    -0.391 OA
ATOM     35  H25 <0> d          -3.316   1.814   8.053  0.00  0.00     0.210 HD
ENDBRANCH   8  34
TORSDOF 5
