REMARK  5 active torsions:
REMARK  status: ('A' for Active; 'I' for Inactive)
REMARK    1  A    between atoms: C5_6  and  C6_7 
REMARK       I    between atoms: C6_7  and  N2_9 
REMARK    2  A    between atoms: C8_11  and  C15_19 
REMARK       I    between atoms: C15_19  and  N4_21 
REMARK    3  A    between atoms: N4_21  and  C16_22 
REMARK    4  A    between atoms: C16_22  and  C17_23 
REMARK    5  A    between atoms: C17_23  and  N5_29 
ROOT
ATOM      1  C6  <0> d          -3.321  -2.367   2.013  0.00  0.00     0.253 C 
ATOM      2  O1  <0> d          -3.754  -1.994   3.086  0.00  0.00    -0.267 OA
ATOM      3  N2  <0> d          -2.525  -3.453   1.948  0.00  0.00    -0.346 N 
ATOM      4  C7  <0> d          -1.802  -3.979   0.767  0.00  0.00     0.141 C 
ATOM      5  C8  <0> d          -0.435  -4.442   1.320  0.00  0.00     0.106 C 
ATOM      6  C9  <0> d          -0.688  -4.712   2.813  0.00  0.00    -0.007 C 
ATOM      7  C10 <0> d          -2.170  -4.386   3.044  0.00  0.00     0.136 C 
ATOM      8  C11 <0> d           0.186  -3.801   3.670  0.00  0.00     0.039 C 
ATOM      9  C12 <0> d          -0.041  -4.127   5.148  0.00  0.00     0.233 C 
ATOM     10  N3  <0> d           0.294  -5.534   5.398  0.00  0.00    -0.075 N 
ATOM     11  C13 <0> d          -0.613  -6.406   4.640  0.00  0.00     0.233 C 
ATOM     12  C14 <0> d          -0.410  -6.176   3.140  0.00  0.00     0.039 C 
ATOM     13  H14 <0> d           1.245  -5.709   5.109  0.00  0.00     0.277 HD
ATOM     14  H40 <0> d           0.202  -5.731   6.383  0.00  0.00     0.277 HD
ENDROOT
BRANCH   5  15
ATOM     15  C15 <0> d           0.012  -5.702   0.625  0.00  0.00     0.224 C 
ATOM     16  O2  <0> d          -0.809  -6.450   0.137  0.00  0.00    -0.273 OA
ATOM     17  N4  <0> d           1.325  -5.998   0.546  0.00  0.00    -0.358 N 
ATOM     18  H19 <0> d           1.981  -5.400   0.936  0.00  0.00     0.162 HD
BRANCH  17  19
ATOM     19  C16 <0> d           1.760  -7.223  -0.130  0.00  0.00     0.164 C 
BRANCH  19  20
ATOM     20  C17 <0> d           3.288  -7.259  -0.186  0.00  0.00     0.175 C 
ATOM     21  C22 <0> d           3.849  -7.364   1.233  0.00  0.00     0.043 C 
ATOM     22  C21 <0> d           3.333  -8.645   1.892  0.00  0.00     0.003 C 
ATOM     23  C20 <0> d           3.785  -9.857   1.074  0.00  0.00     0.000 C 
ATOM     24  C19 <0> d           3.224  -9.752  -0.346  0.00  0.00     0.003 C 
ATOM     25  C18 <0> d           3.740  -8.470  -1.004  0.00  0.00     0.043 C 
BRANCH  20  26
ATOM     26  N5  <0> d           3.784  -6.029  -0.819  0.00  0.00     0.103 N 
ATOM     27  C26 <0> d           5.247  -6.061  -0.959  0.00  0.00     0.299 C 
ATOM     28  C25 <0> d           5.725  -4.739  -1.566  0.00  0.00     0.198 C 
ATOM     29  O3  <0> d           5.065  -4.529  -2.818  0.00  0.00    -0.388 OA
ATOM     30  C24 <0> d           3.639  -4.492  -2.718  0.00  0.00     0.198 C 
ATOM     31  C23 <0> d           3.140  -5.811  -2.123  0.00  0.00     0.299 C 
ENDBRANCH  20  26
ENDBRANCH  19  20
ENDBRANCH  17  19
ENDBRANCH   5  15
BRANCH   1  32
ATOM     32  C5  <0> d          -3.668  -1.628   0.777  0.00  0.00     0.034 A 
ATOM     33  C1  <0> d          -4.138  -0.312   0.834  0.00  0.00     0.036 A 
ATOM     34  C2  <0> d          -4.449   0.340  -0.343  0.00  0.00     0.117 A 
ATOM     35  N1  <0> d          -4.309  -0.262  -1.508  0.00  0.00    -0.273 NA
ATOM     36  C3  <0> d          -3.870  -1.501  -1.606  0.00  0.00     0.117 A 
ATOM     37  C4  <0> d          -3.535  -2.227  -0.480  0.00  0.00     0.036 A 
ENDBRANCH   1  32
TORSDOF 5
