REMARK  4 active torsions:
REMARK  status: ('A' for Active; 'I' for Inactive)
REMARK    1  A    between atoms: N1_2  and  C2_3 
REMARK       I    between atoms: N1_2  and  C13_16 
REMARK    2  A    between atoms: C2_3  and  C3_4 
REMARK    3  A    between atoms: C8_9  and  N2_10 
REMARK    4  A    between atoms: C13_16  and  C14_18 
ROOT
ATOM      1  C2  <0> d           0.293   4.579   3.068  0.00  0.00     0.166 C 
ENDROOT
BRANCH   1   2
ATOM      2  N1  <0> d           0.534   5.751   2.223  0.00  0.00    -0.348 N 
ATOM      3  C1  <0> d           0.430   7.098   2.791  0.00  0.00     0.153 C 
ATOM      4  C13 <0> d           0.853   5.591   0.923  0.00  0.00     0.258 C 
ATOM      5  O2  <0> d           0.917   4.474   0.447  0.00  0.00    -0.267 OA
BRANCH   4   6
ATOM      6  C14 <0> d           1.124   6.770   0.080  0.00  0.00     0.086 A 
ATOM      7  C15 <0> d           1.554   7.973   0.653  0.00  0.00     0.023 A 
ATOM      8  C16 <0> d           1.788   9.051  -0.182  0.00  0.00     0.018 A 
ATOM      9  C17 <0> d           1.594   8.912  -1.544  0.00  0.00     0.090 A 
ATOM     10  N3  <0> d           1.189   7.769  -2.063  0.00  0.00    -0.344 N 
ATOM     11  C18 <0> d           0.955   6.706  -1.312  0.00  0.00     0.194 A 
ATOM     12  H21 <0> d           1.046   7.714  -3.153  0.00  0.00     0.167 HD
ATOM     13  O3  <0> d           0.546   5.551  -1.888  0.00  0.00    -0.171 OA
ENDBRANCH   4   6
ENDBRANCH   1   2
BRANCH   1  14
ATOM     14  C3  <0> d          -1.190   4.327   3.165  0.00  0.00    -0.019 A 
ATOM     15  C8  <0> d          -1.831   3.565   2.197  0.00  0.00     0.018 A 
ATOM     16  C7  <0> d          -3.199   3.340   2.287  0.00  0.00     0.024 A 
ATOM     17  C6  <0> d          -3.915   3.866   3.344  0.00  0.00     0.002 A 
ATOM     18  C5  <0> d          -3.274   4.624   4.307  0.00  0.00     0.001 A 
ATOM     19  C4  <0> d          -1.913   4.854   4.217  0.00  0.00     0.011 A 
BRANCH  15  20
ATOM     20  N2  <0> d          -1.102   3.031   1.131  0.00  0.00    -0.279 NA
ATOM     21  C12 <0> d          -1.660   3.464  -0.158  0.00  0.00     0.122 C 
ATOM     22  C11 <0> d          -0.799   2.907  -1.294  0.00  0.00     0.182 C 
ATOM     23  O1  <0> d          -0.735   1.482  -1.183  0.00  0.00    -0.389 OA
ATOM     24  C10 <0> d          -0.196   1.026   0.060  0.00  0.00     0.182 C 
ATOM     25  C9  <0> d          -1.051   1.564   1.211  0.00  0.00     0.122 C 
ENDBRANCH  15  20
ENDBRANCH   1  14
TORSDOF 4
