REMARK  3 active torsions:
REMARK  status: ('A' for Active; 'I' for Inactive)
REMARK    1  A    between atoms: N1_10  and  C9_13 
REMARK    2  A    between atoms: C9_13  and  C10_14 
REMARK       I    between atoms: C10_14  and  N3_16 
REMARK    3  A    between atoms: N3_16  and  C11_17 
ROOT
ATOM      1  C1  <0> d           7.255   5.118   0.865  0.00  0.00     0.026 A 
ATOM      2  C2  <0> d           6.675   4.625  -0.282  0.00  0.00     0.034 A 
ATOM      3  C3  <0> d           5.629   3.705  -0.188  0.00  0.00     0.073 A 
ATOM      4  C4  <0> d           5.181   3.293   1.087  0.00  0.00     0.062 A 
ATOM      5  C5  <0> d           5.780   3.804   2.236  0.00  0.00     0.043 A 
ATOM      6  C6  <0> d           6.812   4.712   2.118  0.00  0.00     0.035 A 
ATOM      7 Cl1  <0> d           7.563   5.352   3.546  0.00  0.00    -0.084 Cl
ATOM      8  C7  <0> d           4.077   2.323   1.151  0.00  0.00     0.261 A 
ATOM      9  O1  <0> d           3.644   1.928   2.218  0.00  0.00    -0.267 OA
ATOM     10  N1  <0> d           3.562   1.887  -0.022  0.00  0.00    -0.299 N 
ATOM     11  C8  <0> d           4.061   2.333  -1.205  0.00  0.00     0.213 A 
ATOM     12  N2  <0> d           5.029   3.193  -1.292  0.00  0.00    -0.243 NA
ENDROOT
BRANCH  10  13
ATOM     13  C9  <0> d           2.462   0.920  -0.017  0.00  0.00     0.236 C 
BRANCH  13  14
ATOM     14  C10 <0> d           1.147   1.655  -0.000  0.00  0.00     0.242 C 
ATOM     15  O2  <0> d           1.130   2.868   0.007  0.00  0.00    -0.271 OA
ATOM     16  N3  <0> d          -0.011   0.966   0.007  0.00  0.00    -0.304 N 
ATOM     17  H7  <0> d           0.004  -0.134   0.006  0.00  0.00     0.171 HD
BRANCH  16  18
ATOM     18  C11 <0> d          -1.224   1.644   0.017  0.00  0.00     0.172 A 
ATOM     19  S1  <0> d          -2.836   0.998   0.021  0.00  0.00    -0.062 SA
ATOM     20  C13 <0> d          -3.711   2.556   0.034  0.00  0.00     0.072 A 
ATOM     21  C12 <0> d          -2.673   3.428   0.033  0.00  0.00     0.126 A 
ATOM     22  N4  <0> d          -1.446   2.944   0.031  0.00  0.00    -0.236 NA
ENDBRANCH  16  18
ENDBRANCH  13  14
ENDBRANCH  10  13
TORSDOF 3
