REMARK  1 active torsions:
REMARK  status: ('A' for Active; 'I' for Inactive)
REMARK    1  A    between atoms: C6_6  and  C7_7 
ROOT
ATOM      1  C1  <0> d           0.313   0.185  -3.660  0.00  0.00     0.014 A 
ATOM      2  C2  <0> d          -0.465   0.582  -4.730  0.00  0.00     0.031 A 
ATOM      3  C3  <0> d          -1.831   0.764  -4.563  0.00  0.00     0.041 A 
ATOM      4  C4  <0> d          -2.411   0.540  -3.321  0.00  0.00    -0.030 A 
ATOM      5  C5  <0> d          -1.630   0.138  -2.257  0.00  0.00     0.021 A 
ATOM      6  C6  <0> d          -0.269  -0.042  -2.426  0.00  0.00    -0.001 A 
ATOM      7  C14 <0> d          -3.894   0.736  -3.141  0.00  0.00     0.050 C 
ATOM      8  C15 <0> d          -4.370   1.883  -4.032  0.00  0.00     0.108 C 
ATOM      9  C16 <0> d          -3.842   1.700  -5.429  0.00  0.00     0.222 C 
ATOM     10  O2  <0> d          -4.523   2.033  -6.376  0.00  0.00    -0.273 OA
ATOM     11  N3  <0> d          -2.623   1.171  -5.641  0.00  0.00    -0.327 N 
ATOM     12  H19 <0> d          -2.251   1.059  -6.670  0.00  0.00     0.169 HD
ENDROOT
BRANCH   6  13
ATOM     13  C7  <0> d           0.582  -0.481  -1.263  0.00  0.00     0.230 C 
ATOM     14  N1  <0> d           1.932   0.107  -1.364  0.00  0.00    -0.315 N 
ATOM     15  C10 <0> d           2.870  -0.839  -1.469  0.00  0.00     0.222 C 
ATOM     16  C11 <0> d           2.140   1.565  -1.269  0.00  0.00     0.130 C 
ATOM     17  C9  <0> d           2.286  -2.173  -1.053  0.00  0.00     0.107 C 
ATOM     18  O1  <0> d           4.011  -0.658  -1.839  0.00  0.00    -0.273 OA
ATOM     19  C8  <0> d           0.764  -2.003  -1.262  0.00  0.00     0.076 C 
ATOM     20  C12 <0> d           1.405   2.028  -0.001  0.00  0.00     0.047 C 
ATOM     21  C13 <0> d          -0.018   1.469   0.010  0.00  0.00     0.237 C 
ATOM     22  N2  <0> d           0.002  -0.004   0.002  0.00  0.00    -0.044 N 
ATOM     23  H14 <0> d          -1.025  -0.385   0.101  0.00  0.00     0.280 HD
ATOM     24  H20 <0> d           0.610  -0.367   0.844  0.00  0.00     0.280 HD
ENDBRANCH   6  13
TORSDOF 1
