REMARK  4 active torsions:
REMARK  status: ('A' for Active; 'I' for Inactive)
REMARK    1  A    between atoms: C6_6  and  C19_20 
REMARK    2  A    between atoms: C6_6  and  C20_22 
REMARK    3  A    between atoms: C19_20  and  O2_21 
REMARK    4  A    between atoms: C20_22  and  O3_23 
ROOT
ATOM      1  C1  <0> d          -0.636   3.038   1.425  0.00  0.00     0.016 C 
ATOM      2  C2  <0> d          -0.635   1.526   1.231  0.00  0.00    -0.028 C 
ATOM      3  C3  <0> d          -2.062   1.079   0.884  0.00  0.00     0.010 C 
ATOM      4  C4  <0> d          -2.475   1.646  -0.472  0.00  0.00     0.002 C 
ATOM      5  C5  <0> d          -1.555   1.125  -1.569  0.00  0.00     0.014 C 
ATOM      6  C6  <0> d          -0.093   1.497  -1.288  0.00  0.00     0.013 C 
ATOM      7  C7  <0> d           0.300   1.088   0.107  0.00  0.00     0.076 C 
ATOM      8  C8  <0> d           1.714   1.441   0.497  0.00  0.00     0.133 C 
ATOM      9  O1  <0> d           2.409   2.217  -0.098  0.00  0.00    -0.297 OA
ATOM     10  C9  <0> d           2.232   0.728   1.737  0.00  0.00     0.089 C 
ATOM     11  C10 <0> d           1.265   0.966   2.882  0.00  0.00    -0.025 C 
ATOM     12  C11 <0> d          -0.197   0.831   2.516  0.00  0.00     0.004 C 
ATOM     13  C12 <0> d          -1.120   1.114   3.690  0.00  0.00     0.007 C 
ATOM     14  C13 <0> d          -0.659   2.235   4.607  0.00  0.00     0.009 C 
ATOM     15  C14 <0> d           0.836   2.109   4.924  0.00  0.00     0.014 C 
ATOM     16  C15 <0> d           1.579   2.309   3.574  0.00  0.00     0.019 C 
ATOM     17  C16 <0> d           1.140   0.668   5.300  0.00  0.00    -0.084 C 
ATOM     18  C17 <0> d           1.072   0.145   6.500  0.00  0.00     0.014 C 
ATOM     19  C18 <0> d           1.542  -0.049   4.024  0.00  0.00     0.044 C 
ENDROOT
BRANCH   6  20
ATOM     20  C19 <0> d           0.116   2.979  -1.590  0.00  0.00     0.176 C 
BRANCH  20  21
ATOM     21  O2  <0> d          -0.408   3.280  -2.886  0.00  0.00    -0.400 OA
ATOM     22  H27 <0> d          -0.348   4.305  -3.279  0.00  0.00     0.209 HD
ENDBRANCH  20  21
ENDBRANCH   6  20
BRANCH   6  23
ATOM     23  C20 <0> d           0.772   0.697  -2.291  0.00  0.00     0.176 C 
BRANCH  23  24
ATOM     24  O3  <0> d           0.418   1.066  -3.626  0.00  0.00    -0.400 OA
ATOM     25  H30 <0> d           0.930   0.599  -4.479  0.00  0.00     0.209 HD
ENDBRANCH  23  24
ENDBRANCH   6  23
TORSDOF 4
