REMARK  7 active torsions:
REMARK  status: ('A' for Active; 'I' for Inactive)
REMARK    1  A    between atoms: C2_2  and  C4_4 
REMARK    2  A    between atoms: C4_4  and  N1_5 
REMARK       I    between atoms: N1_5  and  C5_6 
REMARK    3  A    between atoms: C5_6  and  C6_8 
REMARK       I    between atoms: C6_8  and  N2_10 
REMARK    4  A    between atoms: N2_10  and  C7_11 
REMARK    5  A    between atoms: C7_11  and  C8_12 
REMARK    6  A    between atoms: C8_12  and  C9_13 
REMARK    7  A    between atoms: C8_12  and  N4_19 
ROOT
ATOM      1  C7  <0> d          -0.248   1.509  -0.116  0.00  0.00     0.165 C 
ENDROOT
BRANCH   1   2
ATOM      2  N2  <0> d          -0.273   0.046  -0.194  0.00  0.00    -0.350 N 
ATOM      3  C6  <0> d           0.017  -0.572  -1.356  0.00  0.00     0.309 C 
ATOM      4  O2  <0> d           0.299   0.083  -2.338  0.00  0.00    -0.262 OA
ATOM      5  H12 <0> d          -0.529  -0.548   0.696  0.00  0.00     0.162 HD
BRANCH   3   6
ATOM      6  C5  <0> d          -0.009  -2.064  -1.435  0.00  0.00     0.309 C 
ATOM      7  N1  <0> d           0.281  -2.682  -2.598  0.00  0.00    -0.353 N 
ATOM      8  H11 <0> d           0.537  -2.088  -3.487  0.00  0.00     0.162 HD
ATOM      9  O1  <0> d          -0.291  -2.719  -0.454  0.00  0.00    -0.262 OA
BRANCH   7  10
ATOM     10  C4  <0> d           0.256  -4.145  -2.675  0.00  0.00     0.127 C 
BRANCH  10  11
ATOM     11  C2  <0> d           0.620  -4.586  -4.094  0.00  0.00    -0.005 C 
ATOM     12  C1  <0> d           2.067  -4.190  -4.397  0.00  0.00     0.011 C 
ATOM     13  C3  <0> d           0.473  -6.105  -4.210  0.00  0.00     0.011 C 
ENDBRANCH  10  11
ENDBRANCH   7  10
ENDBRANCH   3   6
ENDBRANCH   1   2
BRANCH   1  14
ATOM     14  C8  <0> d          -0.738   1.955   1.263  0.00  0.00     0.290 C 
BRANCH  14  15
ATOM     15  C9  <0> d          -0.845   3.457   1.296  0.00  0.00     0.046 A 
ATOM     16  N3  <0> d           0.159   4.337   1.020  0.00  0.00    -0.363 N 
ATOM     17  C12 <0> d          -0.321   5.606   1.155  0.00  0.00     0.090 A 
ATOM     18  C13 <0> d           1.528   3.978   0.641  0.00  0.00     0.155 C 
ATOM     19  C11 <0> d          -1.618   5.530   1.514  0.00  0.00     0.019 A 
ATOM     20  C10 <0> d          -1.953   4.164   1.599  0.00  0.00     0.029 A 
ENDBRANCH  14  15
BRANCH  14  21
ATOM     21  N4  <0> d          -2.056   1.363   1.529  0.00  0.00     0.104 N 
ATOM     22  C17 <0> d          -2.512   1.683   2.890  0.00  0.00     0.299 C 
ATOM     23  C16 <0> d          -3.858   0.999   3.145  0.00  0.00     0.198 C 
ATOM     24  O3  <0> d          -4.795   1.416   2.148  0.00  0.00    -0.388 OA
ATOM     25  C15 <0> d          -4.383   1.121   0.811  0.00  0.00     0.198 C 
ATOM     26  C14 <0> d          -3.042   1.805   0.532  0.00  0.00     0.299 C 
ENDBRANCH  14  21
ENDBRANCH   1  14
TORSDOF 7
