REMARK  3 active torsions:
REMARK  status: ('A' for Active; 'I' for Inactive)
REMARK    1  A    between atoms: C4_4  and  N1_7 
REMARK    2  A    between atoms: C9_10  and  C10_12 
REMARK    3  A    between atoms: C10_12  and  C11_13 
ROOT
ATOM      1  N1  <0> d           0.922  -1.686   1.718  0.00  0.00    -0.237 N 
ATOM      2  C7  <0> d           0.802  -0.458   1.210  0.00  0.00     0.052 A 
ATOM      3  C8  <0> d           1.808   0.320   1.777  0.00  0.00     0.061 A 
ATOM      4  C9  <0> d           2.535  -0.498   2.652  0.00  0.00     0.071 A 
ATOM      5  N2  <0> d           2.003  -1.694   2.613  0.00  0.00    -0.171 NA
ATOM      6  C16 <0> d           1.971   1.740   1.429  0.00  0.00     0.163 C 
ATOM      7  O3  <0> d           2.700   2.483   2.051  0.00  0.00    -0.292 OA
ATOM      8  C17 <0> d           1.160   2.207   0.230  0.00  0.00     0.084 C 
ATOM      9  C18 <0> d          -0.246   1.606   0.331  0.00  0.00     0.014 C 
ATOM     10  C19 <0> d          -0.191   0.080   0.214  0.00  0.00     0.061 C 
ENDROOT
BRANCH   4  11
ATOM     11  C10 <0> d           3.717  -0.077   3.487  0.00  0.00     0.067 C 
BRANCH  11  12
ATOM     12  C11 <0> d           3.227   0.426   4.847  0.00  0.00     0.009 C 
ATOM     13  C15 <0> d           4.430   0.746   5.741  0.00  0.00     0.108 C 
ATOM     14  C14 <0> d           3.941   1.347   7.032  0.00  0.00     0.224 C 
ATOM     15  N3  <0> d           2.801   2.053   7.083  0.00  0.00    -0.298 N 
ATOM     16  O2  <0> d           4.589   1.192   8.044  0.00  0.00    -0.273 OA
ATOM     17  C13 <0> d           2.028   2.256   6.006  0.00  0.00     0.224 C 
ATOM     18  H11 <0> d           2.525   2.431   7.933  0.00  0.00     0.171 HD
ATOM     19  C12 <0> d           2.403   1.704   4.656  0.00  0.00     0.108 C 
ATOM     20  O1  <0> d           1.004   2.895   6.121  0.00  0.00    -0.273 OA
ENDBRANCH  11  12
ENDBRANCH   4  11
BRANCH   1  21
ATOM     21  C4  <0> d           0.107  -2.783   1.410  0.00  0.00     0.058 A 
ATOM     22  C3  <0> d          -0.280  -3.016   0.097  0.00  0.00     0.031 A 
ATOM     23  C2  <0> d          -1.084  -4.098  -0.203  0.00  0.00     0.002 A 
ATOM     24  C1  <0> d          -1.503  -4.950   0.802  0.00  0.00     0.000 A 
ATOM     25  C6  <0> d          -1.120  -4.721   2.111  0.00  0.00     0.002 A 
ATOM     26  C5  <0> d          -0.311  -3.643   2.417  0.00  0.00     0.031 A 
ENDBRANCH   1  21
TORSDOF 3
