REMARK  5 active torsions:
REMARK  status: ('A' for Active; 'I' for Inactive)
REMARK    1  A    between atoms: C7_9  and  S1_11 
REMARK    2  A    between atoms: S1_11  and  C8_12 
REMARK    3  A    between atoms: C8_12  and  C9_13 
REMARK    4  A    between atoms: C8_12  and  C10_15 
REMARK    5  A    between atoms: C9_13  and  N3_14 
ROOT
ATOM      1  S1  <0> d           3.929  -3.668  -0.010  0.00  0.00    -0.080 SA
ENDROOT
BRANCH   1   2
ATOM      2  C7  <0> d           2.892  -2.249   0.122  0.00  0.00     0.168 A 
ATOM      3  N1  <0> d           1.529  -2.278   0.209  0.00  0.00    -0.333 N 
ATOM      4  C5  <0> d           1.096  -0.965   0.298  0.00  0.00     0.063 A 
ATOM      5  H1  <0> d           0.969  -3.070   0.208  0.00  0.00     0.168 HD
ATOM      6  C4  <0> d           2.252  -0.168   0.260  0.00  0.00     0.086 A 
ATOM      7  C6  <0> d          -0.152  -0.370   0.406  0.00  0.00     0.032 A 
ATOM      8  C3  <0> d           2.131   1.222   0.333  0.00  0.00     0.034 A 
ATOM      9  N2  <0> d           3.314  -1.009   0.153  0.00  0.00    -0.223 NA
ATOM     10  C2  <0> d           0.884   1.796   0.441  0.00  0.00     0.002 A 
ATOM     11  C1  <0> d          -0.254   1.004   0.477  0.00  0.00     0.002 A 
ENDBRANCH   1   2
BRANCH   1  12
ATOM     12  C8  <0> d           5.593  -2.978  -0.222  0.00  0.00     0.120 C 
BRANCH  12  13
ATOM     13  C9  <0> d           6.031  -2.294   1.075  0.00  0.00     0.250 C 
BRANCH  13  14
ATOM     14  N3  <0> d           7.318  -1.620   0.863  0.00  0.00    -0.078 N 
ATOM     15  H9  <0> d           8.031  -2.308   0.673  0.00  0.00     0.274 HD
ATOM     16  H10 <0> d           7.243  -0.989   0.079  0.00  0.00     0.274 HD
ATOM     17  H14 <0> d           7.566  -1.099   1.691  0.00  0.00     0.274 HD
ENDBRANCH  13  14
ENDBRANCH  12  13
BRANCH  12  18
ATOM     18  C10 <0> d           6.558  -4.086  -0.556  0.00  0.00    -0.002 A 
ATOM     19  S2  <0> d           6.977  -5.537   0.397  0.00  0.00    -0.105 SA
ATOM     20  C13 <0> d           8.155  -6.251  -0.738  0.00  0.00     0.050 A 
ATOM     21  C12 <0> d           8.155  -5.347  -1.748  0.00  0.00     0.008 A 
ATOM     22  C11 <0> d           7.337  -4.238  -1.655  0.00  0.00     0.016 A 
ENDBRANCH  12  18
ENDBRANCH   1  12
TORSDOF 5
