REMARK  5 active torsions:
REMARK  status: ('A' for Active; 'I' for Inactive)
REMARK    1  A    between atoms: C2_2  and  C3_3 
REMARK    2  A    between atoms: C2_2  and  C17_20 
REMARK    3  A    between atoms: C3_3  and  N1_4 
REMARK    4  A    between atoms: C10_12  and  C11_13 
REMARK    5  A    between atoms: C14_16  and  N3_19 
ROOT
ATOM      1  N1  <0> d           2.388  -0.352   1.628  0.00  0.00    -0.328 N 
ATOM      2  C4  <0> d           3.324  -0.977   0.826  0.00  0.00     0.065 A 
ATOM      3  C5  <0> d           3.384  -2.214   0.199  0.00  0.00     0.032 A 
ATOM      4  C6  <0> d           4.490  -2.545  -0.554  0.00  0.00     0.002 A 
ATOM      5  C7  <0> d           5.543  -1.651  -0.690  0.00  0.00     0.002 A 
ATOM      6  C8  <0> d           5.502  -0.429  -0.082  0.00  0.00     0.034 A 
ATOM      7  C9  <0> d           4.390  -0.070   0.688  0.00  0.00     0.086 A 
ATOM      8  N2  <0> d           4.066   1.040   1.395  0.00  0.00    -0.228 NA
ATOM      9  C10 <0> d           2.887   0.882   1.946  0.00  0.00     0.141 A 
ENDROOT
BRANCH   9  10
ATOM     10  C11 <0> d           2.200   1.886   2.786  0.00  0.00     0.010 A 
ATOM     11  C16 <0> d           2.924   2.625   3.724  0.00  0.00     0.017 A 
ATOM     12  C15 <0> d           2.282   3.564   4.502  0.00  0.00     0.030 A 
ATOM     13  C14 <0> d           0.913   3.768   4.361  0.00  0.00     0.025 A 
ATOM     14  C13 <0> d           0.189   3.029   3.432  0.00  0.00     0.030 A 
ATOM     15  C12 <0> d           0.826   2.093   2.647  0.00  0.00     0.017 A 
BRANCH  13  16
ATOM     16  N3  <0> d           0.267   4.715   5.153  0.00  0.00    -0.399 N 
ATOM     17  H15 <0> d          -0.688   4.858   5.055  0.00  0.00     0.156 HD
ATOM     18  H16 <0> d           0.770   5.231   5.801  0.00  0.00     0.156 HD
ENDBRANCH  13  16
ENDBRANCH   9  10
BRANCH   1  19
ATOM     19  C3  <0> d           1.101  -0.906   2.054  0.00  0.00     0.142 C 
BRANCH  19  20
ATOM     20  C2  <0> d           1.238  -1.492   3.461  0.00  0.00     0.061 C 
ATOM     21  C1  <0> d           2.203  -2.679   3.427  0.00  0.00     0.019 C 
BRANCH  20  22
ATOM     22  C17 <0> d          -0.112  -1.955   3.946  0.00  0.00     0.076 C 
ATOM     23  S1  <0> d          -1.349  -2.013   2.933  0.00  0.00    -0.065 SA
ATOM     24  N4  <0> d          -0.277  -2.321   5.232  0.00  0.00    -0.393 N 
ATOM     25  H17 <0> d           0.473  -2.286   5.846  0.00  0.00     0.156 HD
ATOM     26  H18 <0> d          -1.145  -2.619   5.544  0.00  0.00     0.156 HD
ENDBRANCH  20  22
ENDBRANCH  19  20
ENDBRANCH   1  19
TORSDOF 5
