REMARK  6 active torsions:
REMARK  status: ('A' for Active; 'I' for Inactive)
REMARK    1  A    between atoms: C2_2  and  C3_3 
REMARK    2  A    between atoms: C8_8  and  N1_9 
REMARK    3  A    between atoms: N1_9  and  S1_10 
REMARK    4  A    between atoms: S1_10  and  C9_13 
REMARK    5  A    between atoms: C13_18  and  N3_19 
REMARK    6  A    between atoms: N3_19  and  N4_20 
ROOT
ATOM      1  S1  <0> d          -0.725  -4.111  -0.343  0.00  0.00     0.263 S 
ATOM      2  O1  <0> d          -2.055  -4.588  -0.490  0.00  0.00    -0.200 OA
ATOM      3  O2  <0> d           0.404  -4.860  -0.771  0.00  0.00    -0.200 OA
ENDROOT
BRANCH   1   4
ATOM      4  N1  <0> d          -0.654  -2.656  -1.130  0.00  0.00    -0.310 N 
ATOM      5  H16 <0> d          -1.441  -2.307  -1.576  0.00  0.00     0.172 HD
BRANCH   4   6
ATOM      6  C8  <0> d           0.599  -1.896  -1.152  0.00  0.00     0.097 C 
ATOM      7  C3  <0> d           0.287  -0.399  -1.109  0.00  0.00     0.009 C 
ATOM      8  C4  <0> d          -0.561  -0.019  -2.324  0.00  0.00     0.007 C 
ATOM      9  C5  <0> d           0.208  -0.343  -3.606  0.00  0.00     0.001 C 
ATOM     10  C6  <0> d           0.520  -1.840  -3.649  0.00  0.00     0.002 C 
ATOM     11  C7  <0> d           1.369  -2.220  -2.434  0.00  0.00     0.026 C 
BRANCH   7  12
ATOM     12  C2  <0> d          -0.483  -0.075   0.173  0.00  0.00     0.002 C 
ATOM     13  C1  <0> d          -0.685   1.438   0.277  0.00  0.00     0.005 C 
ENDBRANCH   7  12
ENDBRANCH   4   6
ENDBRANCH   1   4
BRANCH   1  14
ATOM     14  C9  <0> d          -0.492  -3.788   1.373  0.00  0.00     0.127 A 
ATOM     15  C13 <0> d          -1.420  -3.030   2.079  0.00  0.00     0.161 A 
ATOM     16  N2  <0> d          -1.252  -2.789   3.371  0.00  0.00    -0.239 NA
ATOM     17  C12 <0> d          -0.203  -3.245   4.028  0.00  0.00     0.138 A 
ATOM     18  C11 <0> d           0.761  -4.000   3.389  0.00  0.00     0.030 A 
ATOM     19  C10 <0> d           0.618  -4.279   2.035  0.00  0.00     0.050 A 
ATOM     20 Br1  <0> d           2.259  -4.647   4.345  0.00  0.00    -0.050 Br
BRANCH  15  21
ATOM     21  N3  <0> d          -2.538  -2.524   1.425  0.00  0.00    -0.307 N 
ATOM     22  H19 <0> d          -2.624  -2.625   0.464  0.00  0.00     0.182 HD
BRANCH  21  23
ATOM     23  N4  <0> d          -3.515  -1.885   2.135  0.00  0.00    -0.248 NA
ATOM     24  H20 <0> d          -4.259  -1.575   1.528  0.00  0.00     0.143 HD
ATOM     25  H21 <0> d          -3.871  -2.476   2.871  0.00  0.00     0.143 HD
ENDBRANCH  21  23
ENDBRANCH  15  21
ENDBRANCH   1  14
TORSDOF 6
