REMARK  7 active torsions:
REMARK  status: ('A' for Active; 'I' for Inactive)
REMARK    1  A    between atoms: C6_6  and  N1_8 
REMARK       I    between atoms: N1_8  and  C8_9 
REMARK    2  A    between atoms: C8_9  and  C9_11 
REMARK    3  A    between atoms: C9_11  and  C10_12 
REMARK    4  A    between atoms: C9_11  and  N3_37 
REMARK    5  A    between atoms: C18_20  and  C21_23 
REMARK       I    between atoms: C21_23  and  N2_25 
REMARK    6  A    between atoms: N2_25  and  C22_26 
REMARK    7  A    between atoms: C27_31  and  O3_32 
ROOT
ATOM      1  C16 <0> d          -5.024   1.066   0.136  0.00  0.00     0.237 C 
ATOM      2  C17 <0> d          -3.720   1.865   0.080  0.00  0.00     0.042 C 
ATOM      3  C18 <0> d          -2.539   0.923   0.334  0.00  0.00     0.081 C 
ATOM      4  C19 <0> d          -2.559  -0.199  -0.708  0.00  0.00     0.042 C 
ATOM      5  C20 <0> d          -3.897  -0.938  -0.630  0.00  0.00     0.237 C 
ATOM      6  N3  <0> d          -4.990   0.018  -0.907  0.00  0.00    -0.054 N 
ATOM      7  H32 <0> d          -4.822   0.461  -1.818  0.00  0.00     0.281 HD
ENDROOT
BRANCH   6   8
ATOM      8  C9  <0> d          -6.284  -0.693  -0.950  0.00  0.00     0.312 C 
BRANCH   8   9
ATOM      9  C8  <0> d          -6.559  -1.374   0.366  0.00  0.00     0.258 C 
ATOM     10  N1  <0> d          -7.694  -2.081   0.535  0.00  0.00    -0.325 N 
ATOM     11  H8  <0> d          -8.309  -2.194  -0.205  0.00  0.00     0.169 HD
ATOM     12  O1  <0> d          -5.758  -1.286   1.273  0.00  0.00    -0.270 OA
BRANCH  10  13
ATOM     13  C6  <0> d          -7.983  -2.652   1.779  0.00  0.00     0.041 A 
ATOM     14  C5  <0> d          -9.300  -2.900   2.142  0.00  0.00    -0.035 A 
ATOM     15  C4  <0> d          -9.583  -3.464   3.370  0.00  0.00     0.009 A 
ATOM     16  C28 <0> d         -10.421  -2.553   1.195  0.00  0.00     0.050 C 
ATOM     17  C3  <0> d          -8.556  -3.782   4.239  0.00  0.00     0.007 A 
ATOM     18  C2  <0> d          -7.242  -3.537   3.881  0.00  0.00    -0.060 A 
ATOM     19  C1  <0> d          -6.125  -3.886   4.831  0.00  0.00     0.048 C 
ATOM     20  C7  <0> d          -6.953  -2.979   2.652  0.00  0.00     0.037 A 
ENDBRANCH  10  13
ENDBRANCH   8   9
BRANCH   8  21
ATOM     21  C10 <0> d          -6.239  -1.723  -2.049  0.00  0.00    -0.018 A 
ATOM     22  C15 <0> d          -6.730  -1.417  -3.304  0.00  0.00     0.010 A 
ATOM     23  C14 <0> d          -6.688  -2.361  -4.312  0.00  0.00     0.001 A 
ATOM     24  C13 <0> d          -6.154  -3.612  -4.065  0.00  0.00     0.000 A 
ATOM     25  C12 <0> d          -5.662  -3.918  -2.810  0.00  0.00     0.001 A 
ATOM     26  C11 <0> d          -5.700  -2.972  -1.803  0.00  0.00     0.010 A 
ENDBRANCH   8  21
ENDBRANCH   6   8
BRANCH   3  27
ATOM     27  C21 <0> d          -1.248   1.692   0.221  0.00  0.00     0.226 C 
ATOM     28  O2  <0> d          -1.269   2.877  -0.036  0.00  0.00    -0.273 OA
ATOM     29  N2  <0> d          -0.071   1.063   0.407  0.00  0.00    -0.324 N 
ATOM     30  H23 <0> d          -0.050   0.102   0.536  0.00  0.00     0.169 HD
BRANCH  29  31
ATOM     31  C22 <0> d           1.123   1.796   0.408  0.00  0.00     0.068 A 
ATOM     32  C27 <0> d           2.328   1.169   0.102  0.00  0.00     0.092 A 
ATOM     33  C26 <0> d           3.505   1.901   0.100  0.00  0.00     0.039 A 
ATOM     34  C25 <0> d           3.482   3.248   0.411  0.00  0.00     0.003 A 
ATOM     35  C24 <0> d           2.287   3.870   0.721  0.00  0.00     0.002 A 
ATOM     36  C23 <0> d           1.108   3.148   0.720  0.00  0.00     0.032 A 
BRANCH  32  37
ATOM     37  O3  <0> d           2.350  -0.157  -0.199  0.00  0.00    -0.358 OA
ATOM     38  H28 <0> d           2.239  -0.348  -1.140  0.00  0.00     0.217 HD
ENDBRANCH  32  37
ENDBRANCH  29  31
ENDBRANCH   3  27
TORSDOF 7
