REMARK  7 active torsions:
REMARK  status: ('A' for Active; 'I' for Inactive)
REMARK    1  A    between atoms: C2_2  and  C3_3 
REMARK    2  A    between atoms: C4_4  and  C11_17 
REMARK    3  A    between atoms: N2_8  and  C6_9 
REMARK    4  A    between atoms: C9_12  and  O1_15 
REMARK       I    between atoms: C11_17  and  N5_19 
REMARK    5  A    between atoms: N5_19  and  N6_20 
REMARK       I    between atoms: N6_20  and  C12_21 
REMARK    6  A    between atoms: C12_21  and  C13_23 
REMARK    7  A    between atoms: C13_23  and  C14_24 
ROOT
ATOM      1  C11 <0> d          -0.342  -2.743  -1.497  0.00  0.00     0.269 C 
ATOM      2  O2  <0> d          -0.202  -3.939  -1.675  0.00  0.00    -0.266 OA
ATOM      3  N5  <0> d          -1.579  -2.213  -1.423  0.00  0.00    -0.263 N 
ATOM      4  H14 <0> d          -1.691  -1.260  -1.282  0.00  0.00     0.190 HD
ENDROOT
BRANCH   1   5
ATOM      5  C4  <0> d           0.793  -1.909  -1.367  0.00  0.00     0.053 A 
ATOM      6  C3  <0> d           0.791  -0.412  -1.143  0.00  0.00     0.150 A 
ATOM      7  N2  <0> d           2.217  -0.049  -1.084  0.00  0.00    -0.265 N 
ATOM      8  N1  <0> d           2.928  -1.246  -1.257  0.00  0.00    -0.307 N 
ATOM      9  H2  <0> d           3.896  -1.314  -1.262  0.00  0.00     0.186 HD
ATOM     10  C5  <0> d           2.082  -2.296  -1.418  0.00  0.00     0.122 A 
BRANCH   6  11
ATOM     11  C2  <0> d           0.096  -0.069   0.175  0.00  0.00     0.028 C 
ATOM     12  C1  <0> d           0.774  -0.823   1.321  0.00  0.00     0.007 C 
ENDBRANCH   6  11
BRANCH   7  13
ATOM     13  C6  <0> d           2.749   1.225  -0.893  0.00  0.00     0.167 A 
ATOM     14  N4  <0> d           1.944   2.264  -0.743  0.00  0.00    -0.128 NA
ATOM     15  N3  <0> d           2.391   3.453  -0.559  0.00  0.00    -0.123 NA
ATOM     16  C9  <0> d           3.685   3.721  -0.519  0.00  0.00     0.185 A 
ATOM     17  C8  <0> d           4.612   2.692  -0.674  0.00  0.00     0.063 A 
ATOM     18  C7  <0> d           4.132   1.408  -0.866  0.00  0.00     0.058 A 
BRANCH  16  19
ATOM     19  O1  <0> d           4.109   4.997  -0.328  0.00  0.00    -0.338 OA
ATOM     20  C10 <0> d           3.103   6.000  -0.177  0.00  0.00     0.211 C 
ENDBRANCH  16  19
ENDBRANCH   7  13
ENDBRANCH   1   5
BRANCH   3  21
ATOM     21  N6  <0> d          -2.704  -3.038  -1.552  0.00  0.00    -0.267 N 
ATOM     22  C12 <0> d          -3.941  -2.508  -1.478  0.00  0.00     0.240 C 
ATOM     23  O3  <0> d          -4.081  -1.317  -1.301  0.00  0.00    -0.272 OA
ATOM     24  H15 <0> d          -2.592  -3.991  -1.694  0.00  0.00     0.190 HD
BRANCH  22  25
ATOM     25  C13 <0> d          -5.151  -3.396  -1.617  0.00  0.00     0.141 C 
BRANCH  25  26
ATOM     26  C14 <0> d          -6.401  -2.564  -1.498  0.00  0.00    -0.041 A 
ATOM     27  C21 <0> d          -7.103  -2.154  -0.223  0.00  0.00     0.155 A 
ATOM     28  N7  <0> d          -8.261  -1.355  -0.640  0.00  0.00    -0.385 N 
ATOM     29  C20 <0> d          -8.275  -1.292  -1.949  0.00  0.00     0.038 A 
ATOM     30  H24 <0> d          -8.909  -0.945  -0.046  0.00  0.00     0.160 HD
ATOM     31  C15 <0> d          -7.127  -2.038  -2.511  0.00  0.00    -0.005 A 
ATOM     32  C19 <0> d          -9.168  -0.657  -2.856  0.00  0.00     0.030 A 
ATOM     33  C16 <0> d          -6.974  -2.080  -3.970  0.00  0.00     0.014 A 
ATOM     34  C17 <0> d          -7.881  -1.441  -4.744  0.00  0.00     0.001 A 
ATOM     35  C18 <0> d          -8.960  -0.741  -4.188  0.00  0.00     0.002 A 
ENDBRANCH  25  26
ENDBRANCH  22  25
ENDBRANCH   3  21
TORSDOF 7
