REMARK  5 active torsions:
REMARK  status: ('A' for Active; 'I' for Inactive)
REMARK    1  A    between atoms: C5_5  and  C12_18 
REMARK    2  A    between atoms: C7_7  and  S1_8 
REMARK    3  A    between atoms: S1_8  and  N1_11 
REMARK    4  A    between atoms: C13_19  and  C14_20 
REMARK    5  A    between atoms: C14_20  and  N3_21 
ROOT
ATOM      1  C1  <0> d          -0.018   1.503   0.010  0.00  0.00     0.050 C 
ATOM      2  C2  <0> d           0.002  -0.004   0.002  0.00  0.00    -0.039 A 
ATOM      3  C3  <0> d           0.006  -0.686  -1.202  0.00  0.00     0.010 A 
ATOM      4  C4  <0> d           0.025  -2.066  -1.216  0.00  0.00     0.021 A 
ATOM      5  C5  <0> d           0.041  -2.773  -0.013  0.00  0.00     0.019 A 
ATOM      6  C6  <0> d           0.037  -2.079   1.197  0.00  0.00     0.046 A 
ATOM      7  C7  <0> d           0.023  -0.699   1.198  0.00  0.00     0.089 A 
ENDROOT
BRANCH   7   8
ATOM      8  S1  <0> d           0.025   0.179   2.725  0.00  0.00     0.286 S 
ATOM      9  O1  <0> d          -1.014   1.144   2.640  0.00  0.00    -0.198 OA
ATOM     10  O2  <0> d           0.075  -0.798   3.756  0.00  0.00    -0.198 OA
BRANCH   8  11
ATOM     11  N1  <0> d           1.449   1.022   2.803  0.00  0.00    -0.134 NA
ATOM     12  C8  <0> d           1.712   1.769   3.847  0.00  0.00     0.183 A 
ATOM     13  S2  <0> d           0.728   2.058   5.309  0.00  0.00    -0.061 SA
ATOM     14  N2  <0> d           2.818   2.548   4.108  0.00  0.00    -0.338 N 
ATOM     15  C10 <0> d           1.852   3.165   6.146  0.00  0.00     0.078 A 
ATOM     16  C9  <0> d           2.863   3.244   5.280  0.00  0.00     0.014 A 
ATOM     17  C11 <0> d           4.058   4.105   5.598  0.00  0.00     0.068 C 
ATOM     18  H16 <0> d           3.550   2.599   3.472  0.00  0.00     0.168 HD
ENDBRANCH   8  11
ENDBRANCH   7   8
BRANCH   5  19
ATOM     19  C12 <0> d           0.060  -4.205  -0.021  0.00  0.00    -0.065 C 
ATOM     20  C13 <0> d           0.076  -5.379  -0.028  0.00  0.00    -0.074 C 
BRANCH  20  21
ATOM     21  C14 <0> d           0.096  -6.850  -0.036  0.00  0.00     0.323 C 
BRANCH  21  22
ATOM     22  N3  <0> d           0.110  -7.348   1.347  0.00  0.00    -0.069 N 
ATOM     23  H13 <0> d           0.931  -7.003   1.820  0.00  0.00     0.275 HD
ATOM     24  H14 <0> d          -0.716  -7.025   1.828  0.00  0.00     0.275 HD
ATOM     25  H15 <0> d           0.123  -8.357   1.341  0.00  0.00     0.275 HD
ENDBRANCH  21  22
ENDBRANCH  20  21
ENDBRANCH   5  19
TORSDOF 5
