REMARK  6 active torsions:
REMARK  status: ('A' for Active; 'I' for Inactive)
REMARK    1  A    between atoms: C3_3  and  C5_6 
REMARK    2  A    between atoms: C6_8  and  C8_11 
REMARK    3  A    between atoms: C8_11  and  S3_12 
REMARK    4  A    between atoms: S3_12  and  C9_15 
REMARK    5  A    between atoms: C9_15  and  C10_16 
REMARK    6  A    between atoms: C10_16  and  C11_17 
REMARK       I    between atoms: C11_17  and  N2_19 
ROOT
ATOM      1  C8  <0> d           7.309   0.948  -0.073  0.00  0.00     0.199 C 
ENDROOT
BRANCH   1   2
ATOM      2  C6  <0> d           6.033   1.750  -0.051  0.00  0.00     0.056 A 
ATOM      3  N1  <0> d           4.872   1.137  -0.044  0.00  0.00    -0.243 NA
ATOM      4  C5  <0> d           3.734   1.821  -0.024  0.00  0.00     0.115 A 
ATOM      5  S2  <0> d           4.340   3.503  -0.021  0.00  0.00    -0.079 SA
ATOM      6  C7  <0> d           6.084   3.107  -0.037  0.00  0.00     0.080 A 
BRANCH   4   7
ATOM      7  C3  <0> d           2.348   1.328  -0.013  0.00  0.00     0.040 A 
ATOM      8  C2  <0> d           1.176   2.042   0.002  0.00  0.00     0.022 A 
ATOM      9  C1  <0> d          -0.016   1.355   0.009  0.00  0.00     0.008 A 
ATOM     10  C4  <0> d           0.002  -0.004   0.002  0.00  0.00     0.050 A 
ATOM     11  S1  <0> d           1.752  -0.355  -0.017  0.00  0.00    -0.099 SA
ENDBRANCH   4   7
ENDBRANCH   1   2
BRANCH   1  12
ATOM     12  S3  <0> d           7.802   0.643  -1.792  0.00  0.00     0.150 S 
ATOM     13  O1  <0> d           6.821  -0.185  -2.401  0.00  0.00    -0.228 OA
ATOM     14  O2  <0> d           8.125   1.889  -2.394  0.00  0.00    -0.228 OA
BRANCH  12  15
ATOM     15  C9  <0> d           9.329  -0.318  -1.607  0.00  0.00     0.150 C 
BRANCH  15  16
ATOM     16  C10 <0> d           9.886  -0.663  -2.989  0.00  0.00     0.117 C 
BRANCH  16  17
ATOM     17  C11 <0> d          11.155  -1.461  -2.835  0.00  0.00     0.216 C 
ATOM     18  O3  <0> d          11.573  -1.728  -1.729  0.00  0.00    -0.274 OA
ATOM     19  N2  <0> d          11.825  -1.879  -3.928  0.00  0.00    -0.370 N 
ATOM     20  H11 <0> d          11.491  -1.665  -4.813  0.00  0.00     0.159 HD
ATOM     21  H12 <0> d          12.642  -2.393  -3.829  0.00  0.00     0.159 HD
ENDBRANCH  16  17
ENDBRANCH  15  16
ENDBRANCH  12  15
ENDBRANCH   1  12
TORSDOF 6
