REMARK  7 active torsions:
REMARK  status: ('A' for Active; 'I' for Inactive)
REMARK    1  A    between atoms: C2_2  and  C3_3 
REMARK    2  A    between atoms: C3_3  and  C4_4 
REMARK    3  A    between atoms: C3_3  and  N2_19 
REMARK    4  A    between atoms: C4_4  and  C5_5 
REMARK    5  A    between atoms: C4_4  and  N1_11 
REMARK    6  A    between atoms: N1_11  and  C10_13 
REMARK    7  A    between atoms: C10_13  and  C11_14 
ROOT
ATOM      1  C4  <0> d           0.849  -2.021  -1.205  0.00  0.00     0.258 C 
ENDROOT
BRANCH   1   2
ATOM      2  C3  <0> d           0.718  -0.497  -1.257  0.00  0.00     0.218 C 
BRANCH   2   3
ATOM      3  C2  <0> d           0.002  -0.004   0.002  0.00  0.00     0.031 C 
ATOM      4  C1  <0> d          -0.019   1.526   0.010  0.00  0.00     0.007 C 
ENDBRANCH   2   3
BRANCH   2   5
ATOM      5  N2  <0> d          -0.057  -0.113  -2.444  0.00  0.00    -0.073 N 
ATOM      6  H18 <0> d          -0.143   0.892  -2.478  0.00  0.00     0.274 HD
ATOM      7  H19 <0> d           0.415  -0.438  -3.274  0.00  0.00     0.274 HD
ATOM      8  H20 <0> d          -0.975  -0.528  -2.395  0.00  0.00     0.274 HD
ENDBRANCH   2   5
ENDBRANCH   1   2
BRANCH   1   9
ATOM      9  C5  <0> d          -0.521  -2.645  -1.256  0.00  0.00     0.017 A 
ATOM     10  S1  <0> d          -1.712  -2.852   0.059  0.00  0.00    -0.085 SA
ATOM     11  C8  <0> d          -2.995  -3.655  -0.887  0.00  0.00     0.051 A 
ATOM     12  C7  <0> d          -2.436  -3.718  -2.121  0.00  0.00     0.028 A 
ATOM     13 Br1  <0> d          -4.691  -4.266  -0.316  0.00  0.00    -0.043 Br
ATOM     14  C6  <0> d          -1.168  -3.200  -2.309  0.00  0.00     0.018 A 
ENDBRANCH   1   9
BRANCH   1  15
ATOM     15  N1  <0> d           1.520  -2.413   0.042  0.00  0.00    -0.060 N 
ATOM     16  C9  <0> d           1.646  -3.875   0.092  0.00  0.00     0.271 C 
ATOM     17  H21 <0> d           0.976  -2.095   0.830  0.00  0.00     0.280 HD
BRANCH  15  18
ATOM     18  C10 <0> d           2.856  -1.804   0.091  0.00  0.00     0.275 C 
BRANCH  18  19
ATOM     19  C11 <0> d           3.496  -2.104   1.423  0.00  0.00    -0.008 A 
ATOM     20  C14 <0> d           4.262  -3.168   1.722  0.00  0.00     0.150 A 
ATOM     21  O1  <0> d           4.641  -3.071   3.007  0.00  0.00    -0.334 OA
ATOM     22  C13 <0> d           4.118  -1.956   3.544  0.00  0.00     0.142 A 
ATOM     23  C12 <0> d           3.400  -1.325   2.598  0.00  0.00     0.035 A 
ENDBRANCH  18  19
ENDBRANCH  15  18
ENDBRANCH   1  15
TORSDOF 7
