REMARK  6 active torsions:
REMARK  status: ('A' for Active; 'I' for Inactive)
REMARK    1  A    between atoms: C2_2  and  C3_3 
REMARK    2  A    between atoms: C2_2  and  N1_13 
REMARK       I    between atoms: N1_13  and  C13_14 
REMARK    3  A    between atoms: C13_14  and  C14_16 
REMARK    4  A    between atoms: C14_16  and  S1_17 
REMARK    5  A    between atoms: S1_17  and  C15_18 
REMARK    6  A    between atoms: N2_22  and  C19_25 
ROOT
ATOM      1  N1  <0> d           0.334  -0.396  -1.214  0.00  0.00    -0.352 N 
ATOM      2  C13 <0> d          -0.333  -0.486  -2.381  0.00  0.00     0.227 C 
ATOM      3  O1  <0> d          -1.462  -0.051  -2.470  0.00  0.00    -0.273 OA
ATOM      4  H13 <0> d           1.237  -0.744  -1.143  0.00  0.00     0.163 HD
ENDROOT
BRANCH   2   5
ATOM      5  C14 <0> d           0.323  -1.128  -3.576  0.00  0.00     0.177 C 
BRANCH   5   6
ATOM      6  S1  <0> d          -0.821  -1.097  -4.984  0.00  0.00    -0.145 SA
BRANCH   6   7
ATOM      7  C15 <0> d           0.108  -1.895  -6.322  0.00  0.00     0.149 A 
ATOM      8  C18 <0> d           1.264  -1.023  -6.761  0.00  0.00     0.245 A 
ATOM      9  N2  <0> d           1.096  -0.691  -8.051  0.00  0.00    -0.251 N 
ATOM     10  O3  <0> d           2.190  -0.679  -6.059  0.00  0.00    -0.271 OA
ATOM     11  C17 <0> d          -0.009  -1.196  -8.616  0.00  0.00     0.232 A 
ATOM     12  C16 <0> d          -0.762  -2.014  -7.590  0.00  0.00     0.128 A 
ATOM     13  O2  <0> d          -0.351  -1.023  -9.765  0.00  0.00    -0.273 OA
BRANCH   9  14
ATOM     14  C19 <0> d           2.005   0.115  -8.751  0.00  0.00     0.045 A 
ATOM     15  C24 <0> d           1.633   1.390  -9.157  0.00  0.00     0.030 A 
ATOM     16  C23 <0> d           2.533   2.184  -9.841  0.00  0.00     0.002 A 
ATOM     17  C22 <0> d           3.798   1.707 -10.130  0.00  0.00     0.000 A 
ATOM     18  C21 <0> d           4.168   0.436  -9.732  0.00  0.00     0.002 A 
ATOM     19  C20 <0> d           3.275  -0.361  -9.043  0.00  0.00     0.030 A 
ENDBRANCH   9  14
ENDBRANCH   6   7
ENDBRANCH   5   6
ENDBRANCH   2   5
BRANCH   1  20
ATOM     20  C2  <0> d          -0.304   0.228  -0.052  0.00  0.00     0.114 C 
ATOM     21  C1  <0> d          -0.100   1.743  -0.110  0.00  0.00     0.037 C 
BRANCH  20  22
ATOM     22  C3  <0> d           0.313  -0.315   1.212  0.00  0.00    -0.025 A 
ATOM     23  C8  <0> d          -0.425  -0.335   2.406  0.00  0.00    -0.018 A 
ATOM     24  C7  <0> d           0.170  -0.854   3.583  0.00  0.00    -0.025 A 
ATOM     25  C9  <0> d          -1.746   0.145   2.457  0.00  0.00     0.013 A 
ATOM     26  C6  <0> d           1.492  -1.328   3.535  0.00  0.00     0.012 A 
ATOM     27  C12 <0> d          -0.571  -0.881   4.777  0.00  0.00     0.012 A 
ATOM     28  C5  <0> d           2.179  -1.287   2.360  0.00  0.00     0.002 A 
ATOM     29  C4  <0> d           1.592  -0.782   1.202  0.00  0.00     0.010 A 
ATOM     30  C11 <0> d          -1.843  -0.396   4.790  0.00  0.00     0.001 A 
ATOM     31  C10 <0> d          -2.431   0.109   3.632  0.00  0.00     0.001 A 
ENDBRANCH  20  22
ENDBRANCH   1  20
TORSDOF 6
