REMARK  10 active torsions:
REMARK  status: ('A' for Active; 'I' for Inactive)
REMARK    1  A    between atoms: C3_3  and  O10_22 
REMARK    2  A    between atoms: C4_4  and  O9_21 
REMARK    3  A    between atoms: C5_5  and  O8_20 
REMARK    4  A    between atoms: C6_6  and  O2_8 
REMARK    5  A    between atoms: O2_8  and  C7_9 
REMARK    6  A    between atoms: C8_10  and  C12_18 
REMARK    7  A    between atoms: C9_12  and  O6_17 
REMARK    8  A    between atoms: C10_13  and  O5_16 
REMARK    9  A    between atoms: C11_14  and  O4_15 
REMARK   10  A    between atoms: C12_18  and  O7_19 
ROOT
ATOM      1  C7  <0> d           0.708  -1.979   3.659  0.00  0.00     0.187 C 
ATOM      2  C8  <0> d           1.089  -2.990   4.744  0.00  0.00     0.180 C 
ATOM      3  O3  <0> d           2.480  -2.862   5.045  0.00  0.00    -0.349 OA
ATOM      4  C9  <0> d           2.853  -1.577   5.547  0.00  0.00     0.288 C 
ATOM      5  C10 <0> d           2.542  -0.510   4.494  0.00  0.00     0.204 C 
ATOM      6  C11 <0> d           1.051  -0.567   4.142  0.00  0.00     0.183 C 
ENDROOT
BRANCH   1   7
ATOM      7  O2  <0> d           1.436  -2.265   2.463  0.00  0.00    -0.348 OA
BRANCH   7   8
ATOM      8  C6  <0> d           0.749  -1.902   1.264  0.00  0.00     0.292 C 
ATOM      9  C5  <0> d           1.496  -2.472   0.055  0.00  0.00     0.204 C 
ATOM     10  C4  <0> d           0.789  -2.028  -1.229  0.00  0.00     0.183 C 
ATOM     11  C3  <0> d           0.719  -0.498  -1.257  0.00  0.00     0.178 C 
ATOM     12  C2  <0> d           0.002  -0.004   0.002  0.00  0.00     0.152 C 
ATOM     13  C1  <0> d          -0.019   1.526   0.010  0.00  0.00     0.042 C 
ATOM     14  O1  <0> d           0.694  -0.478   1.159  0.00  0.00    -0.351 OA
BRANCH   9  15
ATOM     15  O8  <0> d           2.841  -1.988   0.051  0.00  0.00    -0.388 OA
ATOM     16  H20 <0> d           3.349  -2.232   0.837  0.00  0.00     0.210 HD
ENDBRANCH   9  15
BRANCH  10  17
ATOM     17  O9  <0> d          -0.534  -2.567  -1.258  0.00  0.00    -0.390 OA
ATOM     18  H21 <0> d          -0.565  -3.534  -1.243  0.00  0.00     0.210 HD
ENDBRANCH  10  17
BRANCH  11  19
ATOM     19  O10 <0> d          -0.002  -0.073  -2.415  0.00  0.00    -0.390 OA
ATOM     20  H22 <0> d          -0.089   0.887  -2.495  0.00  0.00     0.210 HD
ENDBRANCH  11  19
ENDBRANCH   7   8
ENDBRANCH   1   7
BRANCH   6  21
ATOM     21  O4  <0> d           0.766   0.375   3.106  0.00  0.00    -0.390 OA
ATOM     22  H14 <0> d           0.960   1.292   3.344  0.00  0.00     0.210 HD
ENDBRANCH   6  21
BRANCH   2  23
ATOM     23  C12 <0> d           0.803  -4.407   4.245  0.00  0.00     0.198 C 
BRANCH  23  24
ATOM     24  O7  <0> d           1.048  -5.342   5.298  0.00  0.00    -0.398 OA
ATOM     25  H19 <0> d           0.887  -6.263   5.051  0.00  0.00     0.209 HD
ENDBRANCH  23  24
ENDBRANCH   2  23
BRANCH   5  26
ATOM     26  O5  <0> d           3.320  -0.756   3.321  0.00  0.00    -0.388 OA
ATOM     27  H15 <0> d           4.275  -0.738   3.471  0.00  0.00     0.210 HD
ENDBRANCH   5  26
BRANCH   4  28
ATOM     28  O6  <0> d           4.252  -1.566   5.838  0.00  0.00    -0.369 OA
ATOM     29  H16 <0> d           4.521  -2.220   6.498  0.00  0.00     0.212 HD
ENDBRANCH   4  28
TORSDOF 10
