REMARK  7 active torsions:
REMARK  status: ('A' for Active; 'I' for Inactive)
REMARK    1  A    between atoms: C7_7  and  O1_8 
REMARK    2  A    between atoms: O1_8  and  C8_9 
REMARK    3  A    between atoms: C8_9  and  C9_10 
REMARK       I    between atoms: C9_10  and  N1_12 
REMARK    4  A    between atoms: N1_12  and  N2_13 
REMARK       I    between atoms: N2_13  and  C10_14 
REMARK    5  A    between atoms: C10_14  and  C11_16 
REMARK    6  A    between atoms: C14_19  and  N3_22 
REMARK       I    between atoms: N3_22  and  C17_23 
REMARK    7  A    between atoms: C17_23  and  C18_25 
ROOT
ATOM      1  N2  <0> d           1.136   1.880   0.026  0.00  0.00    -0.263 N 
ATOM      2  C10 <0> d          -0.024   1.194   0.037  0.00  0.00     0.270 C 
ATOM      3  O3  <0> d          -0.012  -0.021   0.040  0.00  0.00    -0.266 OA
ATOM      4  H10 <0> d           1.127   2.850   0.024  0.00  0.00     0.190 HD
ENDROOT
BRANCH   1   5
ATOM      5  N1  <0> d           2.357   1.192   0.018  0.00  0.00    -0.265 N 
ATOM      6  C9  <0> d           3.517   1.877   0.006  0.00  0.00     0.260 C 
ATOM      7  O2  <0> d           3.505   3.090   0.004  0.00  0.00    -0.269 OA
ATOM      8  H9  <0> d           2.366   0.222   0.020  0.00  0.00     0.190 HD
BRANCH   6   9
ATOM      9  C8  <0> d           4.829   1.137  -0.002  0.00  0.00     0.280 C 
BRANCH   9  10
ATOM     10  O1  <0> d           5.906   2.076  -0.013  0.00  0.00    -0.342 OA
BRANCH  10  11
ATOM     11  C7  <0> d           7.167   1.569  -0.022  0.00  0.00     0.075 A 
ATOM     12  C2  <0> d           8.259   2.425  -0.039  0.00  0.00    -0.027 A 
ATOM     13  C1  <0> d           8.049   3.917  -0.048  0.00  0.00     0.051 C 
ATOM     14  C3  <0> d           9.540   1.907  -0.043  0.00  0.00     0.028 A 
ATOM     15  C4  <0> d           9.734   0.538  -0.041  0.00  0.00     0.011 A 
ATOM     16  C5  <0> d           8.646  -0.317  -0.030  0.00  0.00     0.022 A 
ATOM     17 Br1  <0> d          11.489  -0.168  -0.054  0.00  0.00    -0.051 Br
ATOM     18  C6  <0> d           7.364   0.196  -0.021  0.00  0.00     0.039 A 
ENDBRANCH  10  11
ENDBRANCH   9  10
ENDBRANCH   6   9
ENDBRANCH   1   5
BRANCH   2  19
ATOM     19  C11 <0> d          -1.310   1.919   0.040  0.00  0.00     0.033 A 
ATOM     20  C16 <0> d          -2.514   1.210   0.045  0.00  0.00     0.019 A 
ATOM     21  C15 <0> d          -3.711   1.889   0.048  0.00  0.00     0.030 A 
ATOM     22  C14 <0> d          -3.723   3.281   0.045  0.00  0.00     0.034 A 
ATOM     23  C13 <0> d          -2.526   3.990   0.039  0.00  0.00     0.030 A 
ATOM     24  C12 <0> d          -1.325   3.317   0.042  0.00  0.00     0.019 A 
BRANCH  22  25
ATOM     25  N3  <0> d          -4.938   3.966   0.047  0.00  0.00    -0.327 N 
ATOM     26  C17 <0> d          -5.996   3.464  -0.621  0.00  0.00     0.225 C 
ATOM     27  O4  <0> d          -5.917   2.377  -1.153  0.00  0.00    -0.273 OA
ATOM     28  H15 <0> d          -5.021   4.803   0.529  0.00  0.00     0.169 HD
BRANCH  26  29
ATOM     29  C18 <0> d          -7.277   4.253  -0.705  0.00  0.00     0.070 C 
ATOM     30  C19 <0> d          -7.006   5.592  -1.394  0.00  0.00     0.019 C 
ATOM     31  C20 <0> d          -8.309   3.464  -1.512  0.00  0.00     0.019 C 
ENDBRANCH  26  29
ENDBRANCH  22  25
ENDBRANCH   2  19
TORSDOF 7
