REMARK  5 active torsions:
REMARK  status: ('A' for Active; 'I' for Inactive)
REMARK    1  A    between atoms: C5_5  and  C9_9 
REMARK       I    between atoms: C9_9  and  N1_11 
REMARK    2  A    between atoms: C11_13  and  C18_21 
REMARK       I    between atoms: C18_21  and  N3_23 
REMARK    3  A    between atoms: N3_23  and  C19_24 
REMARK    4  A    between atoms: C19_24  and  C20_25 
REMARK    5  A    between atoms: C20_25  and  C21_26 
ROOT
ATOM      1  C21 <0> d           0.463  -6.778  -9.427  0.00  0.00    -0.022 A 
ATOM      2  C22 <0> d           0.081  -7.963  -9.928  0.00  0.00     0.013 A 
ATOM      3  N4  <0> d          -0.489  -7.788 -11.159  0.00  0.00    -0.359 N 
ATOM      4  H2  <0> d          -0.842  -8.500 -11.716  0.00  0.00     0.166 HD
ATOM      5  C23 <0> d          -0.489  -6.454 -11.491  0.00  0.00     0.043 A 
ATOM      6  C24 <0> d           0.103  -5.760 -10.418  0.00  0.00     0.000 A 
ATOM      7  C25 <0> d           0.236  -4.375 -10.473  0.00  0.00     0.037 A 
ATOM      8  C26 <0> d          -0.224  -3.688 -11.593  0.00  0.00     0.045 A 
ATOM      9  C27 <0> d          -0.815  -4.390 -12.653  0.00  0.00     0.025 A 
ATOM     10  C28 <0> d          -0.940  -5.747 -12.604  0.00  0.00     0.032 A 
ATOM     11  C29 <0> d          -0.095  -2.264 -11.662  0.00  0.00     0.099 C 
ATOM     12  N5  <0> d           0.008  -1.133 -11.717  0.00  0.00    -0.191 NA
ATOM     13  C30 <0> d           0.256  -9.291  -9.236  0.00  0.00     0.068 C 
ENDROOT
BRANCH   1  14
ATOM     14  C20 <0> d           1.130  -6.539  -8.097  0.00  0.00     0.061 C 
BRANCH  14  15
ATOM     15  C19 <0> d           0.062  -6.311  -7.025  0.00  0.00     0.127 C 
BRANCH  15  16
ATOM     16  N3  <0> d           0.710  -6.079  -5.732  0.00  0.00    -0.360 N 
ATOM     17  C18 <0> d          -0.038  -5.853  -4.634  0.00  0.00     0.224 C 
ATOM     18  O2  <0> d          -1.248  -5.842  -4.717  0.00  0.00    -0.273 OA
ATOM     19  H25 <0> d           1.678  -6.088  -5.666  0.00  0.00     0.162 HD
BRANCH  17  20
ATOM     20  C11 <0> d           0.629  -5.614  -3.304  0.00  0.00     0.106 C 
ATOM     21  C10 <0> d          -0.204  -4.628  -2.454  0.00  0.00     0.141 C 
ATOM     22  N1  <0> d          -0.080  -5.132  -1.066  0.00  0.00    -0.346 N 
ATOM     23  C9  <0> d           0.059  -4.412   0.065  0.00  0.00     0.254 C 
ATOM     24  C13 <0> d          -0.138  -6.607  -1.204  0.00  0.00     0.136 C 
ATOM     25  O1  <0> d           0.240  -4.977   1.126  0.00  0.00    -0.267 OA
ATOM     26  C12 <0> d           0.662  -6.911  -2.478  0.00  0.00    -0.007 C 
ATOM     27  C17 <0> d           0.008  -8.050  -3.255  0.00  0.00     0.039 C 
ATOM     28  C14 <0> d           2.100  -7.271  -2.118  0.00  0.00     0.039 C 
ATOM     29  C16 <0> d           0.105  -9.341  -2.438  0.00  0.00     0.233 C 
ATOM     30  N2  <0> d           1.515  -9.650  -2.173  0.00  0.00    -0.075 N 
ATOM     31  C15 <0> d           2.112  -8.594  -1.346  0.00  0.00     0.233 C 
ATOM     32  H20 <0> d           2.014  -9.713  -3.047  0.00  0.00     0.277 HD
ATOM     33  H36 <0> d           1.579 -10.532  -1.687  0.00  0.00     0.277 HD
BRANCH  23  34
ATOM     34  C5  <0> d          -0.007  -2.936   0.015  0.00  0.00     0.038 A 
ATOM     35  C4  <0> d           0.786  -2.229  -0.890  0.00  0.00     0.018 A 
ATOM     36  C3  <0> d           0.719  -0.852  -0.932  0.00  0.00     0.008 A 
ATOM     37  C2  <0> d          -0.133  -0.172  -0.080  0.00  0.00    -0.061 A 
ATOM     38  C1  <0> d          -0.201   1.333  -0.130  0.00  0.00     0.048 C 
ATOM     39  C7  <0> d          -0.917  -0.866   0.824  0.00  0.00     0.014 A 
ATOM     40  C6  <0> d          -0.864  -2.244   0.872  0.00  0.00    -0.046 A 
ATOM     41  C8  <0> d          -1.723  -2.999   1.853  0.00  0.00     0.049 C 
ENDBRANCH  23  34
ENDBRANCH  17  20
ENDBRANCH  15  16
ENDBRANCH  14  15
ENDBRANCH   1  14
TORSDOF 5
