REMARK  4 active torsions:
REMARK  status: ('A' for Active; 'I' for Inactive)
REMARK    1  A    between atoms: C2_2  and  N1_3 
REMARK    2  A    between atoms: N1_3  and  C3_4 
REMARK    3  A    between atoms: C7_11  and  C8_13 
REMARK    4  A    between atoms: C8_13  and  N6_14 
ROOT
ATOM      1  C3  <0> d           0.857  -1.847   1.399  0.00  0.00     0.141 A 
ATOM      2  C4  <0> d           1.530  -2.332   2.537  0.00  0.00     0.076 A 
ATOM      3  C5  <0> d           2.167  -1.732   3.645  0.00  0.00     0.158 A 
ATOM      4  N2  <0> d           2.632  -2.675   4.414  0.00  0.00    -0.182 NA
ATOM      5  N3  <0> d           2.331  -3.926   3.861  0.00  0.00    -0.256 N 
ATOM      6  C6  <0> d           1.649  -3.726   2.698  0.00  0.00     0.163 A 
ATOM      7  N4  <0> d           1.123  -4.527   1.772  0.00  0.00    -0.211 NA
ATOM      8  C7  <0> d           0.503  -4.026   0.726  0.00  0.00     0.159 A 
ATOM      9  N5  <0> d           0.362  -2.726   0.535  0.00  0.00    -0.213 NA
ATOM     10  C14 <0> d           2.690  -5.226   4.433  0.00  0.00     0.182 C 
ENDROOT
BRANCH   8  11
ATOM     11  C8  <0> d          -0.074  -4.973  -0.294  0.00  0.00     0.352 C 
BRANCH  11  12
ATOM     12  N6  <0> d          -1.458  -5.303   0.072  0.00  0.00     0.100 N 
ATOM     13  C12 <0> d          -1.976  -6.400  -0.758  0.00  0.00     0.304 C 
ATOM     14  C11 <0> d          -3.396  -6.751  -0.303  0.00  0.00     0.145 C 
ATOM     15  O1  <0> d          -4.216  -5.582  -0.378  0.00  0.00    -0.383 OA
ATOM     16  C13 <0> d          -3.971  -7.838  -1.214  0.00  0.00     0.041 C 
ATOM     17  C10 <0> d          -3.742  -4.493   0.419  0.00  0.00     0.198 C 
ATOM     18  C9  <0> d          -2.326  -4.120  -0.028  0.00  0.00     0.299 C 
ENDBRANCH  11  12
ENDBRANCH   8  11
BRANCH   1  19
ATOM     19  N1  <0> d           0.711  -0.489   1.189  0.00  0.00    -0.374 N 
ATOM     20  H7  <0> d           1.077   0.142   1.827  0.00  0.00     0.161 HD
BRANCH  19  21
ATOM     21  C2  <0> d           0.002  -0.004   0.002  0.00  0.00     0.116 C 
ATOM     22  C1  <0> d          -0.019   1.526   0.010  0.00  0.00     0.026 C 
ENDBRANCH  19  21
ENDBRANCH   1  19
TORSDOF 4
