REMARK  4 active torsions:
REMARK  status: ('A' for Active; 'I' for Inactive)
REMARK    1  A    between atoms: N2_5  and  C6_8 
REMARK    2  A    between atoms: C6_8  and  C7_9 
REMARK    3  A    between atoms: C7_9  and  C8_10 
REMARK    4  A    between atoms: C7_9  and  N3_20 
ROOT
ATOM      1  C7  <0> d           1.503  -3.675   1.798  0.00  0.00     0.236 C 
ENDROOT
BRANCH   1   2
ATOM      2  C6  <0> d           0.054  -3.280   1.509  0.00  0.00     0.188 C 
BRANCH   2   3
ATOM      3  N2  <0> d           0.034  -2.085   0.661  0.00  0.00    -0.271 N 
ATOM      4  N1  <0> d           0.028  -2.068  -0.740  0.00  0.00    -0.177 NA
ATOM      5  C3  <0> d           0.009  -0.821  -1.133  0.00  0.00     0.059 A 
ATOM      6  C2  <0> d           0.002  -0.004   0.002  0.00  0.00    -0.012 A 
ATOM      7  C16 <0> d          -0.004  -0.346  -2.564  0.00  0.00     0.073 C 
ATOM      8  C1  <0> d          -0.018   1.503   0.010  0.00  0.00     0.052 C 
ATOM      9  C4  <0> d           0.023  -0.806   1.092  0.00  0.00     0.034 A 
ATOM     10  C5  <0> d           0.030  -0.352   2.529  0.00  0.00     0.070 C 
ENDBRANCH   2   3
ENDBRANCH   1   2
BRANCH   1  11
ATOM     11  C8  <0> d           1.527  -4.971   2.566  0.00  0.00    -0.024 A 
ATOM     12  C13 <0> d           1.784  -6.159   1.908  0.00  0.00     0.049 A 
ATOM     13  C12 <0> d           1.811  -7.353   2.613  0.00  0.00     0.102 A 
ATOM     14  C11 <0> d           1.571  -7.353   3.982  0.00  0.00     0.102 A 
ATOM     15  O1  <0> d           2.065  -8.515   1.951  0.00  0.00    -0.346 OA
ATOM     16  C10 <0> d           1.307  -6.158   4.636  0.00  0.00     0.040 A 
ATOM     17  O2  <0> d           1.593  -8.513   4.693  0.00  0.00    -0.346 OA
ATOM     18  C9  <0> d           1.285  -4.971   3.928  0.00  0.00     0.012 A 
ATOM     19  C15 <0> d           1.488  -9.729   3.944  0.00  0.00     0.202 C 
ATOM     20  C14 <0> d           2.446  -9.640   2.748  0.00  0.00     0.202 C 
ENDBRANCH   1  11
BRANCH   1  21
ATOM     21  N3  <0> d           2.148  -2.623   2.595  0.00  0.00    -0.069 N 
ATOM     22  H17 <0> d           3.104  -2.883   2.785  0.00  0.00     0.275 HD
ATOM     23  H18 <0> d           2.133  -1.755   2.080  0.00  0.00     0.275 HD
ATOM     24  H22 <0> d           1.651  -2.507   3.465  0.00  0.00     0.275 HD
ENDBRANCH   1  21
TORSDOF 4
