REMARK  4 active torsions:
REMARK  status: ('A' for Active; 'I' for Inactive)
REMARK    1  A    between atoms: C5_5  and  C8_8 
REMARK    2  A    between atoms: C9_10  and  S1_15 
REMARK    3  A    between atoms: S1_15  and  C11_16 
REMARK    4  A    between atoms: C11_16  and  C12_17 
REMARK       I    between atoms: C12_17  and  N5_19 
ROOT
ATOM      1  S1  <0> d           2.721  -5.734   2.647  0.00  0.00    -0.084 SA
ENDROOT
BRANCH   1   2
ATOM      2  C9  <0> d           1.966  -5.230   1.137  0.00  0.00     0.157 C 
ATOM      3  N1  <0> d           0.760  -4.759   1.166  0.00  0.00    -0.344 N 
ATOM      4  C8  <0> d           0.059  -4.275  -0.021  0.00  0.00     0.235 C 
ATOM      5  H26 <0> d           0.299  -4.726   2.019  0.00  0.00     0.164 HD
ATOM      6  N3  <0> d           0.751  -4.750  -1.230  0.00  0.00    -0.199 N 
ATOM      7  C10 <0> d           2.141  -4.758  -1.181  0.00  0.00     0.697 C 
ATOM      8  H24 <0> d           0.266  -5.040  -2.018  0.00  0.00     0.180 HD
ATOM      9  N2  <0> d           2.679  -5.349  -0.040  0.00  0.00    -0.169 N 
ATOM     10  N4  <0> d           2.881  -4.254  -2.126  0.00  0.00    -0.118 NA
ATOM     11  H25 <0> d           3.523  -5.826  -0.071  0.00  0.00     0.186 HD
ATOM     12  H9  <0> d           2.465  -3.851  -2.905  0.00  0.00     0.206 HD
BRANCH   4  13
ATOM     13  C5  <0> d           0.040  -2.768  -0.013  0.00  0.00    -0.016 A 
ATOM     14  C4  <0> d           0.025  -2.071  -1.206  0.00  0.00     0.011 A 
ATOM     15  C3  <0> d           0.006  -0.689  -1.199  0.00  0.00     0.007 A 
ATOM     16  C2  <0> d           0.002  -0.004   0.002  0.00  0.00    -0.062 A 
ATOM     17  C1  <0> d          -0.018   1.503   0.010  0.00  0.00     0.048 C 
ATOM     18  C7  <0> d           0.023  -0.702   1.195  0.00  0.00     0.007 A 
ATOM     19  C6  <0> d           0.037  -2.084   1.188  0.00  0.00     0.011 A 
ENDBRANCH   4  13
ENDBRANCH   1   2
BRANCH   1  20
ATOM     20  C11 <0> d           4.365  -6.312   2.144  0.00  0.00     0.186 C 
BRANCH  20  21
ATOM     21  C12 <0> d           5.128  -6.778   3.358  0.00  0.00     0.238 C 
ATOM     22  O1  <0> d           4.612  -6.725   4.455  0.00  0.00    -0.272 OA
ATOM     23  N5  <0> d           6.382  -7.253   3.225  0.00  0.00    -0.281 N 
ATOM     24  C22 <0> d           7.111  -7.692   4.338  0.00  0.00     0.049 A 
ATOM     25  C13 <0> d           7.001  -7.318   1.968  0.00  0.00     0.049 A 
ATOM     26  C21 <0> d           7.280  -9.052   4.451  0.00  0.00    -0.030 A 
ATOM     27  C23 <0> d           7.647  -6.826   5.275  0.00  0.00     0.030 A 
ATOM     28  C20 <0> d           6.605  -9.895   3.398  0.00  0.00     0.045 C 
ATOM     29  C26 <0> d           8.019  -9.590   5.478  0.00  0.00     0.009 A 
ATOM     30  C19 <0> d           7.388  -9.887   2.097  0.00  0.00     0.045 C 
ATOM     31  C18 <0> d           7.502  -8.514   1.476  0.00  0.00    -0.030 A 
ATOM     32  C17 <0> d           8.155  -8.483   0.241  0.00  0.00     0.009 A 
ATOM     33  C16 <0> d           8.269  -7.319  -0.482  0.00  0.00     0.001 A 
ATOM     34  C15 <0> d           7.735  -6.139   0.005  0.00  0.00     0.002 A 
ATOM     35  C14 <0> d           7.104  -6.144   1.231  0.00  0.00     0.030 A 
ATOM     36  C25 <0> d           8.579  -8.720   6.423  0.00  0.00     0.001 A 
ATOM     37  C24 <0> d           8.384  -7.355   6.322  0.00  0.00     0.002 A 
ENDBRANCH  20  21
ENDBRANCH   1  20
TORSDOF 4
