REMARK  5 active torsions:
REMARK  status: ('A' for Active; 'I' for Inactive)
REMARK    1  A    between atoms: C2_2  and  C3_3 
REMARK    2  A    between atoms: C3_3  and  C4_4 
REMARK    3  A    between atoms: N3_8  and  C6_9 
REMARK    4  A    between atoms: C6_9  and  C7_10 
REMARK       I    between atoms: C7_10  and  N4_12 
REMARK    5  A    between atoms: N4_12  and  C8_13 
ROOT
ATOM      1  C7  <0> d          -2.810  -2.488   3.060  0.00  0.00     0.240 C 
ATOM      2  O1  <0> d          -3.738  -2.866   2.376  0.00  0.00    -0.271 OA
ATOM      3  N4  <0> d          -3.043  -1.961   4.278  0.00  0.00    -0.326 N 
ATOM      4  H10 <0> d          -2.299  -1.730   4.856  0.00  0.00     0.169 HD
ENDROOT
BRANCH   3   5
ATOM      5  C8  <0> d          -4.358  -1.748   4.710  0.00  0.00     0.037 A 
ATOM      6  C13 <0> d          -5.339  -1.400   3.794  0.00  0.00     0.061 A 
ATOM      7  C12 <0> d          -6.641  -1.195   4.223  0.00  0.00     0.067 A 
ATOM      8  C11 <0> d          -6.957  -1.328   5.577  0.00  0.00     0.065 A 
ATOM      9  N5  <0> d          -7.819  -0.849   3.566  0.00  0.00    -0.302 N 
ATOM     10  C10 <0> d          -5.971  -1.671   6.489  0.00  0.00     0.034 A 
ATOM     11  N6  <0> d          -8.320  -1.059   5.699  0.00  0.00    -0.302 N 
ATOM     12  C9  <0> d          -4.676  -1.880   6.057  0.00  0.00     0.032 A 
ATOM     13  C14 <0> d          -8.808  -0.775   4.477  0.00  0.00     0.329 A 
ATOM     14  C15 <0> d          -9.090  -1.081   6.946  0.00  0.00     0.161 C 
ATOM     15  O2  <0> d          -9.966  -0.494   4.233  0.00  0.00    -0.246 OA
ATOM     16  C16 <0> d          -7.960  -0.607   2.128  0.00  0.00     0.161 C 
ENDBRANCH   3   5
BRANCH   1  17
ATOM     17  C6  <0> d          -1.398  -2.608   2.547  0.00  0.00     0.235 C 
BRANCH  17  18
ATOM     18  N3  <0> d          -1.413  -3.207   1.210  0.00  0.00    -0.302 N 
ATOM     19  C4  <0> d          -1.498  -2.552   0.013  0.00  0.00     0.131 A 
ATOM     20  N1  <0> d          -1.475  -3.455  -0.926  0.00  0.00    -0.134 NA
ATOM     21  N2  <0> d          -1.385  -4.628  -0.407  0.00  0.00    -0.122 NA
ATOM     22  C5  <0> d          -1.347  -4.535   0.901  0.00  0.00     0.203 A 
ATOM     23  S1  <0> d          -1.227  -5.872   2.043  0.00  0.00    -0.009 SA
BRANCH  19  24
ATOM     24  C3  <0> d          -1.595  -1.061  -0.184  0.00  0.00     0.080 C 
BRANCH  24  25
ATOM     25  C2  <0> d          -0.189  -0.470  -0.307  0.00  0.00     0.003 C 
ATOM     26  C1  <0> d          -0.288   1.043  -0.507  0.00  0.00     0.005 C 
ENDBRANCH  24  25
ENDBRANCH  19  24
ENDBRANCH  17  18
ENDBRANCH   1  17
TORSDOF 5
