REMARK  5 active torsions:
REMARK  status: ('A' for Active; 'I' for Inactive)
REMARK    1  A    between atoms: N1_12  and  C12_16 
REMARK    2  A    between atoms: C12_16  and  C13_17 
REMARK    3  A    between atoms: C13_17  and  O4_19 
REMARK    4  A    between atoms: O4_19  and  C14_20 
REMARK    5  A    between atoms: C14_20  and  C15_21 
REMARK       I    between atoms: C15_21  and  N3_23 
ROOT
ATOM      1  C1  <0> d          -0.019   1.528   0.010  0.00  0.00     0.010 C 
ATOM      2  C2  <0> d           0.002  -0.004   0.002  0.00  0.00    -0.015 C 
ATOM      3  C3  <0> d          -1.435  -0.528   0.021  0.00  0.00     0.045 C 
ATOM      4  C4  <0> d          -1.428  -2.050  -0.036  0.00  0.00     0.117 C 
ATOM      5  C5  <0> d          -0.576  -2.676   1.050  0.00  0.00     0.050 C 
ATOM      6  C6  <0> d           0.781  -2.031   1.272  0.00  0.00    -0.045 C 
ATOM      7  C7  <0> d           0.719  -0.508   1.253  0.00  0.00     0.013 C 
ATOM      8  C8  <0> d           1.794  -2.527   0.236  0.00  0.00     0.015 C 
ATOM      9  C9  <0> d           1.294  -2.463   2.663  0.00  0.00     0.015 C 
ATOM     10  C10 <0> d          -1.044  -2.534  -1.413  0.00  0.00     0.256 C 
ATOM     11  O1  <0> d          -0.057  -2.253  -2.059  0.00  0.00    -0.270 OA
ATOM     12  N1  <0> d          -2.050  -3.343  -1.811  0.00  0.00    -0.259 N 
ATOM     13  C11 <0> d          -3.063  -3.330  -0.939  0.00  0.00     0.326 C 
ATOM     14  O2  <0> d          -4.089  -3.967  -1.084  0.00  0.00    -0.247 OA
ATOM     15  N2  <0> d          -2.817  -2.537   0.118  0.00  0.00    -0.324 N 
ATOM     16  H17 <0> d          -3.419  -2.317   0.843  0.00  0.00     0.165 HD
ENDROOT
BRANCH  12  17
ATOM     17  C12 <0> d          -2.030  -4.133  -3.044  0.00  0.00     0.247 C 
BRANCH  17  18
ATOM     18  C13 <0> d          -1.431  -5.488  -2.763  0.00  0.00     0.277 C 
ATOM     19  O3  <0> d          -1.060  -5.764  -1.647  0.00  0.00    -0.263 OA
BRANCH  18  20
ATOM     20  O4  <0> d          -1.311  -6.387  -3.752  0.00  0.00    -0.311 OA
BRANCH  20  21
ATOM     21  C14 <0> d          -0.735  -7.650  -3.414  0.00  0.00     0.282 C 
BRANCH  21  22
ATOM     22  C15 <0> d          -0.682  -8.523  -4.642  0.00  0.00     0.250 C 
ATOM     23  O5  <0> d          -1.097  -8.104  -5.701  0.00  0.00    -0.271 OA
ATOM     24  N3  <0> d          -0.174  -9.768  -4.562  0.00  0.00    -0.287 N 
ATOM     25  C19 <0> d           0.309 -10.319  -3.435  0.00  0.00     0.226 C 
ATOM     26  C16 <0> d          -0.070 -10.695  -5.695  0.00  0.00     0.135 C 
ATOM     27  C18 <0> d           0.802 -11.723  -3.712  0.00  0.00     0.105 C 
ATOM     28  O6  <0> d           0.343  -9.772  -2.354  0.00  0.00    -0.273 OA
ATOM     29  C17 <0> d           0.937 -11.778  -5.251  0.00  0.00     0.029 C 
ENDBRANCH  21  22
ENDBRANCH  20  21
ENDBRANCH  18  20
ENDBRANCH  17  18
ENDBRANCH  12  17
TORSDOF 5
