REMARK  3 active torsions:
REMARK  status: ('A' for Active; 'I' for Inactive)
REMARK    1  A    between atoms: C2_2  and  C3_3 
REMARK    2  A    between atoms: C2_2  and  N3_9 
REMARK    3  A    between atoms: N3_9  and  C6_10 
ROOT
ATOM      1  N3  <0> d           0.765  -0.382   1.199  0.00  0.00     0.100 N 
ATOM      2  H9  <0> d           0.507   0.139   2.024  0.00  0.00     0.317 HD
ENDROOT
BRANCH   1   3
ATOM      3  C2  <0> d           0.002   0.072   0.029  0.00  0.00     0.270 C 
ATOM      4  C1  <0> d          -1.368   0.582   0.480  0.00  0.00     0.049 C 
BRANCH   3   5
ATOM      5  C3  <0> d          -0.180  -1.077  -0.929  0.00  0.00     0.088 A 
ATOM      6  N2  <0> d          -0.166  -2.347  -0.616  0.00  0.00    -0.178 NA
ATOM      7  N1  <0> d          -0.372  -3.089  -1.786  0.00  0.00    -0.289 N 
ATOM      8  C5  <0> d          -0.502  -2.220  -2.811  0.00  0.00     0.111 A 
ATOM      9  H2  <0> d          -0.412  -4.056  -1.848  0.00  0.00     0.188 HD
ATOM     10  C4  <0> d          -0.387  -0.969  -2.308  0.00  0.00     0.049 A 
ENDBRANCH   3   5
ENDBRANCH   1   3
BRANCH   1  11
ATOM     11  C6  <0> d           2.210  -0.294   0.952  0.00  0.00     0.247 C 
ATOM     12  C10 <0> d           2.940  -1.322   1.819  0.00  0.00     0.269 C 
ATOM     13  N4  <0> d           4.385  -1.234   1.577  0.00  0.00    -0.073 N 
ATOM     14  C9  <0> d           4.880   0.087   1.983  0.00  0.00     0.234 C 
ATOM     15  C11 <0> d           5.075  -2.273   2.353  0.00  0.00     0.269 C 
ATOM     16  H21 <0> d           4.569  -1.373   0.595  0.00  0.00     0.279 HD
ATOM     17  C8  <0> d           4.224   1.169   1.121  0.00  0.00     0.030 C 
ATOM     18  C7  <0> d           2.705   1.111   1.308  0.00  0.00     0.039 C 
ENDBRANCH   1  11
TORSDOF 3
