REMARK  3 active torsions:
REMARK  status: ('A' for Active; 'I' for Inactive)
REMARK    1  A    between atoms: C10_12  and  N2_17 
REMARK    2  A    between atoms: N2_17  and  S1_18 
REMARK    3  A    between atoms: S1_18  and  C14_21 
ROOT
ATOM      1  C1  <0> d           4.070   3.071   0.192  0.00  0.00     0.002 A 
ATOM      2  C2  <0> d           3.132   3.326  -0.790  0.00  0.00     0.003 A 
ATOM      3  C3  <0> d           1.879   2.746  -0.717  0.00  0.00     0.039 A 
ATOM      4  C4  <0> d           1.557   1.908   0.342  0.00  0.00     0.102 A 
ATOM      5  C5  <0> d           2.488   1.677   1.346  0.00  0.00     0.069 A 
ATOM      6  C6  <0> d           3.752   2.252   1.257  0.00  0.00     0.032 A 
ATOM      7  N1  <0> d           2.182   0.887   2.454  0.00  0.00    -0.320 N 
ATOM      8  C7  <0> d           1.474  -0.235   2.443  0.00  0.00     0.259 C 
ATOM      9  O1  <0> d           1.325  -0.814   3.501  0.00  0.00    -0.267 OA
ATOM     10  C8  <0> d           0.857  -0.833   1.251  0.00  0.00     0.068 A 
ATOM     11  C9  <0> d           0.820  -2.223   1.113  0.00  0.00     0.050 A 
ATOM     12  C10 <0> d           0.180  -2.793   0.026  0.00  0.00     0.043 A 
ATOM     13  C11 <0> d          -0.427  -1.985  -0.929  0.00  0.00     0.033 A 
ATOM     14  C12 <0> d          -0.382  -0.611  -0.806  0.00  0.00     0.040 A 
ATOM     15  C13 <0> d           0.268  -0.025   0.271  0.00  0.00     0.092 A 
ATOM     16  O2  <0> d           0.334   1.323   0.363  0.00  0.00    -0.307 OA
ATOM     17  H5  <0> d           2.519   1.185   3.313  0.00  0.00     0.169 HD
ENDROOT
BRANCH  12  18
ATOM     18  N2  <0> d           0.143  -4.186  -0.113  0.00  0.00    -0.280 N 
ATOM     19  H9  <0> d          -0.451  -4.713   0.444  0.00  0.00     0.179 HD
BRANCH  18  20
ATOM     20  S1  <0> d           1.115  -4.933  -1.226  0.00  0.00     0.269 S 
ATOM     21  O3  <0> d           0.885  -6.329  -1.094  0.00  0.00    -0.200 OA
ATOM     22  O4  <0> d           0.930  -4.243  -2.454  0.00  0.00    -0.200 OA
BRANCH  20  23
ATOM     23  C14 <0> d           2.784  -4.649  -0.736  0.00  0.00     0.120 A 
ATOM     24  S2  <0> d           3.838  -3.253  -1.094  0.00  0.00    -0.088 SA
ATOM     25  C17 <0> d           5.295  -3.809  -0.223  0.00  0.00     0.051 A 
ATOM     26  C16 <0> d           4.888  -5.005   0.269  0.00  0.00     0.009 A 
ATOM     27  C15 <0> d           3.601  -5.435   0.006  0.00  0.00     0.033 A 
ENDBRANCH  20  23
ENDBRANCH  18  20
ENDBRANCH  12  18
TORSDOF 3
