REMARK  6 active torsions:
REMARK  status: ('A' for Active; 'I' for Inactive)
REMARK    1  A    between atoms: N1_6  and  C6_9 
REMARK    2  A    between atoms: C6_9  and  C7_10 
REMARK    3  A    between atoms: C7_10  and  O2_11 
REMARK    4  A    between atoms: O2_11  and  C8_12 
REMARK    5  A    between atoms: C11_15  and  C14_18 
REMARK    6  A    between atoms: C14_18  and  C15_19 
ROOT
ATOM      1  C8  <0> d           1.587  -4.574  -3.409  0.00  0.00     0.068 A 
ATOM      2  C9  <0> d           0.632  -5.348  -4.053  0.00  0.00     0.037 A 
ATOM      3  C10 <0> d           0.816  -5.713  -5.372  0.00  0.00     0.010 A 
ATOM      4  C11 <0> d           1.950  -5.306  -6.051  0.00  0.00    -0.052 A 
ATOM      5  C12 <0> d           2.903  -4.535  -5.412  0.00  0.00     0.010 A 
ATOM      6  C13 <0> d           2.721  -4.163  -4.094  0.00  0.00     0.037 A 
ENDROOT
BRANCH   1   7
ATOM      7  O2  <0> d           1.408  -4.214  -2.110  0.00  0.00    -0.350 OA
BRANCH   7   8
ATOM      8  C7  <0> d           0.217  -4.673  -1.468  0.00  0.00     0.196 C 
BRANCH   8   9
ATOM      9  C6  <0> d           0.191  -4.172  -0.022  0.00  0.00     0.160 C 
BRANCH   9  10
ATOM     10  N1  <0> d           0.097  -2.710  -0.014  0.00  0.00    -0.307 N 
ATOM     11  C4  <0> d          -1.113  -2.111  -0.005  0.00  0.00     0.250 A 
ATOM     12  C3  <0> d          -1.167  -0.702   0.004  0.00  0.00     0.101 A 
ATOM     13  O1  <0> d          -2.136  -2.774  -0.004  0.00  0.00    -0.268 OA
ATOM     14  C2  <0> d           0.002  -0.004   0.002  0.00  0.00     0.037 A 
ATOM     15  C1  <0> d          -0.018   1.503   0.010  0.00  0.00     0.070 C 
ATOM     16  N2  <0> d           1.167  -0.657  -0.013  0.00  0.00    -0.248 NA
ATOM     17  C5  <0> d           1.218  -1.962  -0.015  0.00  0.00     0.212 A 
ENDBRANCH   9  10
ENDBRANCH   8   9
ENDBRANCH   7   8
ENDBRANCH   1   7
BRANCH   4  18
ATOM     18  C14 <0> d           2.148  -5.705  -7.491  0.00  0.00     0.107 C 
BRANCH  18  19
ATOM     19  C15 <0> d           1.541  -4.660  -8.390  0.00  0.00     0.075 C 
ATOM     20  S1  <0> d           0.828  -3.377  -7.757  0.00  0.00    -0.066 SA
ATOM     21  N3  <0> d           1.599  -4.807  -9.729  0.00  0.00    -0.393 N 
ATOM     22  H16 <0> d           2.031  -5.585 -10.113  0.00  0.00     0.156 HD
ATOM     23  H17 <0> d           1.208  -4.134 -10.308  0.00  0.00     0.156 HD
ENDBRANCH  18  19
ENDBRANCH   4  18
TORSDOF 6
