REMARK  6 active torsions:
REMARK  status: ('A' for Active; 'I' for Inactive)
REMARK    1  A    between atoms: C4_4  and  C17_22 
REMARK    2  A    between atoms: C5_5  and  C7_7 
REMARK    3  A    between atoms: C7_7  and  N1_8 
REMARK       I    between atoms: N1_8  and  C8_9 
REMARK    4  A    between atoms: C8_9  and  C9_11 
REMARK    5  A    between atoms: C20_25  and  C23_28 
REMARK    6  A    between atoms: C23_28  and  N3_29 
ROOT
ATOM      1  C1  <0> d          -0.015   1.364  -0.219  0.00  0.00     0.001 A 
ATOM      2  C2  <0> d           1.164   2.084  -0.149  0.00  0.00     0.001 A 
ATOM      3  C3  <0> d           2.362   1.433   0.066  0.00  0.00     0.013 A 
ATOM      4  C4  <0> d           2.382   0.047   0.212  0.00  0.00    -0.018 A 
ATOM      5  C5  <0> d           1.191  -0.673   0.141  0.00  0.00    -0.029 A 
ATOM      6  C6  <0> d          -0.001  -0.011  -0.075  0.00  0.00     0.010 A 
ENDROOT
BRANCH   5   7
ATOM      7  C7  <0> d           1.205  -2.171   0.298  0.00  0.00     0.162 C 
BRANCH   7   8
ATOM      8  N1  <0> d           1.430  -2.513   1.704  0.00  0.00    -0.353 N 
ATOM      9  C8  <0> d           1.578  -3.802   2.069  0.00  0.00     0.252 C 
ATOM     10  O1  <0> d           1.525  -4.681   1.231  0.00  0.00    -0.268 OA
ATOM     11  H7  <0> d           1.472  -1.812   2.373  0.00  0.00     0.163 HD
BRANCH   9  12
ATOM     12  C9  <0> d           1.804  -4.147   3.486  0.00  0.00     0.034 A 
ATOM     13  C14 <0> d           1.958  -5.484   3.866  0.00  0.00     0.056 A 
ATOM     14  C13 <0> d           2.176  -5.799   5.191  0.00  0.00     0.097 A 
ATOM     15  C12 <0> d           2.230  -4.785   6.151  0.00  0.00     0.068 A 
ATOM     16  O2  <0> d           2.336  -7.094   5.576  0.00  0.00    -0.340 OA
ATOM     17  C11 <0> d           2.071  -3.458   5.775  0.00  0.00     0.033 A 
ATOM     18  N2  <0> d           2.444  -5.123   7.490  0.00  0.00    -0.323 N 
ATOM     19  C10 <0> d           1.860  -3.138   4.451  0.00  0.00     0.019 A 
ATOM     20  C16 <0> d           2.905  -6.357   7.789  0.00  0.00     0.246 C 
ATOM     21  H13 <0> d           2.265  -4.481   8.194  0.00  0.00     0.169 HD
ATOM     22  C15 <0> d           3.214  -7.331   6.680  0.00  0.00     0.278 C 
ATOM     23  O3  <0> d           3.070  -6.681   8.947  0.00  0.00    -0.271 OA
ENDBRANCH   9  12
ENDBRANCH   7   8
ENDBRANCH   5   7
BRANCH   4  24
ATOM     24  C17 <0> d           3.666  -0.659   0.443  0.00  0.00    -0.025 A 
ATOM     25  C22 <0> d           4.470  -0.312   1.528  0.00  0.00     0.013 A 
ATOM     26  C21 <0> d           5.661  -0.976   1.741  0.00  0.00     0.010 A 
ATOM     27  C20 <0> d           6.063  -1.975   0.873  0.00  0.00    -0.040 A 
ATOM     28  C19 <0> d           5.273  -2.319  -0.209  0.00  0.00     0.010 A 
ATOM     29  C18 <0> d           4.077  -1.666  -0.428  0.00  0.00     0.013 A 
BRANCH  27  30
ATOM     30  C23 <0> d           7.368  -2.692   1.107  0.00  0.00     0.164 C 
BRANCH  30  31
ATOM     31  N3  <0> d           8.445  -1.988   0.407  0.00  0.00    -0.348 N 
ATOM     32  C27 <0> d           9.182  -1.001   0.946  0.00  0.00     0.220 C 
ATOM     33  C26 <0> d          10.195  -0.500  -0.059  0.00  0.00     0.104 C 
ATOM     34  O4  <0> d           9.054  -0.577   2.075  0.00  0.00    -0.273 OA
ATOM     35  C25 <0> d           9.678  -1.034  -1.415  0.00  0.00     0.029 C 
ATOM     36  C24 <0> d           8.854  -2.264  -0.975  0.00  0.00     0.126 C 
ENDBRANCH  30  31
ENDBRANCH  27  30
ENDBRANCH   4  24
TORSDOF 6
