REMARK  3 active torsions:
REMARK  status: ('A' for Active; 'I' for Inactive)
REMARK    1  A    between atoms: C5_5  and  C9_12 
REMARK       I    between atoms: C9_12  and  N4_14 
REMARK    2  A    between atoms: C11_16  and  C18_24 
REMARK       I    between atoms: C18_24  and  N6_26 
REMARK    3  A    between atoms: N6_26  and  C19_27 
ROOT
ATOM      1  C19 <0> d          -0.256  -8.344  -7.611  0.00  0.00     0.247 C 
ATOM      2  C20 <0> d          -1.296  -9.233  -8.152  0.00  0.00     0.078 C 
ATOM      3  N7  <0> d          -2.099  -9.920  -8.569  0.00  0.00    -0.196 NA
ENDROOT
BRANCH   1   4
ATOM      4  N6  <0> d          -0.847  -7.046  -7.278  0.00  0.00    -0.348 N 
ATOM      5  C18 <0> d          -0.078  -6.066  -6.764  0.00  0.00     0.225 C 
ATOM      6  O2  <0> d           1.105  -6.260  -6.576  0.00  0.00    -0.273 OA
ATOM      7  H22 <0> d          -1.793  -6.891  -7.428  0.00  0.00     0.163 HD
BRANCH   5   8
ATOM      8  C11 <0> d          -0.686  -4.731  -6.421  0.00  0.00     0.106 C 
ATOM      9  C10 <0> d           0.059  -4.089  -5.230  0.00  0.00     0.141 C 
ATOM     10  N4  <0> d           0.089  -2.641  -5.543  0.00  0.00    -0.346 N 
ATOM     11  C9  <0> d          -0.074  -1.608  -4.693  0.00  0.00     0.257 C 
ATOM     12  C13 <0> d           0.333  -2.585  -7.005  0.00  0.00     0.136 C 
ATOM     13  O1  <0> d          -0.116  -0.470  -5.119  0.00  0.00    -0.267 OA
ATOM     14  C12 <0> d          -0.497  -3.740  -7.582  0.00  0.00    -0.007 C 
ATOM     15  C17 <0> d           0.252  -4.408  -8.731  0.00  0.00     0.039 C 
ATOM     16  C14 <0> d          -1.850  -3.222  -8.060  0.00  0.00     0.039 C 
ATOM     17  C16 <0> d           0.377  -3.421  -9.895  0.00  0.00     0.233 C 
ATOM     18  N5  <0> d          -0.961  -3.006 -10.333  0.00  0.00    -0.075 N 
ATOM     19  C15 <0> d          -1.640  -2.283  -9.251  0.00  0.00     0.233 C 
ATOM     20  H17 <0> d          -1.500  -3.822 -10.581  0.00  0.00     0.277 HD
ATOM     21  H25 <0> d          -0.878  -2.404 -11.138  0.00  0.00     0.277 HD
BRANCH  11  22
ATOM     22  C5  <0> d          -0.202  -1.859  -3.244  0.00  0.00     0.072 A 
ATOM     23  C4  <0> d          -1.040  -1.062  -2.460  0.00  0.00     0.067 A 
ATOM     24  C3  <0> d          -1.122  -1.346  -1.093  0.00  0.00     0.060 A 
ATOM     25 Cl1  <0> d          -1.952   0.238  -3.160  0.00  0.00    -0.082 Cl
ATOM     26  C2  <0> d          -1.860  -0.764   0.023  0.00  0.00     0.067 A 
ATOM     27  C7  <0> d          -0.366  -2.411  -0.560  0.00  0.00     0.159 A 
ATOM     28  C1  <0> d          -2.808   0.406  -0.050  0.00  0.00     0.073 C 
ATOM     29  N3  <0> d          -1.548  -1.435   1.095  0.00  0.00    -0.175 NA
ATOM     30  N2  <0> d          -0.642  -2.451   0.778  0.00  0.00    -0.256 N 
ATOM     31  C8  <0> d          -0.073  -3.407   1.731  0.00  0.00     0.182 C 
ATOM     32  N1  <0> d           0.417  -3.138  -1.351  0.00  0.00    -0.240 NA
ATOM     33  C6  <0> d           0.516  -2.898  -2.637  0.00  0.00     0.138 A 
ENDBRANCH  11  22
ENDBRANCH   5   8
ENDBRANCH   1   4
TORSDOF 3
