REMARK  5 active torsions:
REMARK  status: ('A' for Active; 'I' for Inactive)
REMARK    1  A    between atoms: C5_6  and  C6_7 
REMARK       I    between atoms: C6_7  and  N1_9 
REMARK    2  A    between atoms: N1_9  and  N2_10 
REMARK       I    between atoms: N2_10  and  C7_11 
REMARK       I    between atoms: C7_11  and  N3_13 
REMARK    3  A    between atoms: N3_13  and  C8_14 
REMARK    4  A    between atoms: C8_14  and  C10_16 
REMARK    5  A    between atoms: C10_16  and  N4_17 
ROOT
ATOM      1  N2  <0> d           0.058  -0.732   4.900  0.00  0.00    -0.249 N 
ATOM      2  C7  <0> d           0.080  -1.625   5.909  0.00  0.00     0.335 C 
ATOM      3  O2  <0> d           0.086  -1.239   7.062  0.00  0.00    -0.246 OA
ATOM      4  N3  <0> d           0.096  -2.945   5.640  0.00  0.00    -0.336 N 
ATOM      5  H10 <0> d           0.047   0.219   5.094  0.00  0.00     0.192 HD
ATOM      6  H11 <0> d           0.091  -3.253   4.720  0.00  0.00     0.164 HD
ENDROOT
BRANCH   1   7
ATOM      7  N1  <0> d           0.052  -1.176   3.571  0.00  0.00    -0.261 N 
ATOM      8  C6  <0> d           0.030  -0.283   2.562  0.00  0.00     0.277 C 
ATOM      9  O1  <0> d           0.016   0.910   2.805  0.00  0.00    -0.265 OA
ATOM     10  H9  <0> d           0.063  -2.126   3.378  0.00  0.00     0.190 HD
BRANCH   8  11
ATOM     11  C5  <0> d           0.023  -0.748   1.172  0.00  0.00     0.080 A 
ATOM     12  C2  <0> d           0.002  -0.004   0.002  0.00  0.00    -0.039 A 
ATOM     13  C1  <0> d          -0.018   1.503   0.010  0.00  0.00     0.050 C 
ATOM     14  C3  <0> d           0.007  -0.729  -1.166  0.00  0.00     0.015 A 
ATOM     15  C4  <0> d           0.026  -2.083  -1.101  0.00  0.00     0.051 A 
ATOM     16  S1  <0> d           0.038  -2.416   0.545  0.00  0.00    -0.096 SA
ENDBRANCH   8  11
ENDBRANCH   1   7
BRANCH   4  17
ATOM     17  C8  <0> d           0.119  -3.916   6.737  0.00  0.00     0.108 C 
ATOM     18  C9  <0> d           1.564  -4.141   7.189  0.00  0.00     0.034 C 
BRANCH  17  19
ATOM     19  C10 <0> d          -0.477  -5.241   6.258  0.00  0.00     0.259 C 
BRANCH  19  20
ATOM     20  N4  <0> d          -1.821  -5.005   5.714  0.00  0.00    -0.069 N 
ATOM     21  C15 <0> d          -2.344  -6.254   5.146  0.00  0.00     0.239 C 
ATOM     22  C14 <0> d          -3.709  -5.995   4.506  0.00  0.00     0.008 C 
ATOM     23  C13 <0> d          -4.676  -5.473   5.572  0.00  0.00     0.011 C 
ATOM     24  C16 <0> d          -4.253  -7.299   3.917  0.00  0.00     0.011 C 
ATOM     25  C12 <0> d          -4.086  -4.212   6.209  0.00  0.00     0.008 C 
ATOM     26  C11 <0> d          -2.706  -4.537   6.786  0.00  0.00     0.239 C 
ATOM     27  C17 <0> d          -5.007  -3.725   7.329  0.00  0.00     0.011 C 
ATOM     28  H29 <0> d          -1.771  -4.303   4.990  0.00  0.00     0.280 HD
ENDBRANCH  19  20
ENDBRANCH  17  19
ENDBRANCH   4  17
TORSDOF 5
