REMARK  3 active torsions:
REMARK  status: ('A' for Active; 'I' for Inactive)
REMARK    1  A    between atoms: C6_8  and  N3_13 
REMARK    2  A    between atoms: C7_9  and  C8_10 
REMARK       I    between atoms: C8_10  and  N2_12 
REMARK       I    between atoms: N3_13  and  C9_14 
REMARK    3  A    between atoms: C9_14  and  C10_16 
ROOT
ATOM      1  C1  <0> d          -0.018   1.465   0.010  0.00  0.00     0.270 C 
ATOM      2  N1  <0> d           0.002  -0.004   0.002  0.00  0.00    -0.070 N 
ATOM      3  C2  <0> d          -1.376  -0.512   0.008  0.00  0.00     0.239 C 
ATOM      4  C3  <0> d          -1.389  -2.010  -0.313  0.00  0.00     0.068 C 
ATOM      5  C4  <0> d          -0.409  -2.698   0.627  0.00  0.00    -0.023 A 
ATOM      6  C5  <0> d           0.522  -1.973   1.288  0.00  0.00     0.018 A 
ATOM      7  S1  <0> d           1.417  -3.159   2.244  0.00  0.00    -0.074 SA
ATOM      8  C6  <0> d           0.606  -4.560   1.794  0.00  0.00     0.093 A 
ATOM      9  C7  <0> d          -0.363  -4.120   0.903  0.00  0.00     0.073 A 
ATOM     10  C14 <0> d           0.715  -0.492   1.197  0.00  0.00     0.281 C 
ATOM     11  H14 <0> d           0.475  -0.329  -0.828  0.00  0.00     0.279 HD
ENDROOT
BRANCH   8  12
ATOM     12  N3  <0> d           0.849  -5.857   2.215  0.00  0.00    -0.316 N 
ATOM     13  C9  <0> d           1.840  -6.106   3.093  0.00  0.00     0.258 C 
ATOM     14  O2  <0> d           2.522  -5.191   3.516  0.00  0.00    -0.267 OA
ATOM     15  H10 <0> d           0.305  -6.587   1.878  0.00  0.00     0.169 HD
BRANCH  13  16
ATOM     16  C10 <0> d           2.098  -7.482   3.541  0.00  0.00     0.063 A 
ATOM     17  C13 <0> d           3.104  -7.774   4.437  0.00  0.00     0.091 A 
ATOM     18  S2  <0> d           3.007  -9.437   4.638  0.00  0.00    -0.065 SA
ATOM     19 Cl1  <0> d           4.215  -6.672   5.190  0.00  0.00    -0.075 Cl
ATOM     20  C12 <0> d           1.652  -9.805   3.545  0.00  0.00     0.077 A 
ATOM     21  C11 <0> d           1.314  -8.595   3.057  0.00  0.00     0.050 A 
ATOM     22 Cl2  <0> d           0.939 -11.348   3.193  0.00  0.00    -0.076 Cl
ENDBRANCH  13  16
ENDBRANCH   8  12
BRANCH   9  23
ATOM     23  C8  <0> d          -1.299  -5.053   0.269  0.00  0.00     0.252 C 
ATOM     24  O1  <0> d          -1.014  -5.574  -0.793  0.00  0.00    -0.268 OA
ATOM     25  N2  <0> d          -2.476  -5.334   0.863  0.00  0.00    -0.366 N 
ATOM     26  H8  <0> d          -2.704  -4.919   1.710  0.00  0.00     0.159 HD
ATOM     27  H9  <0> d          -3.096  -5.951   0.443  0.00  0.00     0.159 HD
ENDBRANCH   9  23
TORSDOF 3
