REMARK  8 active torsions:
REMARK  status: ('A' for Active; 'I' for Inactive)
REMARK    1  A    between atoms: C2_2  and  C3_3 
REMARK    2  A    between atoms: C3_3  and  C4_4 
REMARK    3  A    between atoms: C5_6  and  C7_9 
REMARK    4  A    between atoms: C7_9  and  S2_10 
REMARK    5  A    between atoms: S2_10  and  C8_13 
REMARK    6  A    between atoms: C8_13  and  C9_14 
REMARK       I    between atoms: C9_14  and  N2_16 
REMARK    7  A    between atoms: N2_16  and  C10_17 
REMARK    8  A    between atoms: C13_20  and  C16_23 
REMARK       I    between atoms: C16_23  and  N3_25 
ROOT
ATOM      1  C9  <0> d           6.105  -6.923   1.428  0.00  0.00     0.236 C 
ATOM      2  O3  <0> d           6.156  -6.500   2.564  0.00  0.00    -0.272 OA
ATOM      3  N2  <0> d           7.068  -7.747   0.972  0.00  0.00    -0.326 N 
ATOM      4  H13 <0> d           6.993  -8.139   0.087  0.00  0.00     0.169 HD
ENDROOT
BRANCH   1   5
ATOM      5  C8  <0> d           4.964  -6.525   0.527  0.00  0.00     0.243 C 
BRANCH   5   6
ATOM      6  S2  <0> d           3.842  -5.417   1.424  0.00  0.00     0.158 S 
ATOM      7  O1  <0> d           4.537  -4.212   1.713  0.00  0.00    -0.227 OA
ATOM      8  O2  <0> d           3.249  -6.146   2.490  0.00  0.00    -0.227 OA
BRANCH   6   9
ATOM      9  C7  <0> d           2.561  -5.060   0.190  0.00  0.00     0.200 C 
BRANCH   9  10
ATOM     10  C5  <0> d           1.533  -4.134   0.788  0.00  0.00     0.056 A 
ATOM     11  N1  <0> d           1.653  -2.824   0.705  0.00  0.00    -0.249 NA
ATOM     12  C4  <0> d           0.757  -2.023   1.225  0.00  0.00     0.075 A 
ATOM     13  S1  <0> d          -0.360  -3.085   1.902  0.00  0.00    -0.085 SA
ATOM     14  C6  <0> d           0.440  -4.612   1.437  0.00  0.00     0.079 A 
BRANCH  12  15
ATOM     15  C3  <0> d           0.735  -0.516   1.224  0.00  0.00     0.067 C 
BRANCH  15  16
ATOM     16  C2  <0> d          -0.011  -0.019  -0.016  0.00  0.00     0.002 C 
ATOM     17  C1  <0> d          -0.034   1.511  -0.018  0.00  0.00     0.005 C 
ENDBRANCH  15  16
ENDBRANCH  12  15
ENDBRANCH   9  10
ENDBRANCH   6   9
ENDBRANCH   5   6
ENDBRANCH   1   5
BRANCH   3  18
ATOM     18  C10 <0> d           8.173  -8.039   1.772  0.00  0.00     0.034 A 
ATOM     19  C15 <0> d           9.423  -8.219   1.189  0.00  0.00     0.030 A 
ATOM     20  C14 <0> d          10.517  -8.502   1.976  0.00  0.00     0.019 A 
ATOM     21  C13 <0> d          10.367  -8.619   3.361  0.00  0.00     0.032 A 
ATOM     22  C12 <0> d           9.109  -8.442   3.942  0.00  0.00     0.019 A 
ATOM     23  C11 <0> d           8.021  -8.155   3.150  0.00  0.00     0.030 A 
BRANCH  21  24
ATOM     24  C16 <0> d          11.537  -8.927   4.207  0.00  0.00     0.251 C 
ATOM     25  O4  <0> d          11.405  -9.027   5.412  0.00  0.00    -0.268 OA
ATOM     26  N3  <0> d          12.750  -9.096   3.645  0.00  0.00    -0.361 N 
ATOM     27  C17 <0> d          13.910  -9.402   4.486  0.00  0.00     0.149 C 
ATOM     28  H18 <0> d          12.854  -9.016   2.684  0.00  0.00     0.162 HD
ENDBRANCH  21  24
ENDBRANCH   3  18
TORSDOF 8
