REMARK  3 active torsions:
REMARK  status: ('A' for Active; 'I' for Inactive)
REMARK    1  A    between atoms: C6_6  and  N1_8 
REMARK       I    between atoms: N1_8  and  C8_9 
REMARK       I    between atoms: C8_9  and  N4_19 
REMARK    2  A    between atoms: N2_10  and  C9_11 
REMARK    3  A    between atoms: C16_20  and  N5_21 
ROOT
ATOM      1  C9  <0> d          -0.812  -6.081   1.473  0.00  0.00     0.077 A 
ATOM      2  C10 <0> d          -0.267  -6.942   2.430  0.00  0.00     0.032 A 
ATOM      3  C11 <0> d          -0.751  -8.227   2.562  0.00  0.00     0.004 A 
ATOM      4  C12 <0> d          -1.776  -8.673   1.752  0.00  0.00     0.023 A 
ATOM      5  C13 <0> d          -2.331  -7.824   0.790  0.00  0.00     0.046 A 
ATOM      6  C14 <0> d          -1.851  -6.523   0.655  0.00  0.00     0.054 A 
ATOM      7  C15 <0> d          -3.393  -8.289  -0.050  0.00  0.00     0.099 C 
ATOM      8  N3  <0> d          -4.236  -8.657  -0.717  0.00  0.00    -0.191 NA
ENDROOT
BRANCH   1   9
ATOM      9  N2  <0> d          -0.331  -4.807   1.343  0.00  0.00    -0.064 NA
ATOM     10  C8  <0> d          -0.357  -3.985   2.372  0.00  0.00     0.720 C 
ATOM     11  N1  <0> d           0.213  -2.733   2.269  0.00  0.00    -0.189 N 
ATOM     12  N4  <0> d          -0.941  -4.369   3.529  0.00  0.00    -0.099 N 
ATOM     13  H8  <0> d           0.265  -2.159   3.049  0.00  0.00     0.184 HD
ATOM     14  S1  <0> d          -0.202  -4.963   4.907  0.00  0.00     0.007 SA
ATOM     15  C16 <0> d          -2.234  -4.366   3.831  0.00  0.00     0.130 A 
ATOM     16  C18 <0> d          -1.546  -5.202   5.883  0.00  0.00     0.000 A 
ATOM     17  C17 <0> d          -2.581  -4.810   5.091  0.00  0.00     0.065 A 
ATOM     18  C19 <0> d          -1.596  -5.728   7.293  0.00  0.00     0.058 C 
BRANCH  11  19
ATOM     19  C6  <0> d           0.716  -2.293   1.042  0.00  0.00     0.049 A 
ATOM     20  C5  <0> d           1.820  -1.452   1.003  0.00  0.00     0.030 A 
ATOM     21  C4  <0> d           2.315  -1.019  -0.212  0.00  0.00     0.003 A 
ATOM     22  C3  <0> d           1.711  -1.422  -1.389  0.00  0.00     0.007 A 
ATOM     23  C2  <0> d           0.611  -2.259  -1.354  0.00  0.00    -0.060 A 
ATOM     24  C1  <0> d          -0.043  -2.695  -2.639  0.00  0.00     0.048 C 
ATOM     25  C7  <0> d           0.109  -2.692  -0.143  0.00  0.00     0.036 A 
ENDBRANCH  11  19
BRANCH  15  26
ATOM     26  N5  <0> d          -3.193  -3.937   2.921  0.00  0.00    -0.384 N 
ATOM     27  H13 <0> d          -2.932  -3.699   2.017  0.00  0.00     0.157 HD
ATOM     28  H18 <0> d          -4.123  -3.876   3.189  0.00  0.00     0.157 HD
ENDBRANCH  15  26
ENDBRANCH   1   9
TORSDOF 3
