REMARK  4 active torsions:
REMARK  status: ('A' for Active; 'I' for Inactive)
REMARK    1  A    between atoms: C9_10  and  N1_13 
REMARK    2  A    between atoms: C10_11  and  O2_12 
REMARK    3  A    between atoms: N1_13  and  C12_15 
REMARK    4  A    between atoms: C12_15  and  C13_16 
ROOT
ATOM      1  C1  <0> d           0.879   1.455   1.194  0.00  0.00     0.048 C 
ATOM      2  C2  <0> d           0.736   0.029   0.727  0.00  0.00    -0.059 A 
ATOM      3  C3  <0> d           0.336  -0.237  -0.570  0.00  0.00     0.014 A 
ATOM      4  C4  <0> d           0.207  -1.544  -0.998  0.00  0.00    -0.050 A 
ATOM      5  C5  <0> d           0.474  -2.592  -0.132  0.00  0.00     0.012 A 
ATOM      6  C6  <0> d           0.871  -2.329   1.167  0.00  0.00     0.080 A 
ATOM      7  C7  <0> d           1.009  -1.011   1.591  0.00  0.00     0.044 A 
ATOM      8  O1  <0> d           1.133  -3.326   2.051  0.00  0.00    -0.338 OA
ATOM      9  C8  <0> d           1.358  -4.637   1.533  0.00  0.00     0.092 C 
ATOM     10  C9  <0> d           0.229  -4.969   0.548  0.00  0.00     0.255 C 
ATOM     11  C10 <0> d           0.327  -4.005  -0.637  0.00  0.00     0.188 C 
ATOM     12  C14 <0> d           2.703  -4.680   0.806  0.00  0.00     0.048 C 
ATOM     13  C15 <0> d           1.357  -5.652   2.678  0.00  0.00     0.048 C 
ATOM     14  C16 <0> d          -0.227  -1.831  -2.412  0.00  0.00     0.049 C 
ENDROOT
BRANCH  10  15
ATOM     15  N1  <0> d          -1.071  -4.806   1.214  0.00  0.00    -0.056 N 
ATOM     16  C11 <0> d          -1.473  -3.394   1.165  0.00  0.00     0.271 C 
ATOM     17  H23 <0> d          -0.996  -5.102   2.175  0.00  0.00     0.280 HD
BRANCH  15  18
ATOM     18  C12 <0> d          -2.079  -5.626   0.526  0.00  0.00     0.347 C 
BRANCH  18  19
ATOM     19  C13 <0> d          -3.376  -5.572   1.291  0.00  0.00     0.199 C 
ATOM     20  O3  <0> d          -3.455  -4.912   2.313  0.00  0.00    -0.647 OA
ATOM     21  O4  <0> d          -4.348  -6.189   0.887  0.00  0.00    -0.647 OA
ENDBRANCH  18  19
ENDBRANCH  15  18
ENDBRANCH  10  15
BRANCH  11  22
ATOM     22  O2  <0> d          -0.858  -4.106  -1.430  0.00  0.00    -0.389 OA
ATOM     23  H8  <0> d          -0.966  -4.960  -1.871  0.00  0.00     0.210 HD
ENDBRANCH  11  22
TORSDOF 4
