REMARK  8 active torsions:
REMARK  status: ('A' for Active; 'I' for Inactive)
REMARK    1  A    between atoms: C3_3  and  C5_6 
REMARK    2  A    between atoms: C7_8  and  C21_28 
REMARK       I    between atoms: N2_10  and  C8_11 
REMARK    3  A    between atoms: C8_11  and  C9_13 
REMARK    4  A    between atoms: C9_13  and  N3_14 
REMARK    5  A    between atoms: N3_14  and  C10_15 
REMARK    6  A    between atoms: N3_14  and  C18_25 
REMARK    7  A    between atoms: C10_15  and  C11_16 
REMARK    8  A    between atoms: C14_19  and  C17_22 
REMARK       I    between atoms: C17_22  and  N4_24 
ROOT
ATOM      1  C9  <0> d           5.415  -0.143  -2.910  0.00  0.00     0.340 C 
ENDROOT
BRANCH   1   2
ATOM      2  C8  <0> d           4.513   0.835  -2.203  0.00  0.00     0.266 C 
ATOM      3  N2  <0> d           4.816   1.252  -0.957  0.00  0.00    -0.226 N 
ATOM      4  C5  <0> d           4.026   2.200  -0.156  0.00  0.00     0.159 A 
ATOM      5  N1  <0> d           5.930   0.856  -0.213  0.00  0.00    -0.172 NA
ATOM      6  C6  <0> d           4.819   2.317   1.161  0.00  0.00     0.095 A 
ATOM      7  C7  <0> d           6.002   1.397   0.957  0.00  0.00     0.074 A 
ATOM      8  O1  <0> d           3.514   1.247  -2.754  0.00  0.00    -0.270 OA
BRANCH   4   9
ATOM      9  C3  <0> d           2.646   1.653   0.103  0.00  0.00     0.008 A 
ATOM     10  C2  <0> d           1.463   2.312   0.163  0.00  0.00     0.017 A 
ATOM     11  C1  <0> d           0.308   1.597   0.417  0.00  0.00     0.008 A 
ATOM     12  C4  <0> d           0.392   0.256   0.599  0.00  0.00     0.050 A 
ATOM     13  S1  <0> d           2.144  -0.033   0.411  0.00  0.00    -0.104 SA
ENDBRANCH   4   9
BRANCH   7  14
ATOM     14  C21 <0> d           7.066   1.157   1.937  0.00  0.00     0.031 A 
ATOM     15  S2  <0> d           7.268   1.846   3.572  0.00  0.00    -0.100 SA
ATOM     16  C24 <0> d           8.786   1.016   4.012  0.00  0.00     0.050 A 
ATOM     17  C23 <0> d           9.047   0.282   2.899  0.00  0.00     0.008 A 
ATOM     18  C22 <0> d           8.181   0.343   1.833  0.00  0.00     0.021 A 
ENDBRANCH   7  14
ENDBRANCH   1   2
BRANCH   1  19
ATOM     19  N3  <0> d           4.954  -0.321  -4.294  0.00  0.00    -0.055 N 
ATOM     20  H25 <0> d           3.977  -0.573  -4.293  0.00  0.00     0.281 HD
BRANCH  19  21
ATOM     21  C10 <0> d           5.136   0.934  -5.036  0.00  0.00     0.274 C 
BRANCH  21  22
ATOM     22  C11 <0> d           4.551   0.789  -6.417  0.00  0.00    -0.033 A 
ATOM     23  C16 <0> d           3.226   1.117  -6.642  0.00  0.00     0.010 A 
ATOM     24  C15 <0> d           2.686   0.993  -7.906  0.00  0.00     0.017 A 
ATOM     25  C14 <0> d           3.477   0.524  -8.956  0.00  0.00     0.031 A 
ATOM     26  C13 <0> d           4.812   0.190  -8.721  0.00  0.00     0.017 A 
ATOM     27  C12 <0> d           5.341   0.325  -7.454  0.00  0.00     0.010 A 
BRANCH  25  28
ATOM     28  C17 <0> d           2.904   0.383 -10.312  0.00  0.00     0.249 C 
ATOM     29  O2  <0> d           3.595  -0.024 -11.225  0.00  0.00    -0.268 OA
ATOM     30  N4  <0> d           1.615   0.707 -10.535  0.00  0.00    -0.366 N 
ATOM     31  H15 <0> d           1.063   1.032  -9.807  0.00  0.00     0.159 HD
ATOM     32  H16 <0> d           1.239   0.614 -11.425  0.00  0.00     0.159 HD
ENDBRANCH  25  28
ENDBRANCH  21  22
ENDBRANCH  19  21
BRANCH  19  33
ATOM     33  C18 <0> d           5.734  -1.387  -4.936  0.00  0.00     0.189 A 
ATOM     34  C20 <0> d           5.577  -2.807  -4.387  0.00  0.00     0.035 A 
ATOM     35  C19 <0> d           4.966  -2.438  -5.741  0.00  0.00     0.035 A 
ENDBRANCH  19  33
ENDBRANCH   1  19
TORSDOF 8
