REMARK  5 active torsions:
REMARK  status: ('A' for Active; 'I' for Inactive)
REMARK    1  A    between atoms: N1_2  and  C2_3 
REMARK    2  A    between atoms: C2_3  and  C3_4 
REMARK    3  A    between atoms: C8_9  and  N2_10 
REMARK    4  A    between atoms: N2_10  and  S1_11 
REMARK    5  A    between atoms: S1_11  and  C9_14 
ROOT
ATOM      1  N2  <0> d          -0.914  -2.026   2.377  0.00  0.00    -0.160 NA
ENDROOT
BRANCH   1   2
ATOM      2  C8  <0> d          -1.126  -2.718   1.182  0.00  0.00     0.078 A 
ATOM      3  C3  <0> d          -1.356  -2.019   0.004  0.00  0.00    -0.003 A 
ATOM      4  C4  <0> d          -1.560  -2.707  -1.176  0.00  0.00     0.011 A 
ATOM      5  C5  <0> d          -1.541  -4.090  -1.185  0.00  0.00     0.001 A 
ATOM      6  C6  <0> d          -1.319  -4.789  -0.012  0.00  0.00     0.002 A 
ATOM      7  C7  <0> d          -1.114  -4.107   1.171  0.00  0.00     0.033 A 
BRANCH   3   8
ATOM      8  C2  <0> d          -1.376  -0.512   0.012  0.00  0.00     0.272 C 
BRANCH   8   9
ATOM      9  N1  <0> d           0.002  -0.004   0.002  0.00  0.00    -0.075 N 
ATOM     10  C1  <0> d          -0.018   1.465   0.010  0.00  0.00     0.267 C 
ATOM     11  H4  <0> d           0.474  -0.330  -0.828  0.00  0.00     0.277 HD
ATOM     12  H14 <0> d           0.490  -0.338   0.820  0.00  0.00     0.277 HD
ENDBRANCH   8   9
ENDBRANCH   3   8
ENDBRANCH   1   2
BRANCH   1  13
ATOM     13  S1  <0> d          -0.640  -2.861   3.780  0.00  0.00     0.285 S 
ATOM     14  O1  <0> d          -1.842  -3.559   4.078  0.00  0.00    -0.198 OA
ATOM     15  O2  <0> d           0.607  -3.523   3.623  0.00  0.00    -0.198 OA
BRANCH  13  16
ATOM     16  C9  <0> d          -0.420  -1.670   5.060  0.00  0.00     0.103 A 
ATOM     17  C14 <0> d           0.667  -0.814   5.028  0.00  0.00     0.060 A 
ATOM     18  C13 <0> d           0.838   0.125   6.030  0.00  0.00     0.067 A 
ATOM     19 Cl1  <0> d           1.812  -0.913   3.727  0.00  0.00    -0.083 Cl
ATOM     20  C12 <0> d          -0.073   0.200   7.070  0.00  0.00     0.118 A 
ATOM     21  C11 <0> d          -1.157  -0.662   7.103  0.00  0.00     0.044 A 
ATOM     22  F1  <0> d           0.095   1.113   8.051  0.00  0.00    -0.206 F 
ATOM     23  C10 <0> d          -1.329  -1.595   6.099  0.00  0.00     0.030 A 
ENDBRANCH  13  16
ENDBRANCH   1  13
TORSDOF 5
