REMARK  4 active torsions:
REMARK  status: ('A' for Active; 'I' for Inactive)
REMARK       I    between atoms: C2_2  and  N1_4 
REMARK    1  A    between atoms: N1_4  and  C3_5 
REMARK    2  A    between atoms: C3_5  and  C11_13 
REMARK    3  A    between atoms: C4_6  and  C5_7 
REMARK       I    between atoms: C11_13  and  N2_15 
REMARK    4  A    between atoms: N2_15  and  C13_17 
ROOT
ATOM      1  C3  <0> d          -1.190  -2.156   0.012  0.00  0.00     0.104 C 
ATOM      2  C4  <0> d          -2.240  -2.807  -0.539  0.00  0.00     0.046 C 
ENDROOT
BRANCH   1   3
ATOM      3  N1  <0> d          -1.201  -0.760   0.101  0.00  0.00    -0.323 N 
ATOM      4  C2  <0> d          -0.132  -0.108   0.600  0.00  0.00     0.218 C 
ATOM      5  C1  <0> d          -0.099   1.399   0.595  0.00  0.00     0.117 C 
ATOM      6  O1  <0> d           0.803  -0.734   1.052  0.00  0.00    -0.274 OA
ATOM      7  H5  <0> d          -1.978  -0.261  -0.196  0.00  0.00     0.169 HD
ENDBRANCH   1   3
BRANCH   1   8
ATOM      8  C11 <0> d          -0.037  -2.915   0.517  0.00  0.00     0.270 C 
ATOM      9  O2  <0> d           0.998  -2.946  -0.121  0.00  0.00    -0.266 OA
ATOM     10  N2  <0> d          -0.127  -3.577   1.688  0.00  0.00    -0.345 N 
ATOM     11  C12 <0> d          -1.405  -3.634   2.401  0.00  0.00     0.153 C 
BRANCH  10  12
ATOM     12  C13 <0> d           1.054  -4.239   2.247  0.00  0.00     0.101 C 
ATOM     13  C16 <0> d           0.781  -5.758   2.372  0.00  0.00     0.165 C 
ATOM     14  S1  <0> d           1.770  -6.227   3.849  0.00  0.00     0.146 S 
ATOM     15  C15 <0> d           2.407  -4.567   4.330  0.00  0.00     0.142 C 
ATOM     16  O3  <0> d           0.891  -6.696   4.862  0.00  0.00    -0.228 OA
ATOM     17  O4  <0> d           2.861  -7.040   3.438  0.00  0.00    -0.228 OA
ATOM     18  C14 <0> d           1.363  -3.648   3.633  0.00  0.00     0.041 C 
ENDBRANCH  10  12
ENDBRANCH   1   8
BRANCH   2  19
ATOM     19  C5  <0> d          -2.164  -4.257  -0.775  0.00  0.00    -0.034 A 
ATOM     20  C10 <0> d          -0.951  -4.846  -1.148  0.00  0.00     0.011 A 
ATOM     21  C9  <0> d          -0.887  -6.206  -1.363  0.00  0.00     0.001 A 
ATOM     22  C8  <0> d          -2.021  -6.987  -1.222  0.00  0.00     0.000 A 
ATOM     23  C7  <0> d          -3.226  -6.411  -0.859  0.00  0.00     0.001 A 
ATOM     24  C6  <0> d          -3.305  -5.053  -0.635  0.00  0.00     0.011 A 
ENDBRANCH   2  19
TORSDOF 4
