REMARK  8 active torsions:
REMARK  status: ('A' for Active; 'I' for Inactive)
REMARK    1  A    between atoms: C3_3  and  C6_7 
REMARK    2  A    between atoms: C6_7  and  N2_8 
REMARK    3  A    between atoms: N2_8  and  C7_9 
REMARK    4  A    between atoms: N2_8  and  C18_24 
REMARK    5  A    between atoms: C7_9  and  C8_10 
REMARK    6  A    between atoms: C18_24  and  N4_25 
REMARK    7  A    between atoms: N4_25  and  C19_26 
REMARK    8  A    between atoms: C19_26  and  C20_27 
ROOT
ATOM      1  N2  <0> d           4.141   2.271   1.355  0.00  0.00    -0.350 N 
ENDROOT
BRANCH   1   2
ATOM      2  C6  <0> d           3.696   2.049  -0.023  0.00  0.00     0.165 C 
BRANCH   2   3
ATOM      3  C3  <0> d           2.365   1.343  -0.013  0.00  0.00    -0.023 A 
ATOM      4  C2  <0> d           1.185   2.070   0.002  0.00  0.00     0.012 A 
ATOM      5  C1  <0> d          -0.017   1.378   0.010  0.00  0.00     0.020 A 
ATOM      6  C5  <0> d           0.002  -0.004   0.002  0.00  0.00     0.116 A 
ATOM      7  N1  <0> d           1.144  -0.663  -0.013  0.00  0.00    -0.273 NA
ATOM      8  C4  <0> d           2.305  -0.038  -0.020  0.00  0.00     0.124 A 
ENDBRANCH   2   3
ENDBRANCH   1   2
BRANCH   1   9
ATOM      9  C7  <0> d           4.958   1.261   2.033  0.00  0.00     0.169 C 
BRANCH   9  10
ATOM     10  C8  <0> d           6.417   1.545   1.783  0.00  0.00     0.029 A 
ATOM     11  C16 <0> d           7.035   1.064   0.611  0.00  0.00     0.253 A 
ATOM     12  N3  <0> d           8.332   1.301   0.350  0.00  0.00    -0.322 N 
ATOM     13  O1  <0> d           6.375   0.423  -0.188  0.00  0.00    -0.268 OA
ATOM     14  C15 <0> d           9.115   2.019   1.232  0.00  0.00     0.048 A 
ATOM     15  H20 <0> d           8.725   0.958  -0.468  0.00  0.00     0.169 HD
ATOM     16  C10 <0> d           8.546   2.516   2.420  0.00  0.00    -0.006 A 
ATOM     17  C14 <0> d          10.457   2.258   0.961  0.00  0.00     0.070 A 
ATOM     18  C9  <0> d           7.132   2.257   2.691  0.00  0.00     0.028 A 
ATOM     19  C11 <0> d           9.332   3.247   3.320  0.00  0.00     0.053 A 
ATOM     20  C12 <0> d          10.660   3.475   3.037  0.00  0.00     0.105 A 
ATOM     21  O3  <0> d          11.626   4.145   3.732  0.00  0.00    -0.323 OA
ATOM     22  C13 <0> d          11.225   2.980   1.855  0.00  0.00     0.107 A 
ATOM     23  C17 <0> d          12.673   4.407   2.780  0.00  0.00     0.352 C 
ATOM     24  O2  <0> d          12.540   3.343   1.820  0.00  0.00    -0.323 OA
ENDBRANCH   9  10
ENDBRANCH   1   9
BRANCH   1  25
ATOM     25  C18 <0> d           3.799   3.404   2.000  0.00  0.00     0.170 C 
ATOM     26  S1  <0> d           4.319   3.663   3.610  0.00  0.00    -0.041 SA
BRANCH  25  27
ATOM     27  N4  <0> d           3.047   4.333   1.376  0.00  0.00    -0.361 N 
ATOM     28  H19 <0> d           2.753   4.186   0.464  0.00  0.00     0.162 HD
BRANCH  27  29
ATOM     29  C19 <0> d           2.675   5.565   2.077  0.00  0.00     0.187 C 
BRANCH  29  30
ATOM     30  C20 <0> d           1.841   6.428   1.166  0.00  0.00     0.070 A 
ATOM     31  O4  <0> d           2.310   7.362   0.322  0.00  0.00    -0.325 OA
ATOM     32  C23 <0> d           1.284   7.930  -0.332  0.00  0.00     0.142 A 
ATOM     33  C22 <0> d           0.141   7.367   0.099  0.00  0.00     0.027 A 
ATOM     34  C21 <0> d           0.500   6.399   1.065  0.00  0.00     0.036 A 
ENDBRANCH  29  30
ENDBRANCH  27  29
ENDBRANCH  25  27
ENDBRANCH   1  25
TORSDOF 8
