REMARK  4 active torsions:
REMARK  status: ('A' for Active; 'I' for Inactive)
REMARK    1  A    between atoms: N1_4  and  C7_9 
REMARK    2  A    between atoms: C7_9  and  C8_10 
REMARK    3  A    between atoms: C7_9  and  C9_12 
REMARK    4  A    between atoms: C8_10  and  N2_11 
ROOT
ATOM      1  C7  <0> d          -2.761  -2.547   0.043  0.00  0.00     0.305 C 
ENDROOT
BRANCH   1   2
ATOM      2  N1  <0> d          -1.364  -2.093   0.011  0.00  0.00     0.110 N 
ATOM      3  C3  <0> d          -1.288  -0.625  -0.022  0.00  0.00     0.305 C 
ATOM      4  C2  <0> d           0.180  -0.198  -0.114  0.00  0.00     0.145 C 
ATOM      5  C1  <0> d           0.271   1.328  -0.068  0.00  0.00     0.041 C 
ATOM      6  O1  <0> d           0.903  -0.753   0.988  0.00  0.00    -0.382 OA
ATOM      7  C5  <0> d           0.850  -2.181   1.051  0.00  0.00     0.203 C 
ATOM      8  C4  <0> d          -0.611  -2.628   1.155  0.00  0.00     0.243 C 
ATOM      9  C6  <0> d          -1.216  -2.101   2.457  0.00  0.00     0.045 C 
ENDBRANCH   1   2
BRANCH   1  10
ATOM     10  C8  <0> d          -3.490  -2.038  -1.203  0.00  0.00     0.272 C 
BRANCH  10  11
ATOM     11  N2  <0> d          -2.755  -2.454  -2.405  0.00  0.00    -0.077 N 
ATOM     12  H16 <0> d          -3.184  -2.044  -3.220  0.00  0.00     0.274 HD
ATOM     13  H17 <0> d          -1.797  -2.143  -2.337  0.00  0.00     0.274 HD
ATOM     14  H19 <0> d          -2.778  -3.459  -2.482  0.00  0.00     0.274 HD
ENDBRANCH  10  11
ENDBRANCH   1  10
BRANCH   1  15
ATOM     15  C9  <0> d          -2.800  -4.053   0.068  0.00  0.00     0.090 A 
ATOM     16  O2  <0> d          -1.998  -4.871  -0.634  0.00  0.00    -0.304 OA
ATOM     17  C12 <0> d          -2.313  -6.149  -0.364  0.00  0.00     0.139 A 
ATOM     18  C11 <0> d          -3.334  -6.157   0.514  0.00  0.00     0.054 A 
ATOM     19 Br1  <0> d          -1.471  -7.675  -1.097  0.00  0.00    -0.021 Br
ATOM     20  C10 <0> d          -3.647  -4.806   0.792  0.00  0.00     0.057 A 
ATOM     21 Br2  <0> d          -4.186  -7.683   1.238  0.00  0.00    -0.048 Br
ENDBRANCH   1  15
TORSDOF 4
