REMARK  7 active torsions:
REMARK  status: ('A' for Active; 'I' for Inactive)
REMARK    1  A    between atoms: C2_2  and  O1_3 
REMARK    2  A    between atoms: O1_3  and  C3_4 
REMARK    3  A    between atoms: C6_7  and  C9_10 
REMARK    4  A    between atoms: C9_10  and  C10_11 
REMARK    5  A    between atoms: C9_10  and  N2_13 
REMARK    6  A    between atoms: C10_11  and  N1_12 
REMARK    7  A    between atoms: N2_13  and  C12_15 
ROOT
ATOM      1  C9  <0> d           1.211  -5.738  -1.938  0.00  0.00     0.281 C 
ENDROOT
BRANCH   1   2
ATOM      2  C6  <0> d           1.342  -4.248  -1.751  0.00  0.00    -0.023 A 
ATOM      3  C5  <0> d           0.377  -3.554  -1.044  0.00  0.00     0.012 A 
ATOM      4  C4  <0> d           0.495  -2.189  -0.871  0.00  0.00     0.037 A 
ATOM      5  C3  <0> d           1.581  -1.514  -1.408  0.00  0.00     0.068 A 
ATOM      6  C8  <0> d           2.544  -2.211  -2.123  0.00  0.00     0.037 A 
ATOM      7  C7  <0> d           2.425  -3.578  -2.288  0.00  0.00     0.012 A 
BRANCH   5   8
ATOM      8  O1  <0> d           1.699  -0.170  -1.240  0.00  0.00    -0.352 OA
BRANCH   8   9
ATOM      9  C2  <0> d           0.670   0.483  -0.494  0.00  0.00     0.171 C 
ATOM     10  C1  <0> d           0.972   1.980  -0.411  0.00  0.00     0.034 C 
ENDBRANCH   8   9
ENDBRANCH   5   8
ENDBRANCH   1   2
BRANCH   1  11
ATOM     11  C10 <0> d           0.172  -6.027  -3.023  0.00  0.00     0.270 C 
BRANCH  11  12
ATOM     12  N1  <0> d          -0.009  -7.479  -3.153  0.00  0.00    -0.077 N 
ATOM     13  H14 <0> d          -0.183  -7.879  -2.243  0.00  0.00     0.274 HD
ATOM     14  H15 <0> d          -0.794  -7.667  -3.758  0.00  0.00     0.274 HD
ATOM     15  H25 <0> d           0.825  -7.888  -3.546  0.00  0.00     0.274 HD
ENDBRANCH  11  12
ENDBRANCH   1  11
BRANCH   1  16
ATOM     16  N2  <0> d           2.509  -6.296  -2.342  0.00  0.00     0.100 N 
ATOM     17  C11 <0> d           2.693  -6.202  -3.796  0.00  0.00     0.311 C 
BRANCH  16  18
ATOM     18  C12 <0> d           2.650  -7.684  -1.882  0.00  0.00     0.238 C 
ATOM     19  C15 <0> d           3.984  -8.281  -2.415  0.00  0.00     0.176 C 
ATOM     20  S1  <0> d           4.210  -9.694  -1.255  0.00  0.00     0.146 S 
ATOM     21  C14 <0> d           3.156  -9.116   0.137  0.00  0.00     0.142 C 
ATOM     22  O2  <0> d           5.564  -9.729  -0.827  0.00  0.00    -0.228 OA
ATOM     23  O3  <0> d           3.626 -10.858  -1.824  0.00  0.00    -0.228 OA
ATOM     24  C13 <0> d           2.691  -7.721  -0.345  0.00  0.00     0.052 C 
ENDBRANCH  16  18
ENDBRANCH   1  16
TORSDOF 7
