REMARK  2 active torsions:
REMARK  status: ('A' for Active; 'I' for Inactive)
REMARK    1  A    between atoms: C5_8  and  N4_11 
REMARK    2  A    between atoms: N4_11  and  C8_12 
ROOT
ATOM      1  N4  <0> d           0.282  -1.397   4.740  0.00  0.00    -0.368 N 
ATOM      2  H11 <0> d          -0.387  -0.754   5.023  0.00  0.00     0.161 HD
ENDROOT
BRANCH   1   3
ATOM      3  C5  <0> d           0.485  -1.664   3.314  0.00  0.00     0.102 C 
ATOM      4  C4  <0> d           0.035  -0.447   2.498  0.00  0.00     0.157 C 
ATOM      5  N3  <0> d           0.023  -0.810   1.081  0.00  0.00    -0.319 N 
ATOM      6  C2  <0> d           0.002  -0.004   0.002  0.00  0.00     0.126 A 
ATOM      7  C3  <0> d           0.031  -2.082   0.606  0.00  0.00     0.130 A 
ATOM      8  C1  <0> d          -0.018   1.503   0.010  0.00  0.00     0.093 C 
ATOM      9  N1  <0> d           0.008  -0.776  -1.054  0.00  0.00    -0.135 NA
ATOM     10  N2  <0> d           0.026  -2.012  -0.690  0.00  0.00    -0.135 NA
ATOM     11  C7  <0> d           0.048  -3.310   1.481  0.00  0.00     0.082 C 
ATOM     12  C6  <0> d          -0.336  -2.890   2.904  0.00  0.00     0.034 C 
ENDBRANCH   1   3
BRANCH   1  13
ATOM     13  C8  <0> d           1.045  -2.061   5.684  0.00  0.00     0.138 A 
ATOM     14  N6  <0> d           1.959  -2.940   5.307  0.00  0.00    -0.224 NA
ATOM     15  C13 <0> d           2.710  -3.591   6.178  0.00  0.00     0.236 A 
ATOM     16  N5  <0> d           2.577  -3.403   7.477  0.00  0.00    -0.234 NA
ATOM     17  C12 <0> d           1.686  -2.549   7.940  0.00  0.00     0.112 A 
ATOM     18  C9  <0> d           0.851  -1.813   7.071  0.00  0.00     0.046 A 
ATOM     19  S1  <0> d           1.186  -2.004   9.551  0.00  0.00    -0.081 SA
ATOM     20  C10 <0> d          -0.078  -0.914   7.733  0.00  0.00     0.025 A 
ATOM     21  C11 <0> d          -0.082  -0.846   9.072  0.00  0.00     0.053 A 
ENDBRANCH   1  13
TORSDOF 2
