REMARK  6 active torsions:
REMARK  status: ('A' for Active; 'I' for Inactive)
REMARK    1  A    between atoms: C3_4  and  C8_10 
REMARK    2  A    between atoms: C4_5  and  C5_6 
REMARK    3  A    between atoms: C6_7  and  C7_8 
REMARK    4  A    between atoms: C7_8  and  O1_9 
REMARK    5  A    between atoms: C8_10  and  N1_11 
REMARK    6  A    between atoms: C11_14  and  N2_16 
ROOT
ATOM      1  N1  <0> d           1.597  -2.588  -1.413  0.00  0.00     0.095 N 
ATOM      2  C9  <0> d           2.846  -2.113  -2.062  0.00  0.00     0.275 C 
ATOM      3  C10 <0> d           3.021  -3.092  -3.250  0.00  0.00     0.065 C 
ATOM      4  C11 <0> d           2.549  -4.440  -2.661  0.00  0.00     0.218 C 
ATOM      5  C12 <0> d           1.650  -4.065  -1.468  0.00  0.00     0.305 C 
ENDROOT
BRANCH   1   6
ATOM      6  C8  <0> d           1.513  -2.116  -0.024  0.00  0.00     0.320 C 
BRANCH   6   7
ATOM      7  C3  <0> d           1.215  -0.639  -0.013  0.00  0.00     0.029 A 
ATOM      8  S1  <0> d           2.352   0.737  -0.016  0.00  0.00    -0.103 SA
ATOM      9  C2  <0> d           1.156   2.061   0.002  0.00  0.00     0.051 A 
ATOM     10  C1  <0> d          -0.017   1.389   0.010  0.00  0.00     0.029 A 
ATOM     11  C4  <0> d           0.002  -0.004   0.002  0.00  0.00     0.033 A 
BRANCH  11  12
ATOM     12  C5  <0> d          -1.218  -0.754   0.010  0.00  0.00    -0.064 C 
ATOM     13  C6  <0> d          -2.218  -1.369   0.017  0.00  0.00    -0.075 C 
BRANCH  13  14
ATOM     14  C7  <0> d          -3.472  -2.140   0.025  0.00  0.00     0.258 C 
BRANCH  14  15
ATOM     15  O1  <0> d          -3.172  -3.537   0.015  0.00  0.00    -0.389 OA
ATOM     16  H6  <0> d          -3.953  -4.107   0.019  0.00  0.00     0.210 HD
ENDBRANCH  14  15
ENDBRANCH  13  14
ENDBRANCH  11  12
ENDBRANCH   6   7
ENDBRANCH   1   6
BRANCH   4  17
ATOM     17  N2  <0> d           1.782  -5.194  -3.662  0.00  0.00    -0.065 N 
ATOM     18  C17 <0> d           2.641  -5.483  -4.817  0.00  0.00     0.235 C 
ATOM     19  C16 <0> d           1.825  -6.197  -5.897  0.00  0.00     0.028 C 
ATOM     20  C15 <0> d           1.273  -7.508  -5.330  0.00  0.00     0.003 C 
ATOM     21  C14 <0> d           0.440  -7.201  -4.082  0.00  0.00     0.028 C 
ATOM     22  C13 <0> d           1.307  -6.450  -3.069  0.00  0.00     0.235 C 
ATOM     23  H25 <0> d           0.991  -4.645  -3.961  0.00  0.00     0.280 HD
ENDBRANCH   4  17
TORSDOF 6
