REMARK  5 active torsions:
REMARK  status: ('A' for Active; 'I' for Inactive)
REMARK    1  A    between atoms: C2_2  and  C3_3 
REMARK    2  A    between atoms: C3_3  and  N1_5 
REMARK       I    between atoms: N1_5  and  C5_6 
REMARK    3  A    between atoms: C5_6  and  C6_8 
REMARK    4  A    between atoms: C12_15  and  C18_21 
REMARK    5  A    between atoms: C21_24  and  C24_27 
ROOT
ATOM      1  C6  <0> d          -0.704   2.781  -0.124  0.00  0.00     0.053 A 
ATOM      2  C7  <0> d          -0.445   1.414  -0.207  0.00  0.00     0.019 A 
ATOM      3  C8  <0> d           0.854   0.960  -0.259  0.00  0.00     0.002 A 
ATOM      4  C9  <0> d           1.903   1.864  -0.233  0.00  0.00     0.010 A 
ATOM      5  C10 <0> d           1.666   3.219  -0.148  0.00  0.00    -0.028 A 
ATOM      6  C11 <0> d           0.357   3.709  -0.104  0.00  0.00     0.031 A 
ATOM      7  N2  <0> d           0.032   5.054  -0.062  0.00  0.00    -0.282 NA
ATOM      8  C12 <0> d           1.147   6.006   0.061  0.00  0.00     0.098 C 
ATOM      9  C13 <0> d           2.274   5.487  -0.808  0.00  0.00     0.023 C 
ATOM     10  C14 <0> d           2.771   4.199  -0.080  0.00  0.00     0.049 C 
ATOM     11  C15 <0> d           4.098   3.957  -0.696  0.00  0.00    -0.021 C 
ATOM     12  C16 <0> d           4.601   5.122  -1.089  0.00  0.00    -0.029 C 
ATOM     13  C17 <0> d           3.605   6.246  -0.790  0.00  0.00     0.034 C 
ATOM     14  H17 <0> d          -0.573   5.304  -0.830  0.00  0.00     0.128 HD
ENDROOT
BRANCH   8  15
ATOM     15  C18 <0> d           1.600   6.083   1.497  0.00  0.00    -0.040 A 
ATOM     16  C23 <0> d           1.371   5.021   2.352  0.00  0.00     0.009 A 
ATOM     17  C22 <0> d           1.786   5.092   3.668  0.00  0.00     0.008 A 
ATOM     18  C21 <0> d           2.430   6.225   4.130  0.00  0.00    -0.055 A 
ATOM     19  C20 <0> d           2.659   7.287   3.275  0.00  0.00     0.008 A 
ATOM     20  C19 <0> d           2.248   7.214   1.957  0.00  0.00     0.009 A 
BRANCH  18  21
ATOM     21  C24 <0> d           2.883   6.302   5.565  0.00  0.00     0.010 C 
ATOM     22  C25 <0> d           4.400   6.493   5.612  0.00  0.00     0.015 C 
ATOM     23  C26 <0> d           2.198   7.485   6.253  0.00  0.00     0.015 C 
ENDBRANCH  18  21
ENDBRANCH   8  15
BRANCH   1  24
ATOM     24  C5  <0> d          -2.097   3.260  -0.063  0.00  0.00     0.253 C 
ATOM     25  N1  <0> d          -3.115   2.377  -0.082  0.00  0.00    -0.353 N 
ATOM     26  H13 <0> d          -2.931   1.426  -0.136  0.00  0.00     0.163 HD
ATOM     27  O1  <0> d          -2.328   4.452   0.004  0.00  0.00    -0.268 OA
BRANCH  25  28
ATOM     28  C3  <0> d          -4.499   2.852  -0.022  0.00  0.00     0.080 C 
ATOM     29  C4  <0> d          -4.903   3.063   1.439  0.00  0.00     0.032 C 
BRANCH  28  30
ATOM     30  C2  <0> d          -5.423   1.815  -0.662  0.00  0.00     0.020 C 
ATOM     31  C1  <0> d          -5.101   1.695  -2.153  0.00  0.00     0.007 C 
ENDBRANCH  28  30
ENDBRANCH  25  28
ENDBRANCH   1  24
TORSDOF 5
