REMARK  3 active torsions:
REMARK  status: ('A' for Active; 'I' for Inactive)
REMARK    1  A    between atoms: C4_4  and  C12_14 
REMARK    2  A    between atoms: N1_6  and  C6_7 
REMARK    3  A    between atoms: N4_21  and  C17_24 
ROOT
ATOM      1  C12 <0> d           6.094   1.806  -0.227  0.00  0.00     0.036 C 
ATOM      2  C13 <0> d           5.027   1.468  -1.044  0.00  0.00     0.101 A 
ATOM      3  C14 <0> d           5.185   0.519  -2.162  0.00  0.00     0.265 A 
ATOM      4  O1  <0> d           6.261   0.005  -2.398  0.00  0.00    -0.267 OA
ATOM      5  N3  <0> d           4.102   0.237  -2.916  0.00  0.00    -0.274 N 
ATOM      6  C15 <0> d           2.909   0.793  -2.663  0.00  0.00     0.337 A 
ATOM      7  O2  <0> d           1.972   0.493  -3.377  0.00  0.00    -0.246 OA
ATOM      8  N4  <0> d           2.695   1.666  -1.669  0.00  0.00    -0.229 N 
ATOM      9  C16 <0> d           3.685   2.041  -0.834  0.00  0.00     0.272 A 
ATOM     10  O3  <0> d           3.477   2.830   0.068  0.00  0.00    -0.266 OA
ATOM     11  H13 <0> d           4.188  -0.385  -3.655  0.00  0.00     0.173 HD
ENDROOT
BRANCH   1  12
ATOM     12  C4  <0> d           7.317   1.103  -0.334  0.00  0.00    -0.010 A 
ATOM     13  C3  <0> d           7.497  -0.352  -0.446  0.00  0.00     0.038 A 
ATOM     14  C2  <0> d           8.820  -0.566  -0.525  0.00  0.00     0.014 A 
ATOM     15  C1  <0> d           9.480  -1.915  -0.656  0.00  0.00     0.068 C 
ATOM     16  N1  <0> d           9.476   0.633  -0.463  0.00  0.00    -0.318 N 
ATOM     17  C5  <0> d           8.595   1.644  -0.348  0.00  0.00     0.023 A 
ATOM     18  C11 <0> d           8.936   3.109  -0.252  0.00  0.00     0.069 C 
BRANCH  16  19
ATOM     19  C6  <0> d          10.868   0.787  -0.512  0.00  0.00     0.057 A 
ATOM     20  C10 <0> d          11.467   1.442  -1.579  0.00  0.00     0.146 A 
ATOM     21  N2  <0> d          12.775   1.594  -1.626  0.00  0.00    -0.271 NA
ATOM     22  C9  <0> d          13.563   1.126  -0.678  0.00  0.00     0.116 A 
ATOM     23  C8  <0> d          13.042   0.457   0.414  0.00  0.00     0.021 A 
ATOM     24  C7  <0> d          11.671   0.280   0.507  0.00  0.00     0.033 A 
ENDBRANCH  16  19
ENDBRANCH   1  12
BRANCH   8  25
ATOM     25  C17 <0> d           1.409   2.198  -1.490  0.00  0.00     0.047 A 
ATOM     26  C22 <0> d           0.684   1.892  -0.346  0.00  0.00     0.033 A 
ATOM     27  C21 <0> d          -0.581   2.417  -0.171  0.00  0.00     0.044 A 
ATOM     28  C20 <0> d          -1.126   3.249  -1.135  0.00  0.00     0.116 A 
ATOM     29  C19 <0> d          -0.403   3.559  -2.274  0.00  0.00     0.044 A 
ATOM     30  F1  <0> d          -2.364   3.762  -0.961  0.00  0.00    -0.206 F 
ATOM     31  C18 <0> d           0.861   3.031  -2.455  0.00  0.00     0.033 A 
ENDBRANCH   8  25
TORSDOF 3
