REMARK  9 active torsions:
REMARK  status: ('A' for Active; 'I' for Inactive)
REMARK    1  A    between atoms: C5_5  and  C8_8 
REMARK    2  A    between atoms: C8_8  and  C9_9 
REMARK    3  A    between atoms: C8_8  and  N3_23 
REMARK    4  A    between atoms: C9_9  and  N1_10 
REMARK    5  A    between atoms: N1_10  and  C10_11 
REMARK    6  A    between atoms: C10_11  and  C11_12 
REMARK    7  A    between atoms: C14_15  and  O1_18 
REMARK    8  A    between atoms: O1_18  and  C17_19 
REMARK    9  A    between atoms: C17_19  and  C18_20 
REMARK       I    between atoms: C18_20  and  N2_22 
ROOT
ATOM      1  N1  <0> d          -0.713  -6.473  -0.198  0.00  0.00     0.089 N 
ATOM      2  H11 <0> d          -0.075  -6.763  -0.923  0.00  0.00     0.316 HD
ENDROOT
BRANCH   1   3
ATOM      3  C9  <0> d          -0.928  -5.020  -0.237  0.00  0.00     0.307 C 
BRANCH   3   4
ATOM      4  C8  <0> d           0.419  -4.302  -0.133  0.00  0.00     0.248 C 
BRANCH   4   5
ATOM      5  C5  <0> d           0.205  -2.815  -0.247  0.00  0.00    -0.026 A 
ATOM      6  C4  <0> d           0.441  -2.173  -1.449  0.00  0.00     0.010 A 
ATOM      7  C3  <0> d           0.245  -0.809  -1.555  0.00  0.00     0.007 A 
ATOM      8  C2  <0> d          -0.188  -0.086  -0.459  0.00  0.00    -0.062 A 
ATOM      9  C1  <0> d          -0.403   1.401  -0.574  0.00  0.00     0.048 C 
ATOM     10  C7  <0> d          -0.419  -0.727   0.744  0.00  0.00     0.007 A 
ATOM     11  C6  <0> d          -0.227  -2.091   0.849  0.00  0.00     0.010 A 
ENDBRANCH   4   5
BRANCH   4  12
ATOM     12  N3  <0> d           1.038  -4.609   1.164  0.00  0.00    -0.069 N 
ATOM     13  C19 <0> d           1.355  -6.042   1.228  0.00  0.00     0.270 C 
ATOM     14  C20 <0> d           2.273  -3.828   1.314  0.00  0.00     0.270 C 
ATOM     15  H28 <0> d           0.398  -4.372   1.907  0.00  0.00     0.279 HD
ENDBRANCH   4  12
ENDBRANCH   3   4
ENDBRANCH   1   3
BRANCH   1  16
ATOM     16  C10 <0> d          -1.988  -7.196  -0.296  0.00  0.00     0.308 C 
BRANCH  16  17
ATOM     17  C11 <0> d          -1.727  -8.680  -0.252  0.00  0.00    -0.030 A 
ATOM     18  C16 <0> d          -1.710  -9.342   0.962  0.00  0.00     0.011 A 
ATOM     19  C15 <0> d          -1.477 -10.703   1.004  0.00  0.00     0.037 A 
ATOM     20  C14 <0> d          -1.250 -11.404  -0.172  0.00  0.00     0.069 A 
ATOM     21  C13 <0> d          -1.262 -10.736  -1.388  0.00  0.00     0.037 A 
ATOM     22  C12 <0> d          -1.501  -9.376  -1.425  0.00  0.00     0.011 A 
BRANCH  20  23
ATOM     23  O1  <0> d          -1.016 -12.742  -0.133  0.00  0.00    -0.342 OA
BRANCH  23  24
ATOM     24  C17 <0> d          -1.018 -13.364   1.154  0.00  0.00     0.278 C 
BRANCH  24  25
ATOM     25  C18 <0> d          -0.744 -14.837   1.001  0.00  0.00     0.239 C 
ATOM     26  O2  <0> d          -0.564 -15.309  -0.102  0.00  0.00    -0.271 OA
ATOM     27  N2  <0> d          -0.698 -15.631   2.089  0.00  0.00    -0.368 N 
ATOM     28  H20 <0> d          -0.842 -15.254   2.971  0.00  0.00     0.159 HD
ATOM     29  H21 <0> d          -0.521 -16.580   1.990  0.00  0.00     0.159 HD
ENDBRANCH  24  25
ENDBRANCH  23  24
ENDBRANCH  20  23
ENDBRANCH  16  17
ENDBRANCH   1  16
TORSDOF 9
