REMARK  3 active torsions:
REMARK  status: ('A' for Active; 'I' for Inactive)
REMARK    1  A    between atoms: C8_10  and  C9_11 
REMARK    2  A    between atoms: C12_14  and  N3_17 
REMARK       I    between atoms: N3_17  and  C15_18 
REMARK    3  A    between atoms: C15_18  and  C16_20 
ROOT
ATOM      1  C9  <0> d          -0.167  -0.360   2.496  0.00  0.00     0.010 A 
ATOM      2  C10 <0> d          -0.064   0.998   2.805  0.00  0.00     0.017 A 
ATOM      3  C11 <0> d          -0.178   1.417   4.112  0.00  0.00     0.030 A 
ATOM      4  C12 <0> d          -0.395   0.488   5.125  0.00  0.00     0.035 A 
ATOM      5  C13 <0> d          -0.498  -0.865   4.821  0.00  0.00     0.030 A 
ATOM      6  C14 <0> d          -0.391  -1.289   3.514  0.00  0.00     0.017 A 
ENDROOT
BRANCH   4   7
ATOM      7  N3  <0> d          -0.510   0.916   6.448  0.00  0.00    -0.323 N 
ATOM      8  C15 <0> d          -1.104   2.092   6.728  0.00  0.00     0.256 C 
ATOM      9  O1  <0> d          -1.465   2.821   5.824  0.00  0.00    -0.267 OA
ATOM     10  H12 <0> d          -0.161   0.366   7.167  0.00  0.00     0.169 HD
BRANCH   8  11
ATOM     11  C16 <0> d          -1.317   2.497   8.133  0.00  0.00     0.033 A 
ATOM     12  C21 <0> d          -1.933   3.716   8.426  0.00  0.00     0.027 A 
ATOM     13  C20 <0> d          -2.134   4.084   9.738  0.00  0.00    -0.025 A 
ATOM     14  C19 <0> d          -1.715   3.253  10.767  0.00  0.00    -0.026 A 
ATOM     15  C22 <0> d          -2.758   5.304  10.373  0.00  0.00     0.207 C 
ATOM     16  C18 <0> d          -1.100   2.049  10.484  0.00  0.00     0.011 A 
ATOM     17  C23 <0> d          -2.070   3.937  12.067  0.00  0.00     0.207 C 
ATOM     18  C17 <0> d          -0.899   1.666   9.174  0.00  0.00     0.017 A 
ATOM     19  O2  <0> d          -3.050   4.937  11.734  0.00  0.00    -0.382 OA
ENDBRANCH   8  11
ENDBRANCH   4   7
BRANCH   1  20
ATOM     20  C8  <0> d          -0.045  -0.812   1.095  0.00  0.00     0.141 A 
ATOM     21  N1  <0> d           0.233  -2.094   0.702  0.00  0.00    -0.333 N 
ATOM     22  C1  <0> d           0.460  -3.243   1.583  0.00  0.00     0.158 C 
ATOM     23  C2  <0> d           0.255  -2.103  -0.679  0.00  0.00     0.064 A 
ATOM     24  C7  <0> d          -0.014  -0.783  -1.084  0.00  0.00     0.086 A 
ATOM     25  C3  <0> d           0.474  -3.087  -1.633  0.00  0.00     0.032 A 
ATOM     26  C6  <0> d          -0.057  -0.479  -2.449  0.00  0.00     0.034 A 
ATOM     27  N2  <0> d          -0.184  -0.046   0.040  0.00  0.00    -0.228 NA
ATOM     28  C5  <0> d           0.162  -1.461  -3.373  0.00  0.00     0.002 A 
ATOM     29  C4  <0> d           0.427  -2.763  -2.973  0.00  0.00     0.002 A 
ENDBRANCH   1  20
TORSDOF 3
