REMARK  7 active torsions:
REMARK  status: ('A' for Active; 'I' for Inactive)
REMARK    1  A    between atoms: C5_5  and  N2_14 
REMARK    2  A    between atoms: C7_7  and  N1_8 
REMARK       I    between atoms: N2_14  and  C12_15 
REMARK    3  A    between atoms: C12_15  and  C13_17 
REMARK       I    between atoms: C13_17  and  N3_19 
REMARK    4  A    between atoms: N3_19  and  C14_20 
REMARK    5  A    between atoms: C14_20  and  C15_21 
REMARK    6  A    between atoms: C15_21  and  C16_22 
REMARK    7  A    between atoms: C15_21  and  N5_28 
ROOT
ATOM      1  C13 <0> d           0.405  -6.782  -0.917  0.00  0.00     0.309 C 
ATOM      2  O3  <0> d           0.567  -7.551   0.007  0.00  0.00    -0.262 OA
ATOM      3  N3  <0> d           0.084  -7.254  -2.138  0.00  0.00    -0.350 N 
ATOM      4  H15 <0> d          -0.046  -6.639  -2.877  0.00  0.00     0.162 HD
ENDROOT
BRANCH   1   5
ATOM      5  C12 <0> d           0.561  -5.312  -0.702  0.00  0.00     0.313 C 
ATOM      6  N2  <0> d           0.882  -4.840   0.519  0.00  0.00    -0.319 N 
ATOM      7  H14 <0> d           1.079  -5.457   1.241  0.00  0.00     0.169 HD
ATOM      8  O2  <0> d           0.399  -4.543  -1.627  0.00  0.00    -0.262 OA
BRANCH   6   9
ATOM      9  C5  <0> d           0.930  -3.462   0.744  0.00  0.00     0.037 A 
ATOM     10  C4  <0> d           0.533  -2.943   1.971  0.00  0.00     0.030 A 
ATOM     11  C3  <0> d           0.581  -1.581   2.195  0.00  0.00     0.011 A 
ATOM     12  C2  <0> d           1.024  -0.730   1.201  0.00  0.00    -0.035 A 
ATOM     13  C1  <0> d           1.075   0.756   1.449  0.00  0.00     0.050 C 
ATOM     14  C7  <0> d           1.417  -1.241  -0.030  0.00  0.00     0.045 A 
ATOM     15  C6  <0> d           1.375  -2.609  -0.256  0.00  0.00     0.059 A 
BRANCH  14  16
ATOM     16  N1  <0> d           1.861  -0.377  -1.038  0.00  0.00    -0.317 N 
ATOM     17  C11 <0> d           1.061   0.189  -1.958  0.00  0.00     0.224 C 
ATOM     18  C10 <0> d           1.875   1.056  -2.892  0.00  0.00     0.105 C 
ATOM     19  O1  <0> d          -0.139   0.029  -2.027  0.00  0.00    -0.273 OA
ATOM     20  C9  <0> d           3.333   0.593  -2.663  0.00  0.00     0.029 C 
ATOM     21  C8  <0> d           3.260   0.022  -1.230  0.00  0.00     0.133 C 
ENDBRANCH  14  16
ENDBRANCH   6   9
ENDBRANCH   1   5
BRANCH   3  22
ATOM     22  C14 <0> d          -0.069  -8.695  -2.349  0.00  0.00     0.165 C 
BRANCH  22  23
ATOM     23  C15 <0> d          -0.308  -8.971  -3.835  0.00  0.00     0.290 C 
BRANCH  23  24
ATOM     24  C16 <0> d          -0.336 -10.459  -4.072  0.00  0.00     0.046 A 
ATOM     25  N4  <0> d          -1.234 -11.336  -3.540  0.00  0.00    -0.363 N 
ATOM     26  C19 <0> d          -0.939 -12.590  -3.987  0.00  0.00     0.090 A 
ATOM     27  C20 <0> d          -2.337 -10.989  -2.640  0.00  0.00     0.155 C 
ATOM     28  C18 <0> d           0.143 -12.508  -4.788  0.00  0.00     0.019 A 
ATOM     29  C17 <0> d           0.527 -11.153  -4.841  0.00  0.00     0.029 A 
ENDBRANCH  23  24
BRANCH  23  30
ATOM     30  N5  <0> d           0.775  -8.370  -4.625  0.00  0.00     0.103 N 
ATOM     31  C24 <0> d           0.572  -8.605  -6.061  0.00  0.00     0.301 C 
ATOM     32  C23 <0> d           1.686  -7.914  -6.851  0.00  0.00     0.264 C 
ATOM     33  N6  <0> d           2.989  -8.446  -6.428  0.00  0.00    -0.072 N 
ATOM     34  C22 <0> d           3.187  -8.182  -4.997  0.00  0.00     0.264 C 
ATOM     35  C25 <0> d           4.056  -7.796  -7.199  0.00  0.00     0.269 C 
ATOM     36  H35 <0> d           3.014  -9.442  -6.593  0.00  0.00     0.279 HD
ATOM     37  C21 <0> d           2.085  -8.875  -4.193  0.00  0.00     0.301 C 
ENDBRANCH  23  30
ENDBRANCH  22  23
ENDBRANCH   3  22
TORSDOF 7
