REMARK  5 active torsions:
REMARK  status: ('A' for Active; 'I' for Inactive)
REMARK    1  A    between atoms: C6_7  and  N2_11 
REMARK       I    between atoms: N2_11  and  C9_12 
REMARK    2  A    between atoms: C9_12  and  C10_14 
REMARK       I    between atoms: C10_14  and  N3_16 
REMARK    3  A    between atoms: N3_16  and  C11_17 
REMARK    4  A    between atoms: N4_20  and  C16_23 
REMARK    5  A    between atoms: C16_23  and  C17_24 
ROOT
ATOM      1  C10 <0> d          -0.766  -8.062   1.134  0.00  0.00     0.310 C 
ATOM      2  O3  <0> d          -0.792  -8.035   2.348  0.00  0.00    -0.262 OA
ATOM      3  N3  <0> d          -0.713  -9.244   0.488  0.00  0.00    -0.348 N 
ATOM      4  H8  <0> d          -0.692  -9.266  -0.482  0.00  0.00     0.163 HD
ENDROOT
BRANCH   1   5
ATOM      5  C9  <0> d          -0.791  -6.787   0.358  0.00  0.00     0.313 C 
ATOM      6  N2  <0> d          -0.844  -5.606   1.005  0.00  0.00    -0.319 N 
ATOM      7  H7  <0> d          -0.790  -5.580   1.973  0.00  0.00     0.169 HD
ATOM      8  O2  <0> d          -0.765  -6.814  -0.855  0.00  0.00    -0.262 OA
BRANCH   6   9
ATOM      9  C6  <0> d          -0.977  -4.418   0.281  0.00  0.00     0.037 A 
ATOM     10  C5  <0> d          -1.711  -4.406  -0.904  0.00  0.00     0.032 A 
ATOM     11  C4  <0> d          -1.850  -3.253  -1.622  0.00  0.00     0.037 A 
ATOM     12  C3  <0> d          -1.252  -2.074  -1.170  0.00  0.00     0.093 A 
ATOM     13  N1  <0> d          -1.208  -0.800  -1.645  0.00  0.00    -0.226 NA
ATOM     14  C8  <0> d          -0.512  -2.081   0.023  0.00  0.00     0.108 A 
ATOM     15  C2  <0> d          -0.506  -0.073  -0.829  0.00  0.00     0.142 A 
ATOM     16  C1  <0> d          -0.225   1.397  -1.010  0.00  0.00     0.100 C 
ATOM     17  O1  <0> d          -0.061  -0.819   0.195  0.00  0.00    -0.294 OA
ATOM     18  C7  <0> d          -0.378  -3.257   0.744  0.00  0.00     0.069 A 
ENDBRANCH   6   9
ENDBRANCH   1   5
BRANCH   3  19
ATOM     19  C11 <0> d          -0.688 -10.495   1.249  0.00  0.00     0.088 C 
ATOM     20  C15 <0> d          -0.024 -11.591   0.411  0.00  0.00     0.053 C 
ATOM     21  C14 <0> d          -0.072 -12.913   1.180  0.00  0.00     0.237 C 
ATOM     22  N4  <0> d          -1.469 -13.278   1.446  0.00  0.00    -0.071 N 
ATOM     23  C13 <0> d          -2.091 -12.267   2.309  0.00  0.00     0.237 C 
ATOM     24  H31 <0> d          -1.973 -13.331   0.574  0.00  0.00     0.279 HD
ATOM     25  C12 <0> d          -2.121 -10.920   1.584  0.00  0.00     0.053 C 
BRANCH  22  26
ATOM     26  C16 <0> d          -1.513 -14.585   2.115  0.00  0.00     0.239 C 
BRANCH  26  27
ATOM     27  C17 <0> d          -1.003 -15.665   1.159  0.00  0.00     0.011 C 
ATOM     28  C22 <0> d          -1.951 -15.777  -0.036  0.00  0.00     0.006 C 
ATOM     29  C21 <0> d          -1.440 -16.857  -0.993  0.00  0.00     0.000 C 
ATOM     30  C20 <0> d          -1.381 -18.199  -0.261  0.00  0.00     0.000 C 
ATOM     31  C19 <0> d          -0.433 -18.087   0.935  0.00  0.00     0.000 C 
ATOM     32  C18 <0> d          -0.944 -17.007   1.891  0.00  0.00     0.006 C 
ENDBRANCH  26  27
ENDBRANCH  22  26
ENDBRANCH   3  19
TORSDOF 5
