REMARK  2 active torsions:
REMARK  status: ('A' for Active; 'I' for Inactive)
REMARK    1  A    between atoms: N1_2  and  C2_3 
REMARK    2  A    between atoms: C6_7  and  N2_8 
ROOT
ATOM      1  N2  <0> d          -0.419  -2.465   2.164  0.00  0.00    -0.060 N 
ATOM      2  C7  <0> d          -1.688  -1.847   1.759  0.00  0.00     0.236 C 
ATOM      3  C8  <0> d          -2.787  -2.231   2.752  0.00  0.00     0.028 C 
ATOM      4  C9  <0> d          -2.942  -3.755   2.768  0.00  0.00     0.008 C 
ATOM      5  C10 <0> d          -1.594  -4.391   3.120  0.00  0.00     0.016 C 
ATOM      6  C11 <0> d          -0.539  -3.927   2.114  0.00  0.00     0.193 C 
ATOM      7  C12 <0> d           0.808  -4.563   2.459  0.00  0.00     0.034 C 
ATOM      8  C13 <0> d           0.683  -6.087   2.401  0.00  0.00     0.002 C 
ATOM      9  C14 <0> d          -0.372  -6.551   3.407  0.00  0.00     0.001 C 
ATOM     10  C15 <0> d          -1.721  -5.914   3.065  0.00  0.00     0.007 C 
ATOM     11  H29 <0> d          -0.194  -2.179   3.105  0.00  0.00     0.281 HD
ENDROOT
BRANCH   1  12
ATOM     12  C6  <0> d           0.648  -2.031   1.253  0.00  0.00     0.219 C 
ATOM     13  C2  <0> d           0.271  -2.345  -0.209  0.00  0.00     0.216 C 
ATOM     14  C3  <0> d           0.782  -1.168  -1.059  0.00  0.00     0.035 C 
ATOM     15  C4  <0> d           1.454  -0.180  -0.083  0.00  0.00     0.004 C 
ATOM     16  C5  <0> d           0.795  -0.488   1.284  0.00  0.00     0.035 C 
BRANCH  13  17
ATOM     17  N1  <0> d           0.915  -3.593  -0.638  0.00  0.00    -0.073 N 
ATOM     18  C1  <0> d           0.467  -3.935  -1.995  0.00  0.00     0.267 C 
ATOM     19  H8  <0> d           0.664  -4.337  -0.004  0.00  0.00     0.277 HD
ATOM     20  H30 <0> d           1.917  -3.473  -0.635  0.00  0.00     0.277 HD
ENDBRANCH  13  17
ENDBRANCH   1  12
TORSDOF 2
