REMARK  6 active torsions:
REMARK  status: ('A' for Active; 'I' for Inactive)
REMARK    1  A    between atoms: C2_2  and  C3_3 
REMARK    2  A    between atoms: C2_2  and  N1_10 
REMARK    3  A    between atoms: N1_10  and  C9_11 
REMARK    4  A    between atoms: C13_15  and  N2_17 
REMARK    5  A    between atoms: N2_17  and  S1_18 
REMARK    6  A    between atoms: S1_18  and  N3_21 
ROOT
ATOM      1  C9  <0> d           2.103  -0.604   1.173  0.00  0.00     0.030 A 
ATOM      2  C10 <0> d           2.817  -0.252   0.034  0.00  0.00     0.029 A 
ATOM      3  C11 <0> d           4.193  -0.365   0.017  0.00  0.00     0.004 A 
ATOM      4  C12 <0> d           4.865  -0.828   1.133  0.00  0.00     0.030 A 
ATOM      5  C13 <0> d           4.157  -1.181   2.275  0.00  0.00     0.046 A 
ATOM      6  C14 <0> d           2.774  -1.063   2.297  0.00  0.00     0.059 A 
ENDROOT
BRANCH   1   7
ATOM      7  N1  <0> d           0.711  -0.489   1.189  0.00  0.00    -0.382 N 
ATOM      8  H9  <0> d           0.213  -0.731   1.986  0.00  0.00     0.160 HD
BRANCH   7   9
ATOM      9  C2  <0> d           0.002  -0.004   0.002  0.00  0.00     0.112 C 
ATOM     10  C1  <0> d          -0.019   1.526   0.010  0.00  0.00     0.037 C 
BRANCH   9  11
ATOM     11  C3  <0> d          -1.412  -0.526   0.013  0.00  0.00    -0.019 A 
ATOM     12  C8  <0> d          -2.108  -0.661  -1.175  0.00  0.00     0.019 A 
ATOM     13  C7  <0> d          -3.404  -1.144  -1.165  0.00  0.00     0.019 A 
ATOM     14 Br1  <0> d          -1.286  -0.192  -2.812  0.00  0.00    -0.050 Br
ATOM     15  C6  <0> d          -4.006  -1.482   0.033  0.00  0.00     0.001 A 
ATOM     16  C5  <0> d          -3.312  -1.342   1.220  0.00  0.00     0.001 A 
ATOM     17  C4  <0> d          -2.015  -0.864   1.210  0.00  0.00     0.010 A 
ENDBRANCH   9  11
ENDBRANCH   7   9
ENDBRANCH   1   7
BRANCH   5  18
ATOM     18  N2  <0> d           4.837  -1.650   3.401  0.00  0.00    -0.268 N 
ATOM     19  H14 <0> d           4.508  -2.428   3.878  0.00  0.00     0.180 HD
BRANCH  18  20
ATOM     20  S1  <0> d           6.205  -0.876   3.925  0.00  0.00     0.317 S 
ATOM     21  O1  <0> d           6.641  -1.565   5.088  0.00  0.00    -0.183 OA
ATOM     22  O2  <0> d           7.035  -0.705   2.784  0.00  0.00    -0.183 OA
BRANCH  20  23
ATOM     23  N3  <0> d           5.753   0.640   4.413  0.00  0.00    -0.311 N 
ATOM     24  H15 <0> d           4.824   0.911   4.355  0.00  0.00     0.170 HD
ATOM     25  H16 <0> d           6.418   1.257   4.757  0.00  0.00     0.170 HD
ENDBRANCH  20  23
ENDBRANCH  18  20
ENDBRANCH   5  18
TORSDOF 6
