REMARK  7 active torsions:
REMARK  status: ('A' for Active; 'I' for Inactive)
REMARK    1  A    between atoms: O1_2  and  C2_3 
REMARK    2  A    between atoms: C5_6  and  C8_10 
REMARK    3  A    between atoms: C7_8  and  O2_9 
REMARK    4  A    between atoms: C12_14  and  C15_18 
REMARK    5  A    between atoms: C17_20  and  O6_28 
REMARK    6  A    between atoms: C18_21  and  O5_26 
REMARK    7  A    between atoms: C19_22  and  O4_24 
ROOT
ATOM      1  C8  <0> d          -1.294  -0.774   0.010  0.00  0.00     0.154 C 
ATOM      2  C9  <0> d          -1.503  -1.344   1.392  0.00  0.00     0.037 C 
ATOM      3  C10 <0> d          -1.425  -2.643   1.729  0.00  0.00     0.022 C 
ATOM      4  C11 <0> d          -1.666  -3.084   3.163  0.00  0.00     0.067 C 
ATOM      5  C12 <0> d          -1.211  -1.992   4.129  0.00  0.00     0.032 C 
ATOM      6  C13 <0> d          -2.016  -0.725   3.815  0.00  0.00     0.093 C 
ATOM      7  C14 <0> d          -1.800  -0.370   2.374  0.00  0.00     0.160 C 
ATOM      8  O3  <0> d          -1.883   0.795   2.039  0.00  0.00    -0.293 OA
ATOM      9  N1  <0> d          -1.151  -3.651   0.863  0.00  0.00    -0.357 N 
ATOM     10  C24 <0> d          -0.128  -3.635  -0.078  0.00  0.00     0.059 A 
ATOM     11  C25 <0> d           0.945  -4.507  -0.020  0.00  0.00     0.032 A 
ATOM     12  C26 <0> d           1.905  -4.468  -1.016  0.00  0.00     0.002 A 
ATOM     13  C27 <0> d           1.791  -3.569  -2.061  0.00  0.00     0.002 A 
ATOM     14  C28 <0> d           0.728  -2.684  -2.111  0.00  0.00     0.031 A 
ATOM     15  C29 <0> d          -0.223  -2.706  -1.103  0.00  0.00     0.055 A 
ATOM     16  N2  <0> d          -1.247  -1.760  -1.048  0.00  0.00    -0.375 N 
ATOM     17  H25 <0> d          -1.762  -4.566   0.873  0.00  0.00     0.166 HD
ATOM     18  H30 <0> d          -2.026  -1.772  -1.824  0.00  0.00     0.160 HD
ENDROOT
BRANCH   5  19
ATOM     19  C15 <0> d          -1.473  -2.425   5.549  0.00  0.00    -0.048 A 
ATOM     20  C20 <0> d          -0.422  -2.536   6.441  0.00  0.00     0.047 A 
ATOM     21  C19 <0> d          -0.659  -2.935   7.747  0.00  0.00     0.104 A 
ATOM     22  C18 <0> d          -1.955  -3.221   8.161  0.00  0.00     0.135 A 
ATOM     23  C17 <0> d          -3.009  -3.107   7.261  0.00  0.00     0.104 A 
ATOM     24  C16 <0> d          -2.764  -2.703   5.957  0.00  0.00     0.047 A 
BRANCH  21  25
ATOM     25  O4  <0> d           0.375  -3.045   8.624  0.00  0.00    -0.353 OA
ATOM     26  C21 <0> d           1.679  -2.736   8.130  0.00  0.00     0.210 C 
ENDBRANCH  21  25
BRANCH  22  27
ATOM     27  O5  <0> d          -2.192  -3.612   9.443  0.00  0.00    -0.351 OA
ATOM     28  C22 <0> d          -2.464  -2.583  10.396  0.00  0.00     0.210 C 
ENDBRANCH  22  27
BRANCH  23  29
ATOM     29  O6  <0> d          -4.278  -3.386   7.661  0.00  0.00    -0.353 OA
ATOM     30  C23 <0> d          -5.311  -3.247   6.683  0.00  0.00     0.210 C 
ENDBRANCH  23  29
ENDBRANCH   5  19
BRANCH   1  31
ATOM     31  C5  <0> d           0.002  -0.004   0.002  0.00  0.00    -0.028 A 
ATOM     32  C4  <0> d          -0.006   1.358  -0.233  0.00  0.00     0.012 A 
ATOM     33  C3  <0> d           1.180   2.069  -0.241  0.00  0.00     0.040 A 
ATOM     34  C2  <0> d           2.380   1.415  -0.013  0.00  0.00     0.101 A 
ATOM     35  C7  <0> d           2.388   0.044   0.225  0.00  0.00     0.099 A 
ATOM     36  C6  <0> d           1.196  -0.662   0.231  0.00  0.00     0.049 A 
BRANCH  34  37
ATOM     37  O1  <0> d           3.548   2.113  -0.020  0.00  0.00    -0.353 OA
ATOM     38  C1  <0> d           3.463   3.517  -0.270  0.00  0.00     0.210 C 
ENDBRANCH  34  37
BRANCH  35  39
ATOM     39  O2  <0> d           3.564  -0.601   0.449  0.00  0.00    -0.358 OA
ATOM     40  H9  <0> d           3.569  -1.685   0.636  0.00  0.00     0.217 HD
ENDBRANCH  35  39
ENDBRANCH   1  31
TORSDOF 7
