REMARK  5 active torsions:
REMARK  status: ('A' for Active; 'I' for Inactive)
REMARK    1  A    between atoms: O1_2  and  C2_3 
REMARK    2  A    between atoms: C4_5  and  C10_13 
REMARK    3  A    between atoms: C6_7  and  O3_11 
REMARK    4  A    between atoms: C7_8  and  O2_9 
REMARK    5  A    between atoms: N1_14  and  N2_15 
ROOT
ATOM      1  C2  <0> d           0.002  -0.004   0.002  0.00  0.00     0.105 A 
ATOM      2  C3  <0> d          -0.017   1.379   0.010  0.00  0.00     0.052 A 
ATOM      3  C4  <0> d           1.185   2.092   0.002  0.00  0.00    -0.011 A 
ATOM      4  C5  <0> d           2.402   1.406  -0.014  0.00  0.00     0.052 A 
ATOM      5  C6  <0> d           2.414   0.023  -0.022  0.00  0.00     0.105 A 
ATOM      6  C7  <0> d           1.216  -0.685  -0.014  0.00  0.00     0.135 A 
ENDROOT
BRANCH   3   7
ATOM      7  C10 <0> d           1.168   3.566   0.010  0.00  0.00     0.150 C 
ATOM      8  N1  <0> d           2.285   4.228   0.003  0.00  0.00    -0.176 NA
BRANCH   8   9
ATOM      9  N2  <0> d           2.270   5.629   0.011  0.00  0.00    -0.198 N 
ATOM     10  C12 <0> d           3.354   6.430   0.010  0.00  0.00     0.216 A 
ATOM     11  N4  <0> d           2.913   7.706   0.017  0.00  0.00    -0.251 N 
ATOM     12  S1  <0> d           4.989   5.923  -0.001  0.00  0.00    -0.037 SA
ATOM     13  N3  <0> d           1.512   7.663   0.030  0.00  0.00    -0.166 NA
ATOM     14  H1  <0> d           3.434   8.675   0.014  0.00  0.00     0.191 HD
ATOM     15  C11 <0> d           1.146   6.421   0.026  0.00  0.00     0.259 A 
ENDBRANCH   8   9
ENDBRANCH   3   7
BRANCH   1  16
ATOM     16  O1  <0> d          -1.167  -0.699   0.009  0.00  0.00    -0.353 OA
ATOM     17  C1  <0> d          -2.375   0.063   0.025  0.00  0.00     0.210 C 
ENDBRANCH   1  16
BRANCH   5  18
ATOM     18  O3  <0> d           3.598  -0.646  -0.037  0.00  0.00    -0.353 OA
ATOM     19  C9  <0> d           4.789   0.144  -0.045  0.00  0.00     0.210 C 
ENDBRANCH   5  18
BRANCH   6  20
ATOM     20  O2  <0> d           1.231  -2.045  -0.022  0.00  0.00    -0.351 OA
ATOM     21  C8  <0> d           1.226  -2.686  -1.298  0.00  0.00     0.210 C 
ENDBRANCH   6  20
TORSDOF 5
