REMARK  3 active torsions:
REMARK  status: ('A' for Active; 'I' for Inactive)
REMARK    1  A    between atoms: C3_4  and  S1_7 
REMARK    2  A    between atoms: S1_7  and  C5_8 
REMARK    3  A    between atoms: C6_9  and  N4_15 
ROOT
ATOM      1  C5  <0> d           0.215  -4.856  -0.573  0.00  0.00     0.124 A 
ATOM      2  C6  <0> d           0.375  -6.158  -1.056  0.00  0.00     0.063 A 
ATOM      3  C7  <0> d           0.511  -7.201  -0.150  0.00  0.00     0.052 A 
ATOM      4  C8  <0> d           0.482  -6.905   1.208  0.00  0.00     0.030 A 
ATOM      5  C9  <0> d           0.321  -5.595   1.612  0.00  0.00     0.137 A 
ATOM      6  N3  <0> d           0.199  -4.620   0.729  0.00  0.00    -0.250 NA
ATOM      7 Br1  <0> d           0.661  -8.284   2.489  0.00  0.00    -0.050 Br
ENDROOT
BRANCH   1   8
ATOM      8  S1  <0> d           0.042  -3.518  -1.706  0.00  0.00    -0.066 SA
BRANCH   8   9
ATOM      9  C3  <0> d           0.022  -2.088  -0.677  0.00  0.00     0.043 A 
ATOM     10  C2  <0> d           1.111  -1.421  -0.213  0.00  0.00     0.132 A 
ATOM     11  N1  <0> d           0.664  -0.382   0.541  0.00  0.00    -0.284 N 
ATOM     12  C1  <0> d           1.500   0.600   1.236  0.00  0.00     0.179 C 
ATOM     13  N2  <0> d          -0.736  -0.421   0.540  0.00  0.00    -0.184 NA
ATOM     14  C4  <0> d          -1.120  -1.435  -0.191  0.00  0.00     0.159 A 
ENDBRANCH   8   9
ENDBRANCH   1   8
BRANCH   2  15
ATOM     15  N4  <0> d           0.398  -6.407  -2.433  0.00  0.00    -0.397 N 
ATOM     16  H8  <0> d           0.302  -5.673  -3.061  0.00  0.00     0.156 HD
ATOM     17  H9  <0> d           0.509  -7.313  -2.761  0.00  0.00     0.156 HD
ENDBRANCH   2  15
TORSDOF 3
