REMARK  4 active torsions:
REMARK  status: ('A' for Active; 'I' for Inactive)
REMARK    1  A    between atoms: C3_3  and  N3_15 
REMARK    2  A    between atoms: N1_6  and  C6_9 
REMARK       I    between atoms: N3_15  and  C12_16 
REMARK       I    between atoms: C12_16  and  N4_18 
REMARK    3  A    between atoms: N4_18  and  C14_20 
REMARK    4  A    between atoms: C14_20  and  C15_21 
ROOT
ATOM      1  C1  <0> d          -0.382   1.538   0.047  0.00  0.00     0.072 C 
ATOM      2  C2  <0> d          -0.094   0.059   0.074  0.00  0.00     0.057 A 
ATOM      3  C3  <0> d          -0.109  -0.769  -0.993  0.00  0.00     0.131 A 
ATOM      4  C4  <0> d           0.215  -2.074  -0.540  0.00  0.00     0.296 A 
ATOM      5  O1  <0> d           0.296  -3.074  -1.230  0.00  0.00    -0.264 OA
ATOM      6  N1  <0> d           0.420  -2.006   0.791  0.00  0.00    -0.217 N 
ATOM      7  N2  <0> d           0.235  -0.675   1.186  0.00  0.00    -0.289 N 
ATOM      8  C5  <0> d           0.366  -0.157   2.550  0.00  0.00     0.178 C 
ENDROOT
BRANCH   3   9
ATOM      9  N3  <0> d          -0.397  -0.401  -2.324  0.00  0.00    -0.302 N 
ATOM     10  C12 <0> d          -1.428  -0.976  -2.974  0.00  0.00     0.323 C 
ATOM     11  O2  <0> d          -2.047  -1.882  -2.450  0.00  0.00    -0.247 OA
ATOM     12  N4  <0> d          -1.772  -0.546  -4.204  0.00  0.00    -0.334 N 
ATOM     13  C13 <0> d          -1.026   0.546  -4.834  0.00  0.00     0.154 C 
ATOM     14  H12 <0> d           0.148   0.266  -2.771  0.00  0.00     0.171 HD
BRANCH  12  15
ATOM     15  C14 <0> d          -2.893  -1.171  -4.910  0.00  0.00     0.174 C 
BRANCH  15  16
ATOM     16  C15 <0> d          -4.168  -0.442  -4.574  0.00  0.00     0.020 A 
ATOM     17  S1  <0> d          -5.335  -0.735  -3.254  0.00  0.00    -0.077 SA
ATOM     18  C17 <0> d          -6.414   0.504  -3.620  0.00  0.00     0.071 A 
ATOM     19  N5  <0> d          -5.882   1.060  -4.680  0.00  0.00    -0.257 NA
ATOM     20  C18 <0> d          -7.687   0.879  -2.906  0.00  0.00     0.078 C 
ATOM     21  C16 <0> d          -4.752   0.616  -5.194  0.00  0.00     0.133 A 
ENDBRANCH  15  16
ENDBRANCH  12  15
ENDBRANCH   3   9
BRANCH   6  22
ATOM     22  C6  <0> d           0.761  -3.074   1.627  0.00  0.00     0.060 A 
ATOM     23  C11 <0> d           1.768  -3.955   1.255  0.00  0.00     0.031 A 
ATOM     24  C10 <0> d           2.107  -5.005   2.086  0.00  0.00     0.002 A 
ATOM     25  C9  <0> d           1.437  -5.186   3.282  0.00  0.00     0.000 A 
ATOM     26  C8  <0> d           0.429  -4.314   3.653  0.00  0.00     0.002 A 
ATOM     27  C7  <0> d           0.090  -3.259   2.829  0.00  0.00     0.031 A 
ENDBRANCH   6  22
TORSDOF 4
