REMARK  3 active torsions:
REMARK  status: ('A' for Active; 'I' for Inactive)
REMARK    1  A    between atoms: C6_6  and  N1_9 
REMARK    2  A    between atoms: C9_10  and  C11_15 
REMARK    3  A    between atoms: C12_16  and  N5_24 
ROOT
ATOM      1  N1  <0> d           0.052  -2.798   2.396  0.00  0.00    -0.273 N 
ATOM      2  C9  <0> d          -1.030  -3.237   3.112  0.00  0.00     0.152 A 
ATOM      3  N2  <0> d          -0.574  -3.849   4.168  0.00  0.00    -0.132 NA
ATOM      4  N3  <0> d           0.711  -3.829   4.170  0.00  0.00    -0.121 NA
ATOM      5  C10 <0> d           1.151  -3.202   3.103  0.00  0.00     0.207 A 
ATOM      6  S1  <0> d           2.836  -2.930   2.668  0.00  0.00    -0.009 SA
ENDROOT
BRANCH   2   7
ATOM      7  C11 <0> d          -2.480  -3.046   2.747  0.00  0.00     0.161 C 
ATOM      8  S2  <0> d          -3.502  -2.672   4.231  0.00  0.00    -0.095 SA
ATOM      9  C17 <0> d          -4.059  -4.325   4.599  0.00  0.00     0.102 A 
ATOM     10  C13 <0> d          -3.759  -5.099   3.479  0.00  0.00     0.009 A 
ATOM     11  N4  <0> d          -4.632  -4.832   5.674  0.00  0.00    -0.254 NA
ATOM     12  C12 <0> d          -3.132  -4.379   2.313  0.00  0.00     0.240 C 
ATOM     13  C14 <0> d          -4.073  -6.459   3.554  0.00  0.00     0.013 A 
ATOM     14  C15 <0> d          -4.665  -6.958   4.701  0.00  0.00     0.020 A 
ATOM     15  C16 <0> d          -4.940  -6.112   5.757  0.00  0.00     0.118 A 
BRANCH  12  16
ATOM     16  N5  <0> d          -4.168  -4.101   1.310  0.00  0.00    -0.069 N 
ATOM     17  H15 <0> d          -3.750  -3.651   0.509  0.00  0.00     0.275 HD
ATOM     18  H16 <0> d          -4.598  -4.967   1.022  0.00  0.00     0.275 HD
ATOM     19  H17 <0> d          -4.869  -3.494   1.709  0.00  0.00     0.275 HD
ENDBRANCH  12  16
ENDBRANCH   2   7
BRANCH   1  20
ATOM     20  C6  <0> d           0.036  -2.088   1.186  0.00  0.00     0.049 A 
ATOM     21  C5  <0> d           0.040  -2.772  -0.022  0.00  0.00     0.031 A 
ATOM     22  C4  <0> d           0.025  -2.071  -1.211  0.00  0.00     0.003 A 
ATOM     23  C3  <0> d           0.006  -0.688  -1.200  0.00  0.00     0.007 A 
ATOM     24  C2  <0> d           0.002  -0.004   0.002  0.00  0.00    -0.054 A 
ATOM     25  C1  <0> d          -0.018   1.503   0.010  0.00  0.00     0.049 C 
ATOM     26  C7  <0> d           0.023  -0.700   1.194  0.00  0.00    -0.029 A 
ATOM     27  C8  <0> d           0.025   0.046   2.504  0.00  0.00     0.051 C 
ENDBRANCH   1  20
TORSDOF 3
