REMARK  5 active torsions:
REMARK  status: ('A' for Active; 'I' for Inactive)
REMARK    1  A    between atoms: C4_4  and  S1_18 
REMARK    2  A    between atoms: C5_5  and  C7_7 
REMARK       I    between atoms: C7_7  and  N1_9 
REMARK    3  A    between atoms: N1_9  and  C8_10 
REMARK    4  A    between atoms: S1_18  and  C14_19 
REMARK    5  A    between atoms: C14_19  and  C15_20 
ROOT
ATOM      1  C1  <0> d          -0.017   1.373   0.010  0.00  0.00     0.001 A 
ATOM      2  C2  <0> d           1.170   2.090   0.002  0.00  0.00     0.001 A 
ATOM      3  C3  <0> d           2.383   1.434  -0.013  0.00  0.00     0.019 A 
ATOM      4  C4  <0> d           2.423   0.044  -0.021  0.00  0.00     0.016 A 
ATOM      5  C5  <0> d           1.222  -0.685  -0.013  0.00  0.00     0.048 A 
ATOM      6  C6  <0> d           0.002  -0.004   0.002  0.00  0.00     0.018 A 
ENDROOT
BRANCH   5   7
ATOM      7  C7  <0> d           1.250  -2.158  -0.022  0.00  0.00     0.253 C 
ATOM      8  O1  <0> d           2.314  -2.747  -0.036  0.00  0.00    -0.268 OA
ATOM      9  N1  <0> d           0.095  -2.854  -0.014  0.00  0.00    -0.344 N 
ATOM     10  H7  <0> d          -0.754  -2.384  -0.003  0.00  0.00     0.163 HD
BRANCH   9  11
ATOM     11  C8  <0> d           0.122  -4.319  -0.023  0.00  0.00     0.177 C 
ATOM     12  C13 <0> d           0.232  -4.817  -1.449  0.00  0.00     0.240 C 
ATOM     13  N2  <0> d           0.485  -6.102  -1.693  0.00  0.00    -0.359 N 
ATOM     14  O2  <0> d           0.083  -4.045  -2.372  0.00  0.00    -0.271 OA
ATOM     15  C12 <0> d           0.678  -7.048  -0.582  0.00  0.00     0.122 C 
ATOM     16  H16 <0> d           0.547  -6.416  -2.609  0.00  0.00     0.162 HD
ATOM     17  C11 <0> d          -0.675  -7.303   0.084  0.00  0.00     0.020 C 
ATOM     18  C10 <0> d          -0.961  -6.256   1.145  0.00  0.00     0.004 C 
ATOM     19  C9  <0> d          -1.173  -4.860   0.587  0.00  0.00     0.035 C 
ENDBRANCH   9  11
ENDBRANCH   5   7
BRANCH   4  20
ATOM     20  S1  <0> d           3.970  -0.797  -0.042  0.00  0.00    -0.126 SA
BRANCH  20  21
ATOM     21  C14 <0> d           5.197   0.539  -0.047  0.00  0.00     0.111 C 
BRANCH  21  22
ATOM     22  C15 <0> d           6.604  -0.060  -0.065  0.00  0.00     0.131 C 
ATOM     23  O3  <0> d           6.834  -0.829   1.127  0.00  0.00    -0.385 OA
ATOM     24  C18 <0> d           8.193  -0.670   1.556  0.00  0.00     0.168 C 
ATOM     25  C17 <0> d           8.879   0.310   0.579  0.00  0.00     0.029 C 
ATOM     26  C16 <0> d           7.669   1.065  -0.035  0.00  0.00     0.035 C 
ENDBRANCH  21  22
ENDBRANCH  20  21
ENDBRANCH   4  20
TORSDOF 5
