REMARK  3 active torsions:
REMARK  status: ('A' for Active; 'I' for Inactive)
REMARK    1  A    between atoms: C6_6  and  C11_18 
REMARK    2  A    between atoms: C14_21  and  O3_24 
REMARK    3  A    between atoms: O3_24  and  C17_25 
ROOT
ATOM      1  C1  <0> d           1.624   6.745   3.131  0.00  0.00     0.015 C 
ATOM      2  C2  <0> d           1.788   7.630   1.893  0.00  0.00    -0.036 C 
ATOM      3  C3  <0> d           0.748   7.239   0.841  0.00  0.00     0.067 C 
ATOM      4  C4  <0> d           0.963   5.804   0.425  0.00  0.00     0.022 C 
ATOM      5  C5  <0> d           2.196   5.257   0.429  0.00  0.00     0.024 C 
ATOM      6  C6  <0> d           2.412   3.830  -0.011  0.00  0.00     0.099 C 
ATOM      7  C7  <0> d           1.127   3.056   0.007  0.00  0.00     0.067 A 
ATOM      8  C8  <0> d          -0.075   3.697   0.026  0.00  0.00     0.122 A 
ATOM      9  N1  <0> d          -1.236   2.962   0.032  0.00  0.00    -0.294 N 
ATOM     10  H2  <0> d          -2.210   3.472   0.049  0.00  0.00     0.172 HD
ATOM     11  C9  <0> d          -1.189   1.617   0.017  0.00  0.00     0.328 A 
ATOM     12  O1  <0> d          -2.225   0.981   0.016  0.00  0.00    -0.247 OA
ATOM     13  N2  <0> d          -0.011   0.966   0.007  0.00  0.00    -0.275 N 
ATOM     14  H3  <0> d           0.009  -0.134   0.006  0.00  0.00     0.173 HD
ATOM     15  C10 <0> d           1.150   1.650  -0.000  0.00  0.00     0.260 A 
ATOM     16  O2  <0> d           2.213   1.054  -0.012  0.00  0.00    -0.267 OA
ATOM     17  N3  <0> d          -0.125   5.068   0.039  0.00  0.00    -0.345 N 
ATOM     18  C18 <0> d           3.318   6.000   0.838  0.00  0.00     0.159 C 
ATOM     19  O4  <0> d           4.416   5.479   0.822  0.00  0.00    -0.293 OA
ATOM     20  C19 <0> d           3.184   7.426   1.296  0.00  0.00     0.092 C 
ATOM     21  C20 <0> d           1.604   9.098   2.283  0.00  0.00     0.015 C 
ATOM     22  H9  <0> d          -1.053   5.576  -0.264  0.00  0.00     0.167 HD
ENDROOT
BRANCH   6  23
ATOM     23  C11 <0> d           2.974   3.823  -1.410  0.00  0.00    -0.044 A 
ATOM     24  C16 <0> d           4.222   3.280  -1.649  0.00  0.00     0.011 A 
ATOM     25  C15 <0> d           4.739   3.271  -2.930  0.00  0.00     0.037 A 
ATOM     26  C14 <0> d           4.004   3.809  -3.977  0.00  0.00     0.074 A 
ATOM     27  C13 <0> d           2.752   4.354  -3.734  0.00  0.00     0.037 A 
ATOM     28  C12 <0> d           2.237   4.355  -2.452  0.00  0.00     0.011 A 
BRANCH  26  29
ATOM     29  O3  <0> d           4.510   3.802  -5.238  0.00  0.00    -0.290 OA
BRANCH  29  30
ATOM     30  C17 <0> d           3.698   4.373  -6.266  0.00  0.00     0.505 C 
ATOM     31  F1  <0> d           2.486   3.678  -6.343  0.00  0.00    -0.184 F 
ATOM     32  F2  <0> d           3.447   5.717  -5.970  0.00  0.00    -0.184 F 
ENDBRANCH  29  30
ENDBRANCH  26  29
ENDBRANCH   6  23
TORSDOF 3
