REMARK  5 active torsions:
REMARK  status: ('A' for Active; 'I' for Inactive)
REMARK    1  A    between atoms: C4_6  and  C5_7 
REMARK    2  A    between atoms: C5_7  and  C6_8 
REMARK    3  A    between atoms: C5_7  and  N3_15 
REMARK       I    between atoms: N3_15  and  C12_16 
REMARK    4  A    between atoms: C12_16  and  C13_18 
REMARK    5  A    between atoms: C16_21  and  S1_24 
ROOT
ATOM      1  C5  <0> d           0.032  -0.354   2.521  0.00  0.00     0.188 C 
ENDROOT
BRANCH   1   2
ATOM      2  C4  <0> d           0.023  -0.811   1.085  0.00  0.00     0.133 A 
ATOM      3  N1  <0> d           0.002  -0.004   0.002  0.00  0.00    -0.346 N 
ATOM      4  C1  <0> d          -0.018   1.461   0.010  0.00  0.00     0.157 C 
ATOM      5  C2  <0> d          -0.003  -0.810  -1.104  0.00  0.00     0.111 A 
ATOM      6  C3  <0> d           0.024  -2.081  -0.660  0.00  0.00     0.136 A 
ATOM      7  N2  <0> d           0.036  -2.052   0.681  0.00  0.00    -0.243 NA
ENDBRANCH   1   2
BRANCH   1   8
ATOM      8  C6  <0> d          -1.332  -0.571   3.124  0.00  0.00    -0.028 A 
ATOM      9  C11 <0> d          -2.213   0.489   3.240  0.00  0.00     0.011 A 
ATOM     10  C10 <0> d          -3.464   0.291   3.793  0.00  0.00     0.024 A 
ATOM     11  C9  <0> d          -3.835  -0.967   4.232  0.00  0.00     0.034 A 
ATOM     12  C8  <0> d          -2.953  -2.027   4.116  0.00  0.00     0.024 A 
ATOM     13 Cl1  <0> d          -5.406  -1.216   4.927  0.00  0.00    -0.084 Cl
ATOM     14  C7  <0> d          -1.705  -1.829   3.557  0.00  0.00     0.011 A 
ENDBRANCH   1   8
BRANCH   1  15
ATOM     15  N3  <0> d           1.026  -1.124   3.272  0.00  0.00    -0.341 N 
ATOM     16  C12 <0> d           2.316  -0.736   3.276  0.00  0.00     0.252 C 
ATOM     17  O1  <0> d           2.655   0.254   2.657  0.00  0.00    -0.268 OA
ATOM     18  H11 <0> d           0.755  -1.913   3.767  0.00  0.00     0.164 HD
BRANCH  16  19
ATOM     19  C13 <0> d           3.320  -1.512   4.035  0.00  0.00     0.032 A 
ATOM     20  C18 <0> d           4.657  -1.113   4.041  0.00  0.00     0.018 A 
ATOM     21  C17 <0> d           5.588  -1.842   4.752  0.00  0.00     0.024 A 
ATOM     22  C16 <0> d           5.199  -2.967   5.456  0.00  0.00     0.058 A 
ATOM     23  C15 <0> d           3.875  -3.369   5.454  0.00  0.00     0.024 A 
ATOM     24  C14 <0> d           2.933  -2.646   4.753  0.00  0.00     0.018 A 
BRANCH  22  25
ATOM     25  S1  <0> d           6.395  -3.894   6.360  0.00  0.00     0.171 S 
ATOM     26  O2  <0> d           5.864  -5.210   6.421  0.00  0.00    -0.223 OA
ATOM     27  O3  <0> d           7.626  -3.639   5.698  0.00  0.00    -0.223 OA
ATOM     28  C19 <0> d           6.409  -3.148   8.014  0.00  0.00     0.167 C 
ENDBRANCH  22  25
ENDBRANCH  16  19
ENDBRANCH   1  15
TORSDOF 5
