REMARK  2 active torsions:
REMARK  status: ('A' for Active; 'I' for Inactive)
REMARK    1  A    between atoms: C7_9  and  C8_10 
REMARK    2  A    between atoms: C9_11  and  C12_17 
REMARK       I    between atoms: N4_22  and  C23_30 
REMARK       I    between atoms: C23_30  and  N5_32 
ROOT
ATOM      1  C12 <0> d           3.033  -0.486  -2.787  0.00  0.00    -0.016 C 
ATOM      2  C13 <0> d           2.219  -0.163  -3.865  0.00  0.00     0.095 C 
ATOM      3  N3  <0> d           2.158  -1.264  -4.716  0.00  0.00    -0.378 N 
ATOM      4  C14 <0> d           0.970  -1.908  -5.212  0.00  0.00     0.143 C 
ATOM      5  C15 <0> d           1.036  -2.631  -6.536  0.00  0.00     0.147 C 
ATOM      6  N4  <0> d           2.301  -2.882  -7.124  0.00  0.00    -0.329 N 
ATOM      7  C16 <0> d           3.560  -3.329  -6.662  0.00  0.00     0.163 C 
ATOM      8  C17 <0> d           4.018  -2.960  -5.305  0.00  0.00    -0.038 C 
ATOM      9  C18 <0> d           4.987  -3.656  -4.682  0.00  0.00     0.006 C 
ATOM     10  C19 <0> d           5.527  -3.190  -3.397  0.00  0.00    -0.003 C 
ATOM     11  C20 <0> d           4.874  -2.306  -2.630  0.00  0.00    -0.015 C 
ATOM     12  C21 <0> d           3.538  -1.875  -3.082  0.00  0.00     0.070 C 
ATOM     13  C22 <0> d           3.518  -1.766  -4.624  0.00  0.00     0.126 C 
ATOM     14  C23 <0> d           2.304  -2.634  -8.449  0.00  0.00     0.320 C 
ATOM     15  O4  <0> d           1.340  -2.110  -8.972  0.00  0.00    -0.247 OA
ATOM     16  N5  <0> d           3.377  -2.966  -9.194  0.00  0.00    -0.330 N 
ATOM     17  C24 <0> d           4.248  -4.088  -8.810  0.00  0.00     0.153 C 
ATOM     18  C25 <0> d           4.427  -5.001 -10.028  0.00  0.00     0.187 C 
ATOM     19  O5  <0> d           4.856  -4.218 -11.144  0.00  0.00    -0.388 OA
ATOM     20  C26 <0> d           3.916  -3.223 -11.557  0.00  0.00     0.187 C 
ATOM     21  C27 <0> d           3.708  -2.222 -10.420  0.00  0.00     0.153 C 
ENDROOT
BRANCH   1  22
ATOM     22  C9  <0> d           3.328   0.316  -1.660  0.00  0.00     0.057 A 
ATOM     23  C8  <0> d           2.422   0.822  -0.729  0.00  0.00     0.063 A 
ATOM     24  C11 <0> d           3.217   1.592   0.240  0.00  0.00     0.260 A 
ATOM     25  N2  <0> d           4.513   1.524  -0.109  0.00  0.00    -0.289 N 
ATOM     26  O3  <0> d           2.775   2.189   1.202  0.00  0.00    -0.267 OA
ATOM     27  C10 <0> d           4.665   0.791  -1.225  0.00  0.00     0.260 A 
ATOM     28  H7  <0> d           5.237   1.949   0.376  0.00  0.00     0.172 HD
ATOM     29  O2  <0> d           5.718   0.557  -1.783  0.00  0.00    -0.267 OA
BRANCH  23  30
ATOM     30  C7  <0> d           0.958   0.630  -0.720  0.00  0.00     0.033 A 
ATOM     31  C3  <0> d           0.096   1.668  -1.111  0.00  0.00     0.099 A 
ATOM     32  O1  <0> d           0.271   2.929  -1.537  0.00  0.00    -0.321 OA
ATOM     33  C4  <0> d          -1.288   1.422  -1.081  0.00  0.00     0.018 A 
ATOM     34  C2  <0> d          -0.912   3.520  -1.787  0.00  0.00     0.143 A 
ATOM     35  C1  <0> d          -1.915   2.668  -1.534  0.00  0.00     0.040 A 
ATOM     36  C5  <0> d          -1.753   0.174  -0.671  0.00  0.00     0.130 A 
ATOM     37  N1  <0> d          -0.905  -0.770  -0.314  0.00  0.00    -0.271 NA
ATOM     38  C6  <0> d           0.402  -0.587  -0.325  0.00  0.00     0.131 A 
ENDBRANCH  23  30
ENDBRANCH   1  22
TORSDOF 2
