REMARK  4 active torsions:
REMARK  status: ('A' for Active; 'I' for Inactive)
REMARK    1  A    between atoms: C2_2  and  C7_8 
REMARK       I    between atoms: C7_8  and  N2_10 
REMARK    2  A    between atoms: N2_10  and  C8_11 
REMARK    3  A    between atoms: C10_13  and  O3_20 
REMARK    4  A    between atoms: C13_16  and  O2_17 
ROOT
ATOM      1  C7  <0> d           0.707  -0.488  -1.238  0.00  0.00     0.232 C 
ATOM      2  O1  <0> d           1.700  -1.177  -1.141  0.00  0.00    -0.272 OA
ATOM      3  N2  <0> d           0.227  -0.166  -2.456  0.00  0.00    -0.324 N 
ATOM      4  H13 <0> d          -0.610   0.318  -2.535  0.00  0.00     0.169 HD
ENDROOT
BRANCH   3   5
ATOM      5  C8  <0> d           0.938  -0.529  -3.608  0.00  0.00     0.071 A 
ATOM      6  C13 <0> d           0.269  -0.688  -4.819  0.00  0.00     0.096 A 
ATOM      7  C12 <0> d           0.974  -1.041  -5.958  0.00  0.00     0.065 A 
ATOM      8  C11 <0> d           2.340  -1.247  -5.891  0.00  0.00     0.070 A 
ATOM      9  C10 <0> d           3.008  -1.095  -4.684  0.00  0.00     0.092 A 
ATOM     10 Cl1  <0> d           3.220  -1.696  -7.318  0.00  0.00    -0.081 Cl
ATOM     11  C9  <0> d           2.308  -0.736  -3.543  0.00  0.00     0.071 A 
BRANCH   6  12
ATOM     12  O2  <0> d          -1.076  -0.492  -4.885  0.00  0.00    -0.354 OA
ATOM     13  C14 <0> d          -1.697  -0.673  -6.159  0.00  0.00     0.210 C 
ENDBRANCH   6  12
BRANCH   9  14
ATOM     14  O3  <0> d           4.352  -1.298  -4.620  0.00  0.00    -0.354 OA
ATOM     15  C15 <0> d           4.975  -1.124  -3.346  0.00  0.00     0.210 C 
ENDBRANCH   9  14
ENDBRANCH   3   5
BRANCH   1  16
ATOM     16  C2  <0> d           0.011   0.009   0.002  0.00  0.00     0.061 C 
ATOM     17  C1  <0> d          -0.002   1.539   0.003  0.00  0.00     0.027 C 
ATOM     18  C6  <0> d           0.751  -0.496   1.242  0.00  0.00     0.251 C 
ATOM     19  N1  <0> d           0.762  -1.964   1.244  0.00  0.00    -0.074 N 
ATOM     20  C5  <0> d          -0.611  -2.473   1.339  0.00  0.00     0.232 C 
ATOM     21  H10 <0> d           1.297  -2.294   2.034  0.00  0.00     0.277 HD
ATOM     22  H22 <0> d           1.185  -2.298   0.391  0.00  0.00     0.277 HD
ATOM     23  C4  <0> d          -1.405  -2.043   0.103  0.00  0.00     0.029 C 
ATOM     24  C3  <0> d          -1.429  -0.513   0.025  0.00  0.00     0.022 C 
ENDBRANCH   1  16
TORSDOF 4
