REMARK  3 active torsions:
REMARK  status: ('A' for Active; 'I' for Inactive)
REMARK    1  A    between atoms: O1_2  and  C2_3 
REMARK    2  A    between atoms: C5_6  and  C8_9 
REMARK    3  A    between atoms: C8_9  and  O2_18 
ROOT
ATOM      1  C8  <0> d          -1.869   5.258   0.046  0.00  0.00     0.245 A 
ATOM      2  N1  <0> d          -0.404   5.163   0.032  0.00  0.00    -0.334 N 
ATOM      3  C9  <0> d          -0.079   3.801   0.022  0.00  0.00     0.077 A 
ATOM      4  C10 <0> d           1.154   3.160   0.007  0.00  0.00     0.053 A 
ATOM      5  C11 <0> d           1.180   1.772   0.000  0.00  0.00     0.028 A 
ATOM      6  C12 <0> d          -0.013   1.076   0.008  0.00  0.00     0.109 A 
ATOM      7  C13 <0> d          -1.244   3.035   0.029  0.00  0.00     0.132 A 
ATOM      8  N2  <0> d          -2.359   3.874   0.044  0.00  0.00    -0.321 N 
ATOM      9 Br1  <0> d           2.829   0.845  -0.020  0.00  0.00    -0.050 Br
ATOM     10  H8  <0> d           0.221   5.904   0.030  0.00  0.00     0.165 HD
ATOM     11  H11 <0> d          -3.288   3.595   0.051  0.00  0.00     0.166 HD
ATOM     12  N3  <0> d          -1.238   1.666   0.017  0.00  0.00    -0.349 N 
ATOM     13  H13 <0> d          -2.106   1.118   0.014  0.00  0.00     0.167 HD
ENDROOT
BRANCH   1  14
ATOM     14  C5  <0> d          -2.355   5.985  -1.181  0.00  0.00     0.019 A 
ATOM     15  C4  <0> d          -3.080   7.155  -1.048  0.00  0.00     0.017 A 
ATOM     16  C3  <0> d          -3.526   7.824  -2.171  0.00  0.00     0.037 A 
ATOM     17  C2  <0> d          -3.247   7.321  -3.433  0.00  0.00     0.068 A 
ATOM     18  C7  <0> d          -2.519   6.147  -3.564  0.00  0.00     0.037 A 
ATOM     19  C6  <0> d          -2.070   5.485  -2.438  0.00  0.00     0.017 A 
BRANCH  17  20
ATOM     20  O1  <0> d          -3.685   7.977  -4.540  0.00  0.00    -0.356 OA
ATOM     21  C1  <0> d          -3.361   7.401  -5.807  0.00  0.00     0.210 C 
ENDBRANCH  17  20
ENDBRANCH   1  14
BRANCH   1  22
ATOM     22  O2  <0> d          -2.308   5.934   1.226  0.00  0.00    -0.350 OA
ATOM     23  H12 <0> d          -2.040   5.503   2.049  0.00  0.00     0.214 HD
ENDBRANCH   1  22
TORSDOF 3
