REMARK  5 active torsions:
REMARK  status: ('A' for Active; 'I' for Inactive)
REMARK    1  A    between atoms: C4_4  and  N4_20 
REMARK    2  A    between atoms: C7_7  and  N1_8 
REMARK       I    between atoms: N1_8  and  C8_9 
REMARK    3  A    between atoms: C8_9  and  C9_11 
REMARK    4  A    between atoms: C9_11  and  C10_12 
REMARK    5  A    between atoms: C10_12  and  N2_13 
ROOT
ATOM      1  N1  <0> d          -4.872   3.685   0.044  0.00  0.00    -0.327 N 
ATOM      2  C8  <0> d          -4.892   5.028   0.153  0.00  0.00     0.223 C 
ATOM      3  O1  <0> d          -3.852   5.652   0.151  0.00  0.00    -0.273 OA
ATOM      4  H7  <0> d          -5.815   3.126  -0.046  0.00  0.00     0.169 HD
ENDROOT
BRANCH   1   5
ATOM      5  C7  <0> d          -3.649   3.000   0.046  0.00  0.00     0.040 A 
ATOM      6  C2  <0> d          -3.551   1.754  -0.559  0.00  0.00    -0.033 A 
ATOM      7  C1  <0> d          -4.758   1.139  -1.217  0.00  0.00     0.050 C 
ATOM      8  C3  <0> d          -2.346   1.079  -0.557  0.00  0.00     0.038 A 
ATOM      9  C4  <0> d          -1.233   1.646   0.050  0.00  0.00     0.026 A 
ATOM     10  C5  <0> d          -1.334   2.890   0.660  0.00  0.00     0.031 A 
ATOM     11  C6  <0> d          -2.536   3.567   0.653  0.00  0.00     0.032 A 
BRANCH   9  12
ATOM     12  N4  <0> d          -0.013   0.963   0.051  0.00  0.00    -0.399 N 
ATOM     13  H23 <0> d           0.869   1.412   0.532  0.00  0.00     0.156 HD
ATOM     14  H24 <0> d           0.066  -0.024  -0.428  0.00  0.00     0.156 HD
ENDBRANCH   9  12
ENDBRANCH   1   5
BRANCH   2  15
ATOM     15  C9  <0> d          -6.207   5.755   0.276  0.00  0.00     0.133 C 
BRANCH  15  16
ATOM     16  C10 <0> d          -5.950   7.259   0.384  0.00  0.00     0.281 C 
BRANCH  16  17
ATOM     17  N2  <0> d          -7.231   7.967   0.504  0.00  0.00     0.092 N 
ATOM     18  C14 <0> d          -7.021   9.381   0.846  0.00  0.00     0.300 C 
ATOM     19  C13 <0> d          -8.378  10.063   1.040  0.00  0.00     0.264 C 
ATOM     20  N3  <0> d          -9.168   9.934  -0.192  0.00  0.00    -0.072 N 
ATOM     21  C12 <0> d          -9.378   8.520  -0.535  0.00  0.00     0.264 C 
ATOM     22  C15 <0> d         -10.450  10.642  -0.072  0.00  0.00     0.269 C 
ATOM     23  H25 <0> d          -8.601  10.401  -1.011  0.00  0.00     0.279 HD
ATOM     24  C11 <0> d          -8.021   7.838  -0.728  0.00  0.00     0.300 C 
ENDBRANCH  16  17
ENDBRANCH  15  16
ENDBRANCH   2  15
TORSDOF 5
