REMARK  5 active torsions:
REMARK  status: ('A' for Active; 'I' for Inactive)
REMARK    1  A    between atoms: C3_3  and  C7_10 
REMARK    2  A    between atoms: C4_4  and  C6_7 
REMARK    3  A    between atoms: C6_7  and  N2_8 
REMARK    4  A    between atoms: C7_10  and  S1_11 
REMARK    5  A    between atoms: S1_11  and  C8_12 
ROOT
ATOM      1  C1  <0> d          -0.012   1.387   0.022  0.00  0.00     0.020 A 
ATOM      2  C2  <0> d           1.187   2.075  -0.089  0.00  0.00     0.012 A 
ATOM      3  C3  <0> d           2.366   1.347  -0.114  0.00  0.00    -0.016 A 
ATOM      4  C4  <0> d           2.306  -0.042  -0.028  0.00  0.00     0.106 A 
ATOM      5  N1  <0> d           1.137  -0.661   0.077  0.00  0.00    -0.257 NA
ATOM      6  C5  <0> d           0.003   0.005   0.104  0.00  0.00     0.117 A 
ENDROOT
BRANCH   3   7
ATOM      7  C7  <0> d           3.695   2.048  -0.234  0.00  0.00     0.120 C 
BRANCH   7   8
ATOM      8  S1  <0> d           4.252   2.573   1.410  0.00  0.00    -0.125 SA
BRANCH   8   9
ATOM      9  C8  <0> d           5.796   3.365   1.105  0.00  0.00     0.001 A 
ATOM     10  C13 <0> d           6.524   3.902   2.159  0.00  0.00     0.020 A 
ATOM     11  C12 <0> d           7.736   4.518   1.917  0.00  0.00     0.020 A 
ATOM     12  C11 <0> d           8.220   4.610   0.624  0.00  0.00     0.011 A 
ATOM     13  C10 <0> d           7.495   4.081  -0.429  0.00  0.00     0.020 A 
ATOM     14 Br1  <0> d           9.877   5.461   0.295  0.00  0.00    -0.051 Br
ATOM     15  C9  <0> d           6.285   3.459  -0.193  0.00  0.00     0.020 A 
ENDBRANCH   8   9
ENDBRANCH   7   8
ENDBRANCH   3   7
BRANCH   4  16
ATOM     16  C6  <0> d           3.558  -0.835  -0.054  0.00  0.00     0.122 C 
ATOM     17  N3  <0> d           4.461  -0.622  -1.007  0.00  0.00    -0.384 N 
ATOM     18  H5  <0> d           4.300   0.052  -1.686  0.00  0.00     0.157 HD
ATOM     19  H6  <0> d           5.280  -1.141  -1.024  0.00  0.00     0.157 HD
BRANCH  16  20
ATOM     20  N2  <0> d           3.780  -1.760   0.877  0.00  0.00    -0.384 N 
ATOM     21  H4  <0> d           4.629  -2.227   0.904  0.00  0.00     0.157 HD
ATOM     22  H13 <0> d           3.091  -1.966   1.529  0.00  0.00     0.157 HD
ENDBRANCH  16  20
ENDBRANCH   4  16
TORSDOF 5
