REMARK  4 active torsions:
REMARK  status: ('A' for Active; 'I' for Inactive)
REMARK    1  A    between atoms: C5_6  and  S1_7 
REMARK    2  A    between atoms: S1_7  and  N2_10 
REMARK    3  A    between atoms: N3_13  and  S2_16 
REMARK    4  A    between atoms: S2_16  and  N4_19 
ROOT
ATOM      1  N2  <0> d          -1.939  -1.161  -1.568  0.00  0.00    -0.304 N 
ATOM      2  C6  <0> d          -2.785  -0.187  -2.271  0.00  0.00     0.156 C 
ATOM      3  C7  <0> d          -2.062   0.259  -3.548  0.00  0.00     0.157 C 
ATOM      4  N3  <0> d          -1.608  -0.937  -4.272  0.00  0.00    -0.291 N 
ATOM      5  C8  <0> d          -0.762  -1.912  -3.568  0.00  0.00     0.157 C 
ATOM      6  C9  <0> d          -1.480  -2.354  -2.293  0.00  0.00     0.156 C 
ENDROOT
BRANCH   1   7
ATOM      7  S1  <0> d          -1.505  -0.916   0.011  0.00  0.00     0.262 S 
ATOM      8  O1  <0> d          -1.203  -2.195   0.553  0.00  0.00    -0.200 OA
ATOM      9  O2  <0> d          -2.492  -0.064   0.576  0.00  0.00    -0.200 OA
BRANCH   7  10
ATOM     10  C5  <0> d           0.002  -0.004   0.002  0.00  0.00     0.097 A 
ATOM     11  C1  <0> d          -0.017   1.383   0.010  0.00  0.00     0.030 A 
ATOM     12  C2  <0> d           1.193   2.059   0.002  0.00  0.00     0.046 A 
ATOM     13  C3  <0> d           2.371   1.333  -0.013  0.00  0.00     0.125 A 
ATOM     14  N1  <0> d           2.350   0.014  -0.021  0.00  0.00    -0.247 NA
ATOM     15 Cl1  <0> d           3.893   2.168  -0.024  0.00  0.00    -0.062 Cl
ATOM     16  C4  <0> d           1.217  -0.662  -0.014  0.00  0.00     0.143 A 
ENDBRANCH   7  10
ENDBRANCH   1   7
BRANCH   4  17
ATOM     17  S2  <0> d          -2.042  -1.182  -5.851  0.00  0.00     0.315 S 
ATOM     18  O3  <0> d          -1.958  -2.582  -6.083  0.00  0.00    -0.183 OA
ATOM     19  O4  <0> d          -3.238  -0.445  -6.062  0.00  0.00    -0.183 OA
BRANCH  17  20
ATOM     20  N4  <0> d          -0.878  -0.476  -6.794  0.00  0.00    -0.311 N 
ATOM     21  H12 <0> d          -0.124  -0.028  -6.379  0.00  0.00     0.170 HD
ATOM     22  H13 <0> d          -0.950  -0.510  -7.760  0.00  0.00     0.170 HD
ENDBRANCH  17  20
ENDBRANCH   4  17
TORSDOF 4
