REMARK  5 active torsions:
REMARK  status: ('A' for Active; 'I' for Inactive)
REMARK    1  A    between atoms: C8_10  and  C9_12 
REMARK    2  A    between atoms: C9_12  and  N5_30 
REMARK    3  A    between atoms: C11_14  and  C12_15 
REMARK    4  A    between atoms: C11_14  and  N5_30 
REMARK    5  A    between atoms: C14_20  and  C15_21 
ROOT
ATOM      1  C11 <0> d           4.553  -5.013   1.457  0.00  0.00     0.277 C 
ENDROOT
BRANCH   1   2
ATOM      2  C12 <0> d           4.822  -5.434   2.879  0.00  0.00     0.016 A 
ATOM      3  C14 <0> d           5.597  -4.728   3.820  0.00  0.00     0.096 A 
ATOM      4  N4  <0> d           5.593  -5.412   4.944  0.00  0.00    -0.174 NA
ATOM      5  N3  <0> d           4.828  -6.569   4.746  0.00  0.00    -0.288 N 
ATOM      6  C13 <0> d           4.369  -6.557   3.476  0.00  0.00     0.120 A 
ATOM      7  H2  <0> d           4.652  -7.280   5.427  0.00  0.00     0.188 HD
BRANCH   3   8
ATOM      8  C15 <0> d           6.293  -3.438   3.586  0.00  0.00    -0.002 A 
ATOM      9  C20 <0> d           6.241  -2.432   4.549  0.00  0.00     0.053 A 
ATOM     10  C19 <0> d           6.896  -1.233   4.330  0.00  0.00     0.105 A 
ATOM     11  C18 <0> d           7.597  -1.029   3.143  0.00  0.00     0.105 A 
ATOM     12  O1  <0> d           7.004  -0.110   5.099  0.00  0.00    -0.323 OA
ATOM     13  C17 <0> d           7.642  -2.029   2.183  0.00  0.00     0.040 A 
ATOM     14  O2  <0> d           8.143   0.222   3.170  0.00  0.00    -0.323 OA
ATOM     15  C16 <0> d           6.995  -3.228   2.400  0.00  0.00     0.017 A 
ATOM     16  C21 <0> d           7.431   0.931   4.201  0.00  0.00     0.352 C 
ENDBRANCH   3   8
ENDBRANCH   1   2
BRANCH   1  17
ATOM     17  N5  <0> d           3.589  -3.892   1.468  0.00  0.00    -0.064 N 
ATOM     18  C10 <0> d           2.240  -4.389   1.812  0.00  0.00     0.270 C 
ATOM     19  H22 <0> d           3.883  -3.207   2.174  0.00  0.00     0.280 HD
BRANCH  17  20
ATOM     20  C9  <0> d           3.563  -3.236   0.144  0.00  0.00     0.312 C 
BRANCH  20  21
ATOM     21  C8  <0> d           2.748  -1.972   0.244  0.00  0.00     0.131 A 
ATOM     22  N1  <0> d           3.257  -0.733   0.483  0.00  0.00    -0.341 N 
ATOM     23  C7  <0> d           2.196   0.150   0.501  0.00  0.00     0.068 A 
ATOM     24  H1  <0> d           4.220  -0.505   0.621  0.00  0.00     0.167 HD
ATOM     25  C2  <0> d           2.081   1.520   0.693  0.00  0.00    -0.033 A 
ATOM     26  C6  <0> d           1.045  -0.621   0.262  0.00  0.00     0.086 A 
ATOM     27  C1  <0> d           3.310   2.353   0.949  0.00  0.00     0.050 C 
ATOM     28  C3  <0> d           0.838   2.114   0.648  0.00  0.00     0.009 A 
ATOM     29  C4  <0> d          -0.298   1.352   0.412  0.00  0.00     0.003 A 
ATOM     30  C5  <0> d          -0.204   0.003   0.221  0.00  0.00     0.034 A 
ATOM     31  N2  <0> d           1.455  -1.907   0.115  0.00  0.00    -0.232 NA
ENDBRANCH  20  21
ENDBRANCH  17  20
ENDBRANCH   1  17
TORSDOF 5
