REMARK  5 active torsions:
REMARK  status: ('A' for Active; 'I' for Inactive)
REMARK    1  A    between atoms: C3_3  and  N3_9 
REMARK       I    between atoms: N3_9  and  C7_10 
REMARK    2  A    between atoms: C7_10  and  C8_12 
REMARK    3  A    between atoms: C8_12  and  N4_13 
REMARK    4  A    between atoms: C13_18  and  C14_19 
REMARK    5  A    between atoms: C14_19  and  O2_20 
ROOT
ATOM      1  N3  <0> d          -0.670  -0.450  -2.654  0.00  0.00    -0.322 N 
ATOM      2  C7  <0> d          -0.227   0.797  -2.905  0.00  0.00     0.248 C 
ATOM      3  O1  <0> d           0.210   1.479  -2.001  0.00  0.00    -0.271 OA
ATOM      4  H11 <0> d          -0.976  -1.012  -3.384  0.00  0.00     0.169 HD
ENDROOT
BRANCH   2   5
ATOM      5  C8  <0> d          -0.273   1.346  -4.308  0.00  0.00     0.338 C 
BRANCH   5   6
ATOM      6  N4  <0> d           0.262   2.714  -4.317  0.00  0.00    -0.057 N 
ATOM      7  C13 <0> d           0.345   3.196  -5.700  0.00  0.00     0.212 C 
ATOM      8  C12 <0> d           0.978   4.590  -5.722  0.00  0.00     0.035 C 
ATOM      9  C11 <0> d           0.116   5.548  -4.896  0.00  0.00     0.004 C 
ATOM     10  C10 <0> d          -0.025   4.997  -3.474  0.00  0.00     0.028 C 
ATOM     11  C9  <0> d          -0.621   3.589  -3.536  0.00  0.00     0.236 C 
ATOM     12  H25 <0> d           1.184   2.716  -3.905  0.00  0.00     0.281 HD
BRANCH   7  13
ATOM     13  C14 <0> d           1.203   2.235  -6.525  0.00  0.00     0.197 C 
BRANCH  13  14
ATOM     14  O2  <0> d           2.545   2.254  -6.035  0.00  0.00    -0.399 OA
ATOM     15  H24 <0> d           3.147   1.666  -6.512  0.00  0.00     0.209 HD
ENDBRANCH  13  14
ENDBRANCH   7  13
ENDBRANCH   5   6
ENDBRANCH   2   5
BRANCH   1  16
ATOM     16  C3  <0> d          -0.691  -0.938  -1.334  0.00  0.00     0.085 A 
ATOM     17  C2  <0> d          -0.949  -0.186  -0.179  0.00  0.00     0.079 A 
ATOM     18  C1  <0> d          -1.254   1.290  -0.138  0.00  0.00     0.075 C 
ATOM     19  N2  <0> d          -0.875  -0.982   0.856  0.00  0.00    -0.175 NA
ATOM     20  N1  <0> d          -0.576  -2.272   0.400  0.00  0.00    -0.276 N 
ATOM     21  C4  <0> d          -0.463  -2.221  -0.952  0.00  0.00     0.055 A 
ATOM     22  C5  <0> d          -0.409  -3.465   1.235  0.00  0.00     0.179 C 
ATOM     23  C6  <0> d          -0.145  -3.378  -1.864  0.00  0.00     0.072 C 
ENDBRANCH   1  16
TORSDOF 5
