REMARK  6 active torsions:
REMARK  status: ('A' for Active; 'I' for Inactive)
REMARK    1  A    between atoms: C6_6  and  C8_8 
REMARK    2  A    between atoms: C6_6  and  N3_19 
REMARK    3  A    between atoms: C8_8  and  N1_9 
REMARK    4  A    between atoms: N1_9  and  S1_10 
REMARK    5  A    between atoms: S1_10  and  C9_13 
REMARK    6  A    between atoms: C11_15  and  N2_18 
ROOT
ATOM      1  N1  <0> d           2.961  -2.072   2.042  0.00  0.00    -0.313 N 
ATOM      2  H15 <0> d           3.198  -1.708   1.176  0.00  0.00     0.172 HD
ENDROOT
BRANCH   1   3
ATOM      3  C8  <0> d           1.592  -2.530   2.294  0.00  0.00     0.171 C 
BRANCH   3   4
ATOM      4  C6  <0> d           0.658  -1.957   1.227  0.00  0.00     0.143 C 
ATOM      5  C5  <0> d           1.060  -2.499  -0.146  0.00  0.00     0.041 C 
ATOM      6  C4  <0> d           0.126  -1.926  -1.214  0.00  0.00     0.003 C 
ATOM      7  C3  <0> d           0.231  -0.400  -1.218  0.00  0.00     0.004 C 
ATOM      8  C2  <0> d          -0.171   0.142   0.156  0.00  0.00    -0.016 C 
ATOM      9  C1  <0> d          -0.066   1.669   0.152  0.00  0.00     0.010 C 
ATOM     10  C7  <0> d           0.763  -0.431   1.223  0.00  0.00     0.045 C 
BRANCH   4  11
ATOM     11  N3  <0> d          -0.726  -2.352   1.523  0.00  0.00    -0.068 N 
ATOM     12  C13 <0> d          -0.823  -3.818   1.544  0.00  0.00     0.270 C 
ATOM     13  C14 <0> d          -1.117  -1.817   2.834  0.00  0.00     0.270 C 
ATOM     14  H26 <0> d          -1.340  -1.984   0.813  0.00  0.00     0.280 HD
ENDBRANCH   4  11
ENDBRANCH   3   4
ENDBRANCH   1   3
BRANCH   1  15
ATOM     15  S1  <0> d           4.102  -2.177   3.238  0.00  0.00     0.265 S 
ATOM     16  O1  <0> d           5.316  -1.686   2.685  0.00  0.00    -0.200 OA
ATOM     17  O2  <0> d           3.518  -1.620   4.407  0.00  0.00    -0.200 OA
BRANCH  15  18
ATOM     18  C9  <0> d           4.355  -3.889   3.568  0.00  0.00     0.122 A 
ATOM     19  S2  <0> d           3.515  -4.943   4.739  0.00  0.00    -0.086 SA
ATOM     20  C12 <0> d           4.393  -6.458   4.391  0.00  0.00     0.080 A 
ATOM     21  C11 <0> d           5.263  -6.065   3.425  0.00  0.00     0.034 A 
ATOM     22  C10 <0> d           5.242  -4.745   3.003  0.00  0.00     0.062 A 
BRANCH  21  23
ATOM     23  N2  <0> d           6.170  -6.982   2.861  0.00  0.00    -0.399 N 
ATOM     24  H18 <0> d           6.787  -6.692   2.171  0.00  0.00     0.156 HD
ATOM     25  H19 <0> d           6.177  -7.904   3.162  0.00  0.00     0.156 HD
ENDBRANCH  21  23
ENDBRANCH  15  18
ENDBRANCH   1  15
TORSDOF 6
