REMARK  3 active torsions:
REMARK  status: ('A' for Active; 'I' for Inactive)
REMARK    1  A    between atoms: C14_16  and  C19_22 
REMARK    2  A    between atoms: C17_19  and  O3_21 
REMARK    3  A    between atoms: C19_22  and  O4_23 
ROOT
ATOM      1  C1  <0> d          -2.303  -0.341  -1.356  0.00  0.00     0.016 C 
ATOM      2  C2  <0> d          -2.219   1.175  -1.194  0.00  0.00    -0.035 C 
ATOM      3  C3  <0> d          -2.932   1.833  -2.392  0.00  0.00     0.017 C 
ATOM      4  C4  <0> d          -2.320   1.386  -3.716  0.00  0.00     0.079 C 
ATOM      5  C5  <0> d          -0.827   1.615  -3.686  0.00  0.00     0.127 C 
ATOM      6  O1  <0> d          -0.261   2.155  -4.607  0.00  0.00    -0.298 OA
ATOM      7  C6  <0> d          -0.052   1.150  -2.477  0.00  0.00     0.084 C 
ATOM      8  C7  <0> d          -0.760   1.630  -1.210  0.00  0.00     0.008 C 
ATOM      9  C8  <0> d          -0.013   1.078   0.008  0.00  0.00     0.084 C 
ATOM     10  C9  <0> d          -0.713   1.589   1.243  0.00  0.00     0.132 C 
ATOM     11  O2  <0> d          -0.095   2.168   2.108  0.00  0.00    -0.298 OA
ATOM     12  C10 <0> d          -2.200   1.372   1.381  0.00  0.00     0.065 C 
ATOM     13  C11 <0> d          -2.926   1.644   0.072  0.00  0.00     0.006 C 
ATOM     14  C12 <0> d          -4.388   1.230   0.095  0.00  0.00     0.007 C 
ATOM     15  C13 <0> d          -4.682  -0.117   0.751  0.00  0.00     0.012 C 
ATOM     16  C14 <0> d          -4.003  -0.201   2.099  0.00  0.00    -0.012 C 
ATOM     17  C15 <0> d          -2.482  -0.020   1.880  0.00  0.00     0.010 C 
ATOM     18  C16 <0> d          -1.912  -0.400   3.251  0.00  0.00     0.038 C 
ATOM     19  C17 <0> d          -2.832  -1.545   3.742  0.00  0.00     0.119 C 
ATOM     20  C18 <0> d          -4.035  -1.591   2.760  0.00  0.00     0.043 C 
ENDROOT
BRANCH  16  21
ATOM     21  C19 <0> d          -4.583   0.831   3.068  0.00  0.00     0.174 C 
BRANCH  21  22
ATOM     22  O4  <0> d          -5.986   0.604   3.222  0.00  0.00    -0.400 OA
ATOM     23  H28 <0> d          -6.420   1.224   3.824  0.00  0.00     0.209 HD
ENDBRANCH  21  22
ENDBRANCH  16  21
BRANCH  19  24
ATOM     24  O3  <0> d          -2.124  -2.788   3.704  0.00  0.00    -0.396 OA
ATOM     25  H25 <0> d          -1.361  -2.824   4.297  0.00  0.00     0.210 HD
ENDBRANCH  19  24
TORSDOF 3
