REMARK  5 active torsions:
REMARK  status: ('A' for Active; 'I' for Inactive)
REMARK    1  A    between atoms: C3_3  and  N1_8 
REMARK       I    between atoms: N1_8  and  C7_9 
REMARK    2  A    between atoms: C7_9  and  C8_11 
REMARK    3  A    between atoms: C8_11  and  S1_12 
REMARK    4  A    between atoms: S1_12  and  C9_13 
REMARK    5  A    between atoms: C12_16  and  N3_19 
ROOT
ATOM      1  N1  <0> d           3.584   2.124  -0.021  0.00  0.00    -0.326 N 
ATOM      2  C7  <0> d           4.758   1.469   0.066  0.00  0.00     0.231 C 
ATOM      3  O1  <0> d           4.778   0.256   0.060  0.00  0.00    -0.272 OA
ATOM      4  H5  <0> d           3.573   3.092  -0.093  0.00  0.00     0.169 HD
ENDROOT
BRANCH   2   5
ATOM      5  C8  <0> d           6.047   2.243   0.171  0.00  0.00     0.184 C 
BRANCH   5   6
ATOM      6  S1  <0> d           7.441   1.085   0.272  0.00  0.00    -0.101 SA
BRANCH   6   7
ATOM      7  C9  <0> d           8.855   2.130   0.388  0.00  0.00     0.093 A 
ATOM      8  N2  <0> d           8.699   3.445   0.384  0.00  0.00    -0.252 NA
ATOM      9  C13 <0> d           9.729   4.265   0.475  0.00  0.00     0.146 A 
ATOM     10  C12 <0> d          11.022   3.772   0.567  0.00  0.00     0.043 A 
ATOM     11  C11 <0> d          11.226   2.393   0.568  0.00  0.00     0.033 A 
ATOM     12  C10 <0> d          10.123   1.564   0.477  0.00  0.00     0.041 A 
BRANCH  10  13
ATOM     13  N3  <0> d          12.110   4.649   0.657  0.00  0.00    -0.398 N 
ATOM     14  H11 <0> d          13.012   4.298   0.722  0.00  0.00     0.156 HD
ATOM     15  H12 <0> d          11.962   5.608   0.656  0.00  0.00     0.156 HD
ENDBRANCH  10  13
ENDBRANCH   6   7
ENDBRANCH   5   6
ENDBRANCH   2   5
BRANCH   1  16
ATOM     16  C3  <0> d           2.381   1.410  -0.007  0.00  0.00     0.035 A 
ATOM     17  C2  <0> d           2.273   0.243   0.738  0.00  0.00     0.029 A 
ATOM     18  C1  <0> d           1.085  -0.460   0.750  0.00  0.00     0.003 A 
ATOM     19  C6  <0> d           0.002  -0.004   0.021  0.00  0.00     0.018 A 
ATOM     20  C5  <0> d           0.106   1.159  -0.722  0.00  0.00     0.008 A 
ATOM     21  C4  <0> d           1.292   1.866  -0.738  0.00  0.00     0.047 A 
ATOM     22  I1  <0> d          -1.538   1.846  -1.824  0.00  0.00    -0.045 I 
ENDBRANCH   1  16
TORSDOF 5
