REMARK  7 active torsions:
REMARK  status: ('A' for Active; 'I' for Inactive)
REMARK    1  A    between atoms: C2_2  and  N1_3 
REMARK    2  A    between atoms: N2_10  and  C10_13 
REMARK    3  A    between atoms: C10_13  and  C11_14 
REMARK    4  A    between atoms: C11_14  and  C12_15 
REMARK       I    between atoms: C12_15  and  N3_17 
REMARK    5  A    between atoms: N3_17  and  C13_18 
REMARK    6  A    between atoms: C15_20  and  S1_26 
REMARK    7  A    between atoms: S1_26  and  N4_29 
ROOT
ATOM      1  C12 <0> d          -3.664  -1.958  -1.414  0.00  0.00     0.223 C 
ATOM      2  O2  <0> d          -3.852  -2.536  -0.364  0.00  0.00    -0.273 OA
ATOM      3  N3  <0> d          -3.891  -2.591  -2.582  0.00  0.00    -0.327 N 
ATOM      4  H14 <0> d          -3.818  -2.106  -3.419  0.00  0.00     0.169 HD
ENDROOT
BRANCH   1   5
ATOM      5  C11 <0> d          -3.175  -0.533  -1.412  0.00  0.00     0.123 C 
BRANCH   5   6
ATOM      6  C10 <0> d          -2.999  -0.056   0.031  0.00  0.00     0.143 C 
BRANCH   6   7
ATOM      7  N2  <0> d          -2.524   1.330   0.033  0.00  0.00    -0.297 N 
ATOM      8  C8  <0> d          -1.192   1.735   0.018  0.00  0.00     0.066 A 
ATOM      9  C3  <0> d          -1.195   3.132   0.029  0.00  0.00     0.065 A 
ATOM     10  C7  <0> d           0.012   1.047   0.011  0.00  0.00     0.032 A 
ATOM     11  N1  <0> d          -2.529   3.531   0.041  0.00  0.00    -0.298 N 
ATOM     12  C4  <0> d           0.006   3.825   0.022  0.00  0.00     0.032 A 
ATOM     13  C9  <0> d          -3.302   2.429   0.043  0.00  0.00     0.329 A 
ATOM     14  O1  <0> d          -4.519   2.426   0.053  0.00  0.00    -0.246 OA
ATOM     15  C5  <0> d           1.200   3.131   0.010  0.00  0.00     0.002 A 
ATOM     16  C6  <0> d           1.203   1.746   0.005  0.00  0.00     0.002 A 
BRANCH  11  17
ATOM     17  C2  <0> d          -3.009   4.915   0.049  0.00  0.00     0.130 C 
ATOM     18  C1  <0> d          -3.188   5.402  -1.390  0.00  0.00     0.027 C 
ENDBRANCH  11  17
ENDBRANCH   6   7
ENDBRANCH   5   6
ENDBRANCH   1   5
BRANCH   3  19
ATOM     19  C13 <0> d          -4.233  -3.948  -2.588  0.00  0.00     0.042 A 
ATOM     20  C18 <0> d          -4.955  -4.479  -3.648  0.00  0.00    -0.029 A 
ATOM     21  C17 <0> d          -5.285  -5.821  -3.653  0.00  0.00    -0.052 A 
ATOM     22  C19 <0> d          -5.373  -3.595  -4.794  0.00  0.00     0.051 C 
ATOM     23  C16 <0> d          -4.908  -6.631  -2.599  0.00  0.00     0.032 A 
ATOM     24  C20 <0> d          -6.063  -6.400  -4.807  0.00  0.00     0.049 C 
ATOM     25  C15 <0> d          -4.193  -6.104  -1.539  0.00  0.00     0.082 A 
ATOM     26  C14 <0> d          -3.854  -4.765  -1.530  0.00  0.00     0.055 A 
BRANCH  25  27
ATOM     27  S1  <0> d          -3.714  -7.141  -0.197  0.00  0.00     0.256 S 
ATOM     28  O3  <0> d          -3.679  -8.469  -0.703  0.00  0.00    -0.201 OA
ATOM     29  O4  <0> d          -2.585  -6.527   0.408  0.00  0.00    -0.201 OA
BRANCH  27  30
ATOM     30  N4  <0> d          -4.936  -7.092   0.920  0.00  0.00    -0.324 N 
ATOM     31  H23 <0> d          -5.724  -6.552   0.753  0.00  0.00     0.169 HD
ATOM     32  H24 <0> d          -4.862  -7.603   1.741  0.00  0.00     0.169 HD
ENDBRANCH  27  30
ENDBRANCH  25  27
ENDBRANCH   3  19
TORSDOF 7
