REMARK  3 active torsions:
REMARK  status: ('A' for Active; 'I' for Inactive)
REMARK    1  A    between atoms: C5_6  and  N5_21 
REMARK    2  A    between atoms: C8_10  and  C9_11 
REMARK    3  A    between atoms: C15_18  and  N4_20 
ROOT
ATOM      1  C1  <0> d          -0.395   1.428   0.056  0.00  0.00     0.158 C 
ATOM      2  N1  <0> d          -0.166  -0.019   0.022  0.00  0.00    -0.333 N 
ATOM      3  C2  <0> d          -0.193  -0.829  -1.099  0.00  0.00     0.065 A 
ATOM      4  C3  <0> d          -0.420  -0.594  -2.448  0.00  0.00     0.034 A 
ATOM      5  C4  <0> d          -0.378  -1.639  -3.345  0.00  0.00     0.031 A 
ATOM      6  C5  <0> d          -0.107  -2.934  -2.907  0.00  0.00     0.028 A 
ATOM      7  C6  <0> d           0.121  -3.185  -1.567  0.00  0.00     0.063 A 
ATOM      8  C7  <0> d           0.081  -2.132  -0.648  0.00  0.00     0.088 A 
ATOM      9  N2  <0> d           0.258  -2.063   0.694  0.00  0.00    -0.228 NA
ATOM     10  C8  <0> d           0.120  -0.821   1.094  0.00  0.00     0.141 A 
ENDROOT
BRANCH  10  11
ATOM     11  C9  <0> d           0.250  -0.359   2.491  0.00  0.00     0.011 A 
ATOM     12  C14 <0> d           0.469   0.992   2.773  0.00  0.00     0.036 A 
ATOM     13  C13 <0> d           0.580   1.395   4.077  0.00  0.00     0.038 A 
ATOM     14  C12 <0> d           0.494   0.495   5.166  0.00  0.00     0.076 A 
ATOM     15  S1  <0> d           0.847   2.952   4.891  0.00  0.00    -0.050 SA
ATOM     16  C11 <0> d           0.278  -0.866   4.842  0.00  0.00     0.034 A 
ATOM     17  N3  <0> d           0.630   1.046   6.390  0.00  0.00    -0.224 NA
ATOM     18  C10 <0> d           0.162  -1.269   3.552  0.00  0.00     0.018 A 
ATOM     19  C15 <0> d           0.829   2.333   6.568  0.00  0.00     0.165 A 
BRANCH  19  20
ATOM     20  N4  <0> d           0.984   3.029   7.748  0.00  0.00    -0.378 N 
ATOM     21  H10 <0> d           1.126   3.989   7.731  0.00  0.00     0.158 HD
ATOM     22  H11 <0> d           0.951   2.560   8.596  0.00  0.00     0.158 HD
ENDBRANCH  19  20
ENDBRANCH  10  11
BRANCH   6  23
ATOM     23  N5  <0> d          -0.066  -3.986  -3.829  0.00  0.00    -0.399 N 
ATOM     24  H12 <0> d          -0.226  -3.813  -4.769  0.00  0.00     0.156 HD
ATOM     25  H13 <0> d           0.122  -4.889  -3.526  0.00  0.00     0.156 HD
ENDBRANCH   6  23
TORSDOF 3
