REMARK  5 active torsions:
REMARK  status: ('A' for Active; 'I' for Inactive)
REMARK    1  A    between atoms: C9_11  and  C10_13 
REMARK       I    between atoms: C10_13  and  N3_15 
REMARK    2  A    between atoms: N3_15  and  C11_16 
REMARK    3  A    between atoms: C11_16  and  C12_17 
REMARK    4  A    between atoms: C12_17  and  C13_18 
REMARK    5  A    between atoms: C12_17  and  N4_28 
ROOT
ATOM      1  C10 <0> d           4.574  -3.690   2.267  0.00  0.00     0.272 C 
ATOM      2  O2  <0> d           4.337  -3.256   3.378  0.00  0.00    -0.266 OA
ATOM      3  N3  <0> d           3.970  -3.150   1.190  0.00  0.00    -0.353 N 
ATOM      4  H9  <0> d           4.158  -3.496   0.304  0.00  0.00     0.162 HD
ENDROOT
BRANCH   3   5
ATOM      5  C11 <0> d           3.027  -2.041   1.358  0.00  0.00     0.161 C 
BRANCH   5   6
ATOM      6  C12 <0> d           2.373  -1.719   0.013  0.00  0.00     0.245 C 
BRANCH   6   7
ATOM      7  C13 <0> d           1.468  -0.524   0.167  0.00  0.00     0.015 A 
ATOM      8  S1  <0> d          -0.138  -0.423   0.940  0.00  0.00    -0.104 SA
ATOM      9  C16 <0> d          -0.442   1.314   0.661  0.00  0.00     0.050 A 
ATOM     10  C15 <0> d           0.683   1.694   0.008  0.00  0.00     0.008 A 
ATOM     11  C14 <0> d           1.662   0.752  -0.245  0.00  0.00     0.017 A 
ENDBRANCH   6   7
BRANCH   6  12
ATOM     12  N4  <0> d           1.579  -2.894  -0.457  0.00  0.00    -0.061 N 
ATOM     13  C17 <0> d           0.721  -2.513  -1.590  0.00  0.00     0.236 C 
ATOM     14  C18 <0> d           0.402  -3.883  -2.238  0.00  0.00     0.029 C 
ATOM     15  C19 <0> d           1.730  -4.658  -2.080  0.00  0.00     0.029 C 
ATOM     16  C20 <0> d           2.467  -3.960  -0.921  0.00  0.00     0.236 C 
ATOM     17  H23 <0> d           0.999  -3.239   0.317  0.00  0.00     0.280 HD
ENDBRANCH   6  12
ENDBRANCH   5   6
ENDBRANCH   3   5
BRANCH   1  18
ATOM     18  C9  <0> d           5.523  -4.808   2.098  0.00  0.00     0.155 A 
ATOM     19  C8  <0> d           6.193  -5.400   3.267  0.00  0.00     0.016 A 
ATOM     20  C3  <0> d           7.087  -6.471   3.033  0.00  0.00     0.046 A 
ATOM     21  C7  <0> d           5.968  -4.959   4.567  0.00  0.00     0.015 A 
ATOM     22  C2  <0> d           7.277  -6.892   1.638  0.00  0.00     0.274 A 
ATOM     23  C4  <0> d           7.745  -7.072   4.101  0.00  0.00     0.018 A 
ATOM     24  N1  <0> d           6.593  -6.245   0.672  0.00  0.00    -0.238 N 
ATOM     25  O1  <0> d           8.034  -7.804   1.361  0.00  0.00    -0.266 OA
ATOM     26  C1  <0> d           6.787  -6.669  -0.717  0.00  0.00     0.183 C 
ATOM     27  N2  <0> d           5.784  -5.282   0.903  0.00  0.00    -0.164 NA
ATOM     28  C5  <0> d           7.511  -6.617   5.381  0.00  0.00     0.001 A 
ATOM     29  C6  <0> d           6.630  -5.568   5.612  0.00  0.00     0.001 A 
ENDBRANCH   1  18
TORSDOF 5
