REMARK  5 active torsions:
REMARK  status: ('A' for Active; 'I' for Inactive)
REMARK    1  A    between atoms: C9_9  and  C11_14 
REMARK       I    between atoms: C11_14  and  N2_16 
REMARK    2  A    between atoms: N2_16  and  C12_17 
REMARK    3  A    between atoms: C12_17  and  C13_18 
REMARK    4  A    between atoms: C13_18  and  C14_19 
REMARK    5  A    between atoms: C14_19  and  N3_20 
ROOT
ATOM      1  C1  <0> d          -0.074   1.502   0.011  0.00  0.00     0.048 C 
ATOM      2  C2  <0> d          -0.036  -0.004   0.003  0.00  0.00    -0.061 A 
ATOM      3  C3  <0> d          -0.018  -0.686  -1.207  0.00  0.00     0.015 A 
ATOM      4  C4  <0> d           0.017  -2.062  -1.238  0.00  0.00    -0.034 A 
ATOM      5  C5  <0> d           0.035  -2.783  -0.046  0.00  0.00     0.051 A 
ATOM      6  C6  <0> d           0.017  -2.090   1.180  0.00  0.00    -0.007 A 
ATOM      7  C7  <0> d          -0.014  -0.687   1.184  0.00  0.00     0.020 A 
ATOM      8  C8  <0> d           0.034  -2.808   2.400  0.00  0.00     0.036 A 
ATOM      9  C9  <0> d           0.069  -4.190   2.366  0.00  0.00     0.100 A 
ATOM     10  C10 <0> d           0.087  -4.875   1.069  0.00  0.00     0.261 A 
ATOM     11  O1  <0> d           0.117  -6.091   1.024  0.00  0.00    -0.267 OA
ATOM     12  N1  <0> d           0.070  -4.161  -0.072  0.00  0.00    -0.322 N 
ATOM     13  H1  <0> d           0.082  -4.623  -0.925  0.00  0.00     0.169 HD
ATOM     14  C17 <0> d           0.035  -2.788  -2.558  0.00  0.00     0.050 C 
ENDROOT
BRANCH   9  15
ATOM     15  C11 <0> d           0.089  -4.965   3.618  0.00  0.00     0.257 C 
ATOM     16  O2  <0> d           0.180  -4.392   4.687  0.00  0.00    -0.267 OA
ATOM     17  N2  <0> d           0.005  -6.310   3.579  0.00  0.00    -0.357 N 
ATOM     18  H8  <0> d           0.007  -6.772   2.726  0.00  0.00     0.162 HD
BRANCH  17  19
ATOM     19  C12 <0> d          -0.088  -7.074   4.826  0.00  0.00     0.124 C 
BRANCH  19  20
ATOM     20  C13 <0> d          -0.171  -8.568   4.503  0.00  0.00     0.047 C 
BRANCH  20  21
ATOM     21  C14 <0> d          -0.268  -9.366   5.805  0.00  0.00     0.235 C 
BRANCH  21  22
ATOM     22  N3  <0> d          -0.348 -10.800   5.495  0.00  0.00    -0.079 N 
ATOM     23  C15 <0> d           0.906 -11.235   4.865  0.00  0.00     0.269 C 
ATOM     24  C16 <0> d          -0.561 -11.557   6.735  0.00  0.00     0.269 C 
ATOM     25  H24 <0> d          -1.117 -10.965   4.863  0.00  0.00     0.278 HD
ENDBRANCH  21  22
ENDBRANCH  20  21
ENDBRANCH  19  20
ENDBRANCH  17  19
ENDBRANCH   9  15
TORSDOF 5
