REMARK  6 active torsions:
REMARK  status: ('A' for Active; 'I' for Inactive)
REMARK    1  A    between atoms: C2_2  and  C4_4 
REMARK    2  A    between atoms: C4_4  and  C5_5 
REMARK    3  A    between atoms: C5_5  and  C25_28 
REMARK    4  A    between atoms: C8_8  and  C9_9 
REMARK    5  A    between atoms: C10_10  and  C11_11 
REMARK    6  A    between atoms: N1_19  and  C19_22 
ROOT
ATOM      1  C5  <0> d           5.770   0.544  -0.457  0.00  0.00     0.226 C 
ATOM      2  C6  <0> d           4.425   0.584   0.271  0.00  0.00     0.141 C 
ATOM      3  C7  <0> d           3.620  -0.337  -0.731  0.00  0.00     0.129 C 
ATOM      4  C8  <0> d           4.529  -1.488  -0.862  0.00  0.00     0.224 C 
ATOM      5  C17 <0> d           2.257  -0.022  -0.387  0.00  0.00     0.238 C 
ATOM      6  O1  <0> d           1.303  -0.770  -0.384  0.00  0.00    -0.272 OA
ATOM      7  N1  <0> d           2.277   1.312  -0.062  0.00  0.00    -0.252 N 
ATOM      8  C18 <0> d           3.544   1.796   0.104  0.00  0.00     0.239 C 
ATOM      9  O2  <0> d           3.887   2.958   0.116  0.00  0.00    -0.272 OA
ATOM     10  N2  <0> d           5.849  -0.815  -1.048  0.00  0.00    -0.047 N 
ATOM     11  H25 <0> d           6.584  -1.356  -0.577  0.00  0.00     0.279 HD
ATOM     12  H26 <0> d           6.065  -0.746  -2.050  0.00  0.00     0.279 HD
ENDROOT
BRANCH   4  13
ATOM     13  C9  <0> d           4.525  -2.322   0.393  0.00  0.00     0.008 C 
ATOM     14  C10 <0> d           4.254  -3.618   0.326  0.00  0.00     0.009 C 
BRANCH  14  15
ATOM     15  C11 <0> d           4.249  -4.437   1.556  0.00  0.00    -0.036 A 
ATOM     16  C16 <0> d           3.965  -5.801   1.489  0.00  0.00     0.011 A 
ATOM     17  C15 <0> d           3.962  -6.560   2.642  0.00  0.00     0.001 A 
ATOM     18  C14 <0> d           4.241  -5.971   3.862  0.00  0.00     0.000 A 
ATOM     19  C13 <0> d           4.525  -4.619   3.935  0.00  0.00     0.001 A 
ATOM     20  C12 <0> d           4.535  -3.850   2.790  0.00  0.00     0.011 A 
ENDBRANCH  14  15
ENDBRANCH   4  13
BRANCH   1  21
ATOM     21  C4  <0> d           5.808   1.607  -1.556  0.00  0.00     0.055 C 
BRANCH  21  22
ATOM     22  C2  <0> d           7.188   1.609  -2.217  0.00  0.00    -0.020 C 
ATOM     23  C1  <0> d           7.399   0.289  -2.962  0.00  0.00     0.009 C 
ATOM     24  C3  <0> d           7.279   2.772  -3.206  0.00  0.00     0.009 C 
ENDBRANCH  21  22
ENDBRANCH   1  21
BRANCH   1  25
ATOM     25  C25 <0> d           6.897   0.762   0.520  0.00  0.00     0.211 C 
ATOM     26  O3  <0> d           6.706   1.391   1.533  0.00  0.00    -0.646 OA
ATOM     27  O4  <0> d           8.114   0.257   0.263  0.00  0.00    -0.646 OA
ENDBRANCH   1  25
BRANCH   7  28
ATOM     28  C19 <0> d           1.123   2.094   0.079  0.00  0.00     0.045 A 
ATOM     29  C24 <0> d           1.229   3.438   0.409  0.00  0.00     0.030 A 
ATOM     30  C23 <0> d           0.090   4.207   0.547  0.00  0.00     0.002 A 
ATOM     31  C22 <0> d          -1.156   3.639   0.356  0.00  0.00     0.000 A 
ATOM     32  C21 <0> d          -1.266   2.301   0.022  0.00  0.00     0.002 A 
ATOM     33  C20 <0> d          -0.130   1.527  -0.112  0.00  0.00     0.030 A 
ENDBRANCH   7  28
TORSDOF 6
