REMARK  3 active torsions:
REMARK  status: ('A' for Active; 'I' for Inactive)
REMARK    1  A    between atoms: N1_6  and  C6_7 
REMARK    2  A    between atoms: C6_7  and  C7_8 
REMARK    3  A    between atoms: C12_13  and  N2_14 
ROOT
ATOM      1  C7  <0> d           2.741  -1.601   1.974  0.00  0.00    -0.003 A 
ATOM      2  C8  <0> d           2.812  -2.890   2.467  0.00  0.00     0.050 A 
ATOM      3  C9  <0> d           3.595  -3.170   3.577  0.00  0.00     0.102 A 
ATOM      4  C10 <0> d           4.312  -2.151   4.194  0.00  0.00     0.104 A 
ATOM      5  C11 <0> d           4.239  -0.858   3.701  0.00  0.00     0.069 A 
ATOM      6  C12 <0> d           3.458  -0.583   2.587  0.00  0.00     0.036 A 
ATOM      7  O1  <0> d           5.092  -2.408   5.280  0.00  0.00    -0.346 OA
ATOM      8  C13 <0> d           4.849  -3.637   5.971  0.00  0.00     0.202 C 
ATOM      9  C14 <0> d           4.735  -4.759   4.931  0.00  0.00     0.202 C 
ATOM     10  O2  <0> d           3.650  -4.446   4.051  0.00  0.00    -0.346 OA
ENDROOT
BRANCH   1  11
ATOM     11  C6  <0> d           1.889  -1.303   0.767  0.00  0.00     0.276 C 
BRANCH  11  12
ATOM     12  N1  <0> d           0.640  -0.659   1.196  0.00  0.00    -0.059 N 
ATOM     13  C2  <0> d          -0.150  -0.271   0.013  0.00  0.00     0.121 C 
ATOM     14  C1  <0> d          -0.369   1.243   0.008  0.00  0.00     0.046 C 
ATOM     15  C3  <0> d          -1.507  -0.998   0.112  0.00  0.00     0.040 C 
ATOM     16  C15 <0> d           0.580  -0.696  -1.262  0.00  0.00     0.046 C 
ATOM     17  C4  <0> d          -1.629  -1.308   1.628  0.00  0.00     0.030 C 
ATOM     18  C5  <0> d          -0.156  -1.607   2.004  0.00  0.00     0.236 C 
ATOM     19  H23 <0> d           0.853   0.160   1.746  0.00  0.00     0.281 HD
ENDBRANCH  11  12
ENDBRANCH   1  11
BRANCH   6  20
ATOM     20  N2  <0> d           3.388   0.722   2.085  0.00  0.00    -0.399 N 
ATOM     21  H14 <0> d           2.780   0.930   1.359  0.00  0.00     0.156 HD
ATOM     22  H15 <0> d           3.949   1.417   2.464  0.00  0.00     0.156 HD
ENDBRANCH   6  20
TORSDOF 3
