REMARK  7 active torsions:
REMARK  status: ('A' for Active; 'I' for Inactive)
REMARK    1  A    between atoms: C4_4  and  C13_19 
REMARK    2  A    between atoms: C7_7  and  O1_8 
REMARK    3  A    between atoms: O1_8  and  C8_9 
REMARK    4  A    between atoms: C8_9  and  C9_10 
REMARK       I    between atoms: C9_10  and  N1_12 
REMARK    5  A    between atoms: N1_12  and  C10_13 
REMARK    6  A    between atoms: C10_13  and  C11_14 
REMARK    7  A    between atoms: C13_19  and  N2_20 
ROOT
ATOM      1  C1  <0> d          -0.018   1.503   0.010  0.00  0.00     0.051 C 
ATOM      2  C2  <0> d           0.002  -0.004   0.002  0.00  0.00    -0.028 A 
ATOM      3  C3  <0> d           0.006  -0.689  -1.198  0.00  0.00     0.018 A 
ATOM      4  C4  <0> d           0.024  -2.071  -1.206  0.00  0.00    -0.032 A 
ATOM      5  C5  <0> d           0.040  -2.772  -0.014  0.00  0.00     0.018 A 
ATOM      6  C6  <0> d           0.036  -2.092   1.188  0.00  0.00    -0.028 A 
ATOM      7  C7  <0> d           0.023  -0.705   1.199  0.00  0.00     0.081 A 
ATOM      8  C12 <0> d           0.052  -2.856   2.487  0.00  0.00     0.051 C 
ENDROOT
BRANCH   7   9
ATOM      9  O1  <0> d           0.025  -0.033   2.381  0.00  0.00    -0.341 OA
BRANCH   9  10
ATOM     10  C8  <0> d          -1.246   0.270   2.957  0.00  0.00     0.278 C 
BRANCH  10  11
ATOM     11  C9  <0> d          -1.046   1.011   4.254  0.00  0.00     0.242 C 
ATOM     12  O2  <0> d           0.075   1.255   4.646  0.00  0.00    -0.271 OA
ATOM     13  N1  <0> d          -2.113   1.403   4.978  0.00  0.00    -0.351 N 
ATOM     14  H8  <0> d          -3.010   1.207   4.665  0.00  0.00     0.162 HD
BRANCH  13  15
ATOM     15  C10 <0> d          -1.919   2.123   6.239  0.00  0.00     0.240 C 
BRANCH  15  16
ATOM     16  C11 <0> d          -3.280   2.448   6.856  0.00  0.00     0.403 C 
ATOM     17  F1  <0> d          -3.977   1.259   7.101  0.00  0.00    -0.169 F 
ATOM     18  F2  <0> d          -3.095   3.135   8.060  0.00  0.00    -0.169 F 
ATOM     19  F3  <0> d          -4.014   3.245   5.972  0.00  0.00    -0.169 F 
ENDBRANCH  15  16
ENDBRANCH  13  15
ENDBRANCH  10  11
ENDBRANCH   9  10
ENDBRANCH   7   9
BRANCH   4  20
ATOM     20  C13 <0> d           0.028  -2.816  -2.516  0.00  0.00     0.268 C 
BRANCH  20  21
ATOM     21  N2  <0> d           1.414  -3.039  -2.949  0.00  0.00    -0.075 N 
ATOM     22  H16 <0> d           1.416  -3.537  -3.826  0.00  0.00     0.274 HD
ATOM     23  H17 <0> d           1.877  -2.150  -3.066  0.00  0.00     0.274 HD
ATOM     24  H18 <0> d           1.900  -3.583  -2.252  0.00  0.00     0.274 HD
ENDBRANCH  20  21
ENDBRANCH   4  20
TORSDOF 7
