REMARK  7 active torsions:
REMARK  status: ('A' for Active; 'I' for Inactive)
REMARK    1  A    between atoms: C2_2  and  C3_3 
REMARK    2  A    between atoms: C3_3  and  C4_4 
REMARK    3  A    between atoms: C4_4  and  C5_5 
REMARK    4  A    between atoms: C5_5  and  C6_6 
REMARK    5  A    between atoms: C5_5  and  N3_19 
REMARK       I    between atoms: C6_6  and  N1_8 
REMARK    6  A    between atoms: N1_8  and  C7_9 
REMARK    7  A    between atoms: C10_12  and  N2_16 
ROOT
ATOM      1  C6  <0> d          -2.822  -4.096   0.130  0.00  0.00     0.252 C 
ATOM      2  O1  <0> d          -2.979  -4.783  -0.858  0.00  0.00    -0.271 OA
ATOM      3  N1  <0> d          -2.640  -4.676   1.332  0.00  0.00    -0.324 N 
ATOM      4  H11 <0> d          -2.450  -4.130   2.111  0.00  0.00     0.169 HD
ENDROOT
BRANCH   3   5
ATOM      5  C7  <0> d          -2.726  -6.068   1.458  0.00  0.00     0.052 A 
ATOM      6  C12 <0> d          -3.245  -6.632   2.617  0.00  0.00     0.040 A 
ATOM      7  C11 <0> d          -3.334  -8.006   2.735  0.00  0.00     0.057 A 
ATOM      8 Br1  <0> d          -3.837  -5.520   4.027  0.00  0.00    -0.049 Br
ATOM      9  C10 <0> d          -2.896  -8.819   1.706  0.00  0.00     0.104 A 
ATOM     10  C9  <0> d          -2.373  -8.261   0.554  0.00  0.00     0.038 A 
ATOM     11  C8  <0> d          -2.287  -6.888   0.427  0.00  0.00     0.033 A 
BRANCH   9  12
ATOM     12  N2  <0> d          -2.987 -10.290   1.838  0.00  0.00    -0.116 N 
ATOM     13  O2  <0> d          -2.605 -11.003   0.939  0.00  0.00    -0.532 OA
ATOM     14  O3  <0> d          -3.444 -10.780   2.844  0.00  0.00    -0.532 OA
ENDBRANCH   9  12
ENDBRANCH   3   5
BRANCH   1  15
ATOM     15  C5  <0> d          -2.831  -2.594   0.012  0.00  0.00     0.275 C 
BRANCH  15  16
ATOM     16  C4  <0> d          -1.391  -2.075   0.002  0.00  0.00     0.042 C 
BRANCH  16  17
ATOM     17  C3  <0> d          -1.401  -0.545   0.008  0.00  0.00     0.002 C 
BRANCH  17  18
ATOM     18  C2  <0> d           0.038  -0.026  -0.002  0.00  0.00    -0.004 C 
ATOM     19  C1  <0> d           0.029   1.504   0.004  0.00  0.00     0.005 C 
ENDBRANCH  17  18
ENDBRANCH  16  17
ENDBRANCH  15  16
BRANCH  15  20
ATOM     20  N3  <0> d          -3.500  -2.204  -1.236  0.00  0.00    -0.066 N 
ATOM     21  H15 <0> d          -3.005  -2.600  -2.021  0.00  0.00     0.275 HD
ATOM     22  H16 <0> d          -4.449  -2.546  -1.230  0.00  0.00     0.275 HD
ATOM     23  H17 <0> d          -3.506  -1.198  -1.315  0.00  0.00     0.275 HD
ENDBRANCH  15  20
ENDBRANCH   1  15
TORSDOF 7
