REMARK  4 active torsions:
REMARK  status: ('A' for Active; 'I' for Inactive)
REMARK    1  A    between atoms: S1_2  and  C2_3 
REMARK    2  A    between atoms: C7_8  and  N1_9 
REMARK    3  A    between atoms: N1_9  and  S2_10 
REMARK    4  A    between atoms: S2_10  and  C8_13 
ROOT
ATOM      1  C8  <0> d          -5.555   1.962   4.701  0.00  0.00     0.100 A 
ATOM      2  C9  <0> d          -6.426   0.920   4.942  0.00  0.00     0.027 A 
ATOM      3  C10 <0> d          -7.786   1.095   4.765  0.00  0.00     0.002 A 
ATOM      4  C11 <0> d          -8.283   2.314   4.337  0.00  0.00     0.002 A 
ATOM      5  C12 <0> d          -7.424   3.363   4.087  0.00  0.00     0.024 A 
ATOM      6  C13 <0> d          -6.049   3.194   4.268  0.00  0.00     0.068 A 
ATOM      7  C14 <0> d          -5.151   4.279   4.011  0.00  0.00     0.101 C 
ATOM      8  N2  <0> d          -4.438   5.140   3.806  0.00  0.00    -0.191 NA
ENDROOT
BRANCH   1   9
ATOM      9  S2  <0> d          -3.823   1.738   4.933  0.00  0.00     0.264 S 
ATOM     10  O1  <0> d          -3.635   0.379   5.301  0.00  0.00    -0.200 OA
ATOM     11  O2  <0> d          -3.378   2.816   5.745  0.00  0.00    -0.200 OA
BRANCH   9  12
ATOM     12  N1  <0> d          -3.102   1.932   3.454  0.00  0.00    -0.279 N 
ATOM     13  H8  <0> d          -2.526   2.695   3.291  0.00  0.00     0.179 HD
BRANCH  12  14
ATOM     14  C7  <0> d          -3.324   0.994   2.439  0.00  0.00     0.059 A 
ATOM     15  C2  <0> d          -2.301   0.674   1.546  0.00  0.00     0.027 A 
ATOM     16  C3  <0> d          -2.526  -0.261   0.545  0.00  0.00     0.021 A 
ATOM     17  C4  <0> d          -3.763  -0.868   0.433  0.00  0.00     0.002 A 
ATOM     18  C5  <0> d          -4.778  -0.547   1.315  0.00  0.00     0.002 A 
ATOM     19  C6  <0> d          -4.563   0.383   2.315  0.00  0.00     0.031 A 
BRANCH  15  20
ATOM     20  S1  <0> d          -0.726   1.449   1.692  0.00  0.00    -0.132 SA
ATOM     21  C1  <0> d           0.249   0.720   0.347  0.00  0.00     0.095 C 
ENDBRANCH  15  20
ENDBRANCH  12  14
ENDBRANCH   9  12
ENDBRANCH   1   9
TORSDOF 4
