REMARK  5 active torsions:
REMARK  status: ('A' for Active; 'I' for Inactive)
REMARK    1  A    between atoms: N1_5  and  C5_7 
REMARK    2  A    between atoms: C6_9  and  C14_20 
REMARK    3  A    between atoms: C8_11  and  N5_13 
REMARK    4  A    between atoms: N5_13  and  C9_14 
REMARK    5  A    between atoms: C14_20  and  O1_21 
ROOT
ATOM      1  C5  <0> d           0.055  -3.236   1.449  0.00  0.00     0.751 A 
ATOM      2  N3  <0> d           0.074  -4.437   0.893  0.00  0.00    -0.063 NA
ATOM      3  C6  <0> d           0.093  -5.532   1.639  0.00  0.00     0.081 A 
ATOM      4  C7  <0> d           0.093  -5.413   3.015  0.00  0.00     0.080 A 
ATOM      5  C8  <0> d           0.072  -4.132   3.571  0.00  0.00     0.145 A 
ATOM      6  N4  <0> d           0.059  -3.078   2.762  0.00  0.00    -0.043 NA
ENDROOT
BRANCH   5   7
ATOM      7  N5  <0> d           0.071  -3.963   4.947  0.00  0.00    -0.369 N 
ATOM      8  H6  <0> d           0.056  -3.070   5.325  0.00  0.00     0.161 HD
BRANCH   7   9
ATOM      9  C9  <0> d           0.091  -5.133   5.828  0.00  0.00     0.086 C 
ATOM     10  C13 <0> d           0.696  -4.744   7.180  0.00  0.00     0.052 C 
ATOM     11  C12 <0> d           0.642  -5.949   8.123  0.00  0.00     0.234 C 
ATOM     12  N6  <0> d          -0.753  -6.365   8.310  0.00  0.00    -0.075 N 
ATOM     13  C11 <0> d          -1.318  -6.807   7.030  0.00  0.00     0.234 C 
ATOM     14  H12 <0> d          -1.290  -5.587   8.663  0.00  0.00     0.277 HD
ATOM     15  H25 <0> d          -0.790  -7.125   8.973  0.00  0.00     0.277 HD
ATOM     16  C10 <0> d          -1.339  -5.636   6.046  0.00  0.00     0.052 C 
ENDBRANCH   7   9
ENDBRANCH   5   7
BRANCH   3  17
ATOM     17  C14 <0> d           0.115  -6.893   0.992  0.00  0.00     0.226 C 
BRANCH  17  18
ATOM     18  O1  <0> d           0.133  -7.901   2.005  0.00  0.00    -0.390 OA
ATOM     19  C15 <0> d           0.155  -9.236   1.495  0.00  0.00     0.201 C 
ENDBRANCH  17  18
ENDBRANCH   3  17
BRANCH   1  20
ATOM     20  N1  <0> d           0.035  -2.108   0.628  0.00  0.00    -0.064 N 
ATOM     21  C4  <0> d           0.028  -2.106  -0.731  0.00  0.00     0.052 A 
ATOM     22  C3  <0> d           0.008  -0.817  -1.138  0.00  0.00     0.056 A 
ATOM     23  C16 <0> d           0.041  -3.321  -1.622  0.00  0.00     0.071 C 
ATOM     24  C2  <0> d           0.002  -0.004   0.002  0.00  0.00     0.054 A 
ATOM     25  C1  <0> d          -0.018   1.503   0.010  0.00  0.00     0.072 C 
ATOM     26  N2  <0> d           0.023  -0.775   1.058  0.00  0.00    -0.158 NA
ENDBRANCH   1  20
TORSDOF 5
