REMARK  6 active torsions:
REMARK  status: ('A' for Active; 'I' for Inactive)
REMARK    1  A    between atoms: C7_7  and  N1_8 
REMARK       I    between atoms: N1_8  and  C8_9 
REMARK    2  A    between atoms: C8_9  and  C9_11 
REMARK    3  A    between atoms: C9_11  and  C10_12 
REMARK    4  A    between atoms: C12_15  and  N3_17 
REMARK       I    between atoms: N3_17  and  C13_18 
REMARK    5  A    between atoms: C13_18  and  C14_20 
REMARK    6  A    between atoms: N4_24  and  C18_26 
ROOT
ATOM      1  C10 <0> d           2.136   1.396   0.110  0.00  0.00     0.052 A 
ATOM      2  C11 <0> d           1.782   0.088   0.090  0.00  0.00     0.081 A 
ATOM      3  S1  <0> d           0.001   0.226   0.091  0.00  0.00    -0.062 SA
ATOM      4  C12 <0> d          -0.091   1.960   0.117  0.00  0.00     0.173 A 
ATOM      5  N2  <0> d           1.181   2.305   0.124  0.00  0.00    -0.228 NA
ENDROOT
BRANCH   4   6
ATOM      6  N3  <0> d          -1.218   2.775   0.124  0.00  0.00    -0.305 N 
ATOM      7  C13 <0> d          -2.448   2.224   0.110  0.00  0.00     0.229 C 
ATOM      8  O2  <0> d          -2.572   1.018   0.091  0.00  0.00    -0.273 OA
ATOM      9  H12 <0> d          -1.118   3.739   0.139  0.00  0.00     0.171 HD
BRANCH   7  10
ATOM     10  C14 <0> d          -3.669   3.107   0.117  0.00  0.00     0.105 C 
ATOM     11  C17 <0> d          -4.962   2.263   0.098  0.00  0.00     0.146 C 
ATOM     12  N4  <0> d          -5.319   2.126  -1.319  0.00  0.00    -0.317 N 
ATOM     13  C16 <0> d          -4.679   3.035  -2.074  0.00  0.00     0.225 C 
ATOM     14  C15 <0> d          -3.788   3.897  -1.207  0.00  0.00     0.119 C 
ATOM     15  O3  <0> d          -4.797   3.148  -3.276  0.00  0.00    -0.273 OA
BRANCH  12  16
ATOM     16  C18 <0> d          -6.212   1.171  -1.820  0.00  0.00     0.037 A 
ATOM     17  C23 <0> d          -6.907   0.344  -0.948  0.00  0.00     0.029 A 
ATOM     18  C22 <0> d          -7.787  -0.597  -1.446  0.00  0.00     0.002 A 
ATOM     19  C21 <0> d          -7.976  -0.716  -2.810  0.00  0.00     0.000 A 
ATOM     20  C20 <0> d          -7.284   0.106  -3.681  0.00  0.00     0.002 A 
ATOM     21  C19 <0> d          -6.408   1.054  -3.190  0.00  0.00     0.029 A 
ENDBRANCH  12  16
ENDBRANCH   7  10
ENDBRANCH   4   6
BRANCH   1  22
ATOM     22  C9  <0> d           3.587   1.802   0.118  0.00  0.00     0.163 C 
BRANCH  22  23
ATOM     23  C8  <0> d           3.853   2.740  -1.031  0.00  0.00     0.227 C 
ATOM     24  N1  <0> d           5.091   3.236  -1.224  0.00  0.00    -0.326 N 
ATOM     25  H8  <0> d           5.792   3.055  -0.578  0.00  0.00     0.169 HD
ATOM     26  O1  <0> d           2.952   3.048  -1.783  0.00  0.00    -0.273 OA
BRANCH  24  27
ATOM     27  C7  <0> d           5.365   4.013  -2.356  0.00  0.00     0.040 A 
ATOM     28  C2  <0> d           6.412   4.925  -2.336  0.00  0.00    -0.034 A 
ATOM     29  C1  <0> d           7.253   5.081  -1.096  0.00  0.00     0.050 C 
ATOM     30  C3  <0> d           6.680   5.690  -3.455  0.00  0.00     0.028 A 
ATOM     31  C4  <0> d           5.908   5.547  -4.593  0.00  0.00     0.011 A 
ATOM     32  C5  <0> d           4.865   4.638  -4.616  0.00  0.00     0.021 A 
ATOM     33 Br1  <0> d           6.279   6.596  -6.123  0.00  0.00    -0.051 Br
ATOM     34  C6  <0> d           4.595   3.867  -3.502  0.00  0.00     0.031 A 
ENDBRANCH  24  27
ENDBRANCH  22  23
ENDBRANCH   1  22
TORSDOF 6
