REMARK  6 active torsions:
REMARK  status: ('A' for Active; 'I' for Inactive)
REMARK    1  A    between atoms: C3_3  and  N2_7 
REMARK    2  A    between atoms: N2_7  and  C6_8 
REMARK    3  A    between atoms: C6_8  and  N3_9 
REMARK    4  A    between atoms: N3_9  and  N4_10 
REMARK    5  A    between atoms: N4_10  and  C7_11 
REMARK    6  A    between atoms: C10_14  and  C12_17 
ROOT
ATOM      1  N3  <0> d           5.931   1.917   0.158  0.00  0.00    -0.274 N 
ATOM      2  H8  <0> d           6.752   1.403   0.221  0.00  0.00     0.189 HD
ENDROOT
BRANCH   1   3
ATOM      3  C6  <0> d           4.746   1.283   0.065  0.00  0.00     0.191 C 
ATOM      4  S1  <0> d           4.688  -0.428   0.057  0.00  0.00    -0.039 SA
BRANCH   3   5
ATOM      5  N2  <0> d           3.605   1.996  -0.022  0.00  0.00    -0.331 N 
ATOM      6  H10 <0> d           3.642   2.962  -0.099  0.00  0.00     0.168 HD
BRANCH   5   7
ATOM      7  C3  <0> d           2.368   1.342  -0.002  0.00  0.00     0.049 A 
ATOM      8  C2  <0> d           2.143   0.282   0.873  0.00  0.00     0.032 A 
ATOM      9  C1  <0> d           0.902  -0.333   0.856  0.00  0.00     0.019 A 
ATOM     10  C5  <0> d          -0.065   0.121  -0.021  0.00  0.00     0.088 A 
ATOM     11  N1  <0> d           0.180   1.128  -0.837  0.00  0.00    -0.373 N 
ATOM     12  C4  <0> d           1.346   1.741  -0.854  0.00  0.00     0.117 A 
ATOM     13  H9  <0> d          -0.518   1.425  -1.442  0.00  0.00     0.164 HD
ENDBRANCH   5   7
ENDBRANCH   3   5
ENDBRANCH   1   3
BRANCH   1  14
ATOM     14  N4  <0> d           5.978   3.317   0.165  0.00  0.00    -0.280 N 
ATOM     15  H5  <0> d           5.158   3.830   0.102  0.00  0.00     0.188 HD
BRANCH  14  16
ATOM     16  C7  <0> d           7.202   3.971   0.261  0.00  0.00     0.163 A 
ATOM     17  N5  <0> d           8.318   3.265   0.346  0.00  0.00    -0.240 NA
ATOM     18  C11 <0> d           9.500   3.847   0.434  0.00  0.00     0.135 A 
ATOM     19  C10 <0> d           9.613   5.222   0.451  0.00  0.00     0.067 A 
ATOM     20  C9  <0> d           8.466   6.000   0.369  0.00  0.00     0.045 A 
ATOM     21  C8  <0> d           7.241   5.363   0.272  0.00  0.00     0.082 A 
ATOM     22 Cl1  <0> d           5.774   6.286   0.167  0.00  0.00    -0.080 Cl
BRANCH  19  23
ATOM     23  C12 <0> d          10.968   5.873   0.557  0.00  0.00     0.418 C 
ATOM     24  F1  <0> d          11.288   6.066   1.905  0.00  0.00    -0.166 F 
ATOM     25  F2  <0> d          11.929   5.048  -0.037  0.00  0.00    -0.166 F 
ATOM     26  F3  <0> d          10.945   7.108  -0.099  0.00  0.00    -0.166 F 
ENDBRANCH  19  23
ENDBRANCH  14  16
ENDBRANCH   1  14
TORSDOF 6
