REMARK  4 active torsions:
REMARK  status: ('A' for Active; 'I' for Inactive)
REMARK    1  A    between atoms: C5_6  and  C14_24 
REMARK    2  A    between atoms: C7_10  and  C8_11 
REMARK       I    between atoms: C8_11  and  N3_13 
REMARK    3  A    between atoms: N3_13  and  N4_14 
REMARK       I    between atoms: N4_14  and  C9_15 
REMARK    4  A    between atoms: C9_15  and  C10_17 
ROOT
ATOM      1  C8  <0> d          -1.185  -0.941  -0.097  0.00  0.00     0.277 C 
ATOM      2  O1  <0> d          -0.992  -2.142  -0.116  0.00  0.00    -0.265 OA
ATOM      3  N3  <0> d          -2.439  -0.461   0.018  0.00  0.00    -0.262 N 
ATOM      4  H5  <0> d          -2.612   0.625   0.035  0.00  0.00     0.190 HD
ENDROOT
BRANCH   1   5
ATOM      5  C7  <0> d          -0.049  -0.013  -0.199  0.00  0.00     0.083 A 
ATOM      6  C2  <0> d           1.274  -0.304  -0.319  0.00  0.00    -0.024 A 
ATOM      7  C1  <0> d           1.730  -1.740  -0.361  0.00  0.00     0.050 C 
ATOM      8  C3  <0> d           2.213   0.736  -0.403  0.00  0.00     0.032 A 
ATOM      9  C6  <0> d           1.677   2.050  -0.353  0.00  0.00     0.113 A 
ATOM     10  C4  <0> d           3.623   0.665  -0.531  0.00  0.00     0.046 A 
ATOM     11  N2  <0> d           2.451   3.110  -0.423  0.00  0.00    -0.225 NA
ATOM     12  S1  <0> d          -0.068   1.772  -0.195  0.00  0.00    -0.063 SA
ATOM     13  C5  <0> d           3.757   2.972  -0.542  0.00  0.00     0.131 A 
ATOM     14  N1  <0> d           4.321   1.777  -0.594  0.00  0.00    -0.237 NA
ATOM     15  C17 <0> d           4.314  -0.672  -0.595  0.00  0.00     0.071 C 
BRANCH  13  16
ATOM     16  C14 <0> d           4.625   4.201  -0.621  0.00  0.00     0.057 A 
ATOM     17  C16 <0> d           4.374   5.171  -1.777  0.00  0.00     0.013 A 
ATOM     18  C15 <0> d           3.961   5.553  -0.354  0.00  0.00     0.013 A 
ENDBRANCH  13  16
ENDBRANCH   1   5
BRANCH   3  19
ATOM     19  N4  <0> d          -3.521  -1.345   0.115  0.00  0.00    -0.262 N 
ATOM     20  C9  <0> d          -4.775  -0.865   0.229  0.00  0.00     0.286 C 
ATOM     21  O2  <0> d          -4.968   0.337   0.248  0.00  0.00    -0.264 OA
ATOM     22  H6  <0> d          -3.347  -2.431   0.098  0.00  0.00     0.190 HD
BRANCH  20  23
ATOM     23  C10 <0> d          -5.908  -1.791   0.331  0.00  0.00     0.103 A 
ATOM     24  N5  <0> d          -5.839  -3.165   0.323  0.00  0.00    -0.360 N 
ATOM     25  C13 <0> d          -7.095  -3.663   0.436  0.00  0.00     0.107 A 
ATOM     26  H1  <0> d          -4.864  -3.666   0.233  0.00  0.00     0.165 HD
ATOM     27  C12 <0> d          -7.970  -2.632   0.518  0.00  0.00     0.028 A 
ATOM     28  C11 <0> d          -7.237  -1.442   0.458  0.00  0.00     0.055 A 
ATOM     29 Br1  <0> d          -9.848  -2.775   0.689  0.00  0.00    -0.050 Br
ENDBRANCH  20  23
ENDBRANCH   3  19
TORSDOF 4
