REMARK  3 active torsions:
REMARK  status: ('A' for Active; 'I' for Inactive)
REMARK    1  A    between atoms: C2_2  and  C10_13 
REMARK    2  A    between atoms: C10_13  and  C11_14 
REMARK    3  A    between atoms: C10_13  and  N1_20 
ROOT
ATOM      1  C1  <0> d          -0.017   1.380   0.010  0.00  0.00     0.050 A 
ATOM      2  C2  <0> d           1.176   2.082   0.002  0.00  0.00    -0.007 A 
ATOM      3  C3  <0> d           2.382   1.406  -0.014  0.00  0.00     0.022 A 
ATOM      4  C4  <0> d           2.404   0.021  -0.022  0.00  0.00     0.059 A 
ATOM      5  C5  <0> d           1.212  -0.683  -0.013  0.00  0.00     0.103 A 
ATOM      6  C6  <0> d           0.002  -0.004   0.002  0.00  0.00     0.102 A 
ATOM      7  O1  <0> d          -1.167  -0.709   0.010  0.00  0.00    -0.348 OA
ATOM      8  C7  <0> d          -1.468  -1.433  -1.185  0.00  0.00     0.178 C 
ATOM      9  C8  <0> d          -0.780  -2.789  -1.182  0.00  0.00     0.053 C 
ATOM     10  C9  <0> d           0.736  -2.669  -1.212  0.00  0.00     0.178 C 
ATOM     11  O2  <0> d           1.220  -2.048  -0.020  0.00  0.00    -0.348 OA
ATOM     12 Br1  <0> d           4.006   2.374  -0.026  0.00  0.00    -0.050 Br
ENDROOT
BRANCH   2  13
ATOM     13  C10 <0> d           1.160   3.589   0.011  0.00  0.00     0.223 C 
BRANCH  13  14
ATOM     14  C11 <0> d           1.266   4.109  -1.425  0.00  0.00     0.044 C 
ATOM     15  C15 <0> d           0.018   3.698  -2.211  0.00  0.00     0.174 C 
ATOM     16  O3  <0> d           0.093   4.235  -3.534  0.00  0.00    -0.391 OA
ATOM     17  C14 <0> d           0.146   5.662  -3.583  0.00  0.00     0.167 C 
ATOM     18  C13 <0> d           1.400   6.150  -2.853  0.00  0.00     0.027 C 
ATOM     19  C12 <0> d           1.372   5.637  -1.410  0.00  0.00     0.011 C 
ENDBRANCH  13  14
BRANCH  13  20
ATOM     20  N1  <0> d          -0.095   4.062   0.611  0.00  0.00    -0.070 N 
ATOM     21  H19 <0> d          -0.106   5.071   0.616  0.00  0.00     0.275 HD
ATOM     22  H20 <0> d          -0.876   3.721   0.071  0.00  0.00     0.275 HD
ATOM     23  H21 <0> d          -0.165   3.720   1.557  0.00  0.00     0.275 HD
ENDBRANCH  13  20
ENDBRANCH   2  13
TORSDOF 3
