REMARK  5 active torsions:
REMARK  status: ('A' for Active; 'I' for Inactive)
REMARK    1  A    between atoms: C5_5  and  N4_24 
REMARK    2  A    between atoms: C6_6  and  C8_8 
REMARK    3  A    between atoms: C8_8  and  N6_29 
REMARK    4  A    between atoms: C9_9  and  N6_29 
REMARK    5  A    between atoms: N2_17  and  C16_18 
ROOT
ATOM      1  N6  <0> d          -3.079   3.902   1.423  0.00  0.00    -0.063 N 
ATOM      2  H24 <0> d          -2.405   4.375   2.038  0.00  0.00     0.278 HD
ATOM      3  H25 <0> d          -3.219   2.938   1.746  0.00  0.00     0.278 HD
ENDROOT
BRANCH   1   4
ATOM      4  C8  <0> d          -2.551   3.883   0.046  0.00  0.00     0.274 C 
BRANCH   4   5
ATOM      5  C6  <0> d          -1.239   3.142   0.030  0.00  0.00    -0.003 A 
ATOM      6  C5  <0> d          -1.224   1.754   0.017  0.00  0.00     0.066 A 
ATOM      7  C4  <0> d          -0.013   1.076   0.008  0.00  0.00     0.033 A 
ATOM      8  C3  <0> d           1.173   1.783   0.000  0.00  0.00     0.009 A 
ATOM      9  C2  <0> d           1.155   3.166   0.009  0.00  0.00    -0.061 A 
ATOM     10  C1  <0> d           2.452   3.935   0.001  0.00  0.00     0.048 C 
ATOM     11  C7  <0> d          -0.049   3.845   0.023  0.00  0.00     0.018 A 
BRANCH   6  12
ATOM     12  N4  <0> d          -2.430   1.039   0.019  0.00  0.00    -0.245 N 
ATOM     13  N5  <0> d          -3.717   1.593   0.027  0.00  0.00    -0.180 NA
ATOM     14  C23 <0> d          -4.584   0.612   0.025  0.00  0.00     0.140 A 
ATOM     15  C22 <0> d          -3.878  -0.596   0.015  0.00  0.00     0.040 A 
ATOM     16  C21 <0> d          -2.556  -0.307   0.006  0.00  0.00     0.120 A 
ENDBRANCH   6  12
ENDBRANCH   4   5
ENDBRANCH   1   4
BRANCH   1  17
ATOM     17  C9  <0> d          -4.366   4.622   1.469  0.00  0.00     0.222 C 
ATOM     18  C14 <0> d          -4.116   6.100   1.638  0.00  0.00     0.016 A 
ATOM     19  C13 <0> d          -4.808   6.895   2.493  0.00  0.00     0.048 A 
ATOM     20  C15 <0> d          -3.175   6.890   0.981  0.00  0.00     0.150 A 
ATOM     21  C12 <0> d          -5.920   6.410   3.388  0.00  0.00     0.060 C 
ATOM     22  N2  <0> d          -4.315   8.149   2.380  0.00  0.00    -0.220 N 
ATOM     23  C11 <0> d          -6.393   5.044   2.876  0.00  0.00     0.008 C 
ATOM     24  C10 <0> d          -5.182   4.129   2.670  0.00  0.00     0.038 C 
ATOM     25  N1  <0> d          -3.290   8.119   1.422  0.00  0.00    -0.178 NA
BRANCH  22  26
ATOM     26  C16 <0> d          -4.749   9.273   3.088  0.00  0.00     0.150 A 
ATOM     27  N3  <0> d          -5.984   9.313   3.561  0.00  0.00    -0.241 NA
ATOM     28  C20 <0> d          -6.432  10.352   4.239  0.00  0.00     0.119 A 
ATOM     29  C19 <0> d          -5.624  11.447   4.473  0.00  0.00     0.019 A 
ATOM     30  C18 <0> d          -4.323  11.447   3.989  0.00  0.00     0.005 A 
ATOM     31  C17 <0> d          -3.881  10.340   3.285  0.00  0.00     0.052 A 
ENDBRANCH  22  26
ENDBRANCH   1  17
TORSDOF 5
