REMARK  4 active torsions:
REMARK  status: ('A' for Active; 'I' for Inactive)
REMARK    1  A    between atoms: C9_10  and  N2_12 
REMARK    2  A    between atoms: N2_12  and  C10_13 
REMARK    3  A    between atoms: C10_13  and  C11_14 
REMARK    4  A    between atoms: N3_17  and  C15_19 
ROOT
ATOM      1  C1  <0> d          -0.019   1.526   0.010  0.00  0.00     0.010 C 
ATOM      2  C2  <0> d           0.002  -0.004   0.002  0.00  0.00    -0.016 C 
ATOM      3  C3  <0> d          -1.433  -0.533   0.013  0.00  0.00     0.004 C 
ATOM      4  C4  <0> d          -1.412  -2.063   0.002  0.00  0.00     0.003 C 
ATOM      5  C5  <0> d          -0.673  -2.572   1.241  0.00  0.00     0.032 C 
ATOM      6  C6  <0> d           0.764  -2.042   1.231  0.00  0.00     0.041 C 
ATOM      7  C7  <0> d           0.742  -0.511   1.241  0.00  0.00     0.036 C 
ATOM      8  C8  <0> d           1.468  -2.526   2.530  0.00  0.00     0.113 C 
ATOM      9  S1  <0> d           3.155  -2.797   1.838  0.00  0.00    -0.092 SA
ATOM     10  C9  <0> d           2.696  -2.941   0.119  0.00  0.00     0.136 C 
ATOM     11  N1  <0> d           1.464  -2.523   0.052  0.00  0.00    -0.361 N 
ATOM     12  H32 <0> d           1.005  -2.534  -0.802  0.00  0.00     0.162 HD
ENDROOT
BRANCH  10  13
ATOM     13  N2  <0> d           3.478  -3.396  -0.917  0.00  0.00    -0.370 N 
ATOM     14  H16 <0> d           3.119  -3.429  -1.818  0.00  0.00     0.161 HD
BRANCH  13  15
ATOM     15  C10 <0> d           4.854  -3.830  -0.660  0.00  0.00     0.128 C 
BRANCH  15  16
ATOM     16  C11 <0> d           5.498  -4.285  -1.971  0.00  0.00     0.031 C 
ATOM     17  C14 <0> d           6.973  -4.660  -1.740  0.00  0.00     0.241 C 
ATOM     18  N3  <0> d           7.110  -6.098  -2.068  0.00  0.00    -0.067 N 
ATOM     19  C13 <0> d           6.018  -6.399  -3.030  0.00  0.00     0.236 C 
ATOM     20  H33 <0> d           7.003  -6.658  -1.235  0.00  0.00     0.280 HD
ATOM     21  C12 <0> d           4.824  -5.581  -2.479  0.00  0.00     0.035 C 
BRANCH  18  22
ATOM     22  C15 <0> d           8.416  -6.354  -2.689  0.00  0.00     0.180 C 
ATOM     23  C16 <0> d           9.528  -6.005  -1.697  0.00  0.00     0.039 C 
ATOM     24  C17 <0> d           8.519  -7.831  -3.072  0.00  0.00     0.039 C 
ENDBRANCH  18  22
ENDBRANCH  15  16
ENDBRANCH  13  15
ENDBRANCH  10  13
TORSDOF 4
