REMARK  6 active torsions:
REMARK  status: ('A' for Active; 'I' for Inactive)
REMARK    1  A    between atoms: C6_6  and  N1_9 
REMARK       I    between atoms: N1_9  and  C9_10 
REMARK    2  A    between atoms: C9_10  and  C10_12 
REMARK    3  A    between atoms: C10_12  and  N2_14 
REMARK    4  A    between atoms: N3_17  and  C16_20 
REMARK    5  A    between atoms: C16_20  and  C17_21 
REMARK    6  A    between atoms: C17_21  and  N4_22 
ROOT
ATOM      1  N2  <0> d           1.115   0.470   7.279  0.00  0.00     0.105 N 
ATOM      2  C12 <0> d          -0.318   0.504   7.604  0.00  0.00     0.303 C 
ATOM      3  C13 <0> d          -0.542   1.412   8.815  0.00  0.00     0.302 C 
ATOM      4  N3  <0> d           0.241   0.910   9.952  0.00  0.00     0.093 N 
ATOM      5  C14 <0> d           1.674   0.877   9.627  0.00  0.00     0.302 C 
ATOM      6  C15 <0> d           1.898  -0.032   8.416  0.00  0.00     0.303 C 
ENDROOT
BRANCH   1   7
ATOM      7  C10 <0> d           1.363  -0.333   6.074  0.00  0.00     0.310 C 
ATOM      8  C11 <0> d           1.258  -1.819   6.421  0.00  0.00     0.053 C 
BRANCH   7   9
ATOM      9  C9  <0> d           2.743  -0.036   5.547  0.00  0.00     0.251 C 
ATOM     10  N1  <0> d           3.084  -0.415   4.300  0.00  0.00    -0.354 N 
ATOM     11  H17 <0> d           2.442  -0.879   3.741  0.00  0.00     0.162 HD
ATOM     12  O1  <0> d           3.546   0.545   6.246  0.00  0.00    -0.271 OA
BRANCH  10  13
ATOM     13  C6  <0> d           4.426  -0.126   3.788  0.00  0.00     0.088 C 
ATOM     14  C5  <0> d           4.457   1.289   3.208  0.00  0.00     0.025 C 
ATOM     15  C4  <0> d           5.858   1.591   2.673  0.00  0.00     0.002 C 
ATOM     16  C3  <0> d           6.214   0.583   1.578  0.00  0.00     0.005 C 
ATOM     17  C2  <0> d           6.184  -0.832   2.158  0.00  0.00    -0.013 C 
ATOM     18  C1  <0> d           7.198  -0.938   3.298  0.00  0.00     0.010 C 
ATOM     19  C7  <0> d           4.782  -1.134   2.693  0.00  0.00     0.008 C 
ATOM     20  C8  <0> d           4.751  -2.549   3.273  0.00  0.00     0.012 C 
ENDBRANCH  10  13
ENDBRANCH   7   9
ENDBRANCH   1   7
BRANCH   4  21
ATOM     21  C16 <0> d          -0.007   1.713  11.157  0.00  0.00     0.300 C 
BRANCH  21  22
ATOM     22  C17 <0> d           0.622   1.022  12.369  0.00  0.00     0.265 C 
BRANCH  22  23
ATOM     23  N4  <0> d           0.374   1.825  13.574  0.00  0.00    -0.069 N 
ATOM     24  C21 <0> d           1.076   1.234  14.734  0.00  0.00     0.235 C 
ATOM     25  C20 <0> d           0.176   1.450  15.964  0.00  0.00     0.029 C 
ATOM     26  C19 <0> d          -1.082   2.166  15.424  0.00  0.00     0.029 C 
ATOM     27  C18 <0> d          -1.070   1.799  13.919  0.00  0.00     0.235 C 
ATOM     28  H41 <0> d           0.681   2.775  13.428  0.00  0.00     0.279 HD
ENDBRANCH  22  23
ENDBRANCH  21  22
ENDBRANCH   4  21
TORSDOF 6
