REMARK  8 active torsions:
REMARK  status: ('A' for Active; 'I' for Inactive)
REMARK    1  A    between atoms: C6_6  and  C7_7 
REMARK    2  A    between atoms: C7_7  and  N1_8 
REMARK    3  A    between atoms: N1_8  and  C8_9 
REMARK    4  A    between atoms: C8_9  and  C9_10 
REMARK    5  A    between atoms: C9_10  and  C10_11 
REMARK    6  A    between atoms: C9_10  and  O2_20 
REMARK    7  A    between atoms: C10_11  and  O1_12 
REMARK    8  A    between atoms: O1_12  and  C11_13 
ROOT
ATOM      1  C8  <0> d          -2.989  -1.770  -1.364  0.00  0.00     0.266 C 
ENDROOT
BRANCH   1   2
ATOM      2  N1  <0> d          -1.727  -1.018  -1.372  0.00  0.00    -0.069 N 
ATOM      3  H8  <0> d          -1.864  -0.136  -1.842  0.00  0.00     0.277 HD
ATOM      4  H18 <0> d          -1.021  -1.551  -1.857  0.00  0.00     0.277 HD
BRANCH   2   5
ATOM      5  C7  <0> d          -1.293  -0.775   0.010  0.00  0.00     0.270 C 
BRANCH   5   6
ATOM      6  C6  <0> d           0.002  -0.004   0.002  0.00  0.00    -0.033 A 
ATOM      7  C1  <0> d          -0.017   1.378   0.010  0.00  0.00     0.010 A 
ATOM      8  C2  <0> d           1.171   2.086   0.002  0.00  0.00     0.019 A 
ATOM      9  C3  <0> d           2.378   1.411  -0.013  0.00  0.00     0.011 A 
ATOM     10  C4  <0> d           2.396   0.027  -0.021  0.00  0.00     0.019 A 
ATOM     11 Br1  <0> d           4.003   2.378  -0.024  0.00  0.00    -0.051 Br
ATOM     12  C5  <0> d           1.208  -0.679  -0.013  0.00  0.00     0.010 A 
ENDBRANCH   5   6
ENDBRANCH   2   5
ENDBRANCH   1   2
BRANCH   1  13
ATOM     13  C9  <0> d          -3.441  -2.023  -2.804  0.00  0.00     0.168 C 
BRANCH  13  14
ATOM     14  C10 <0> d          -4.815  -2.695  -2.796  0.00  0.00     0.209 C 
BRANCH  14  15
ATOM     15  O1  <0> d          -5.289  -2.826  -4.138  0.00  0.00    -0.349 OA
BRANCH  15  16
ATOM     16  C11 <0> d          -6.506  -3.407  -4.309  0.00  0.00     0.069 A 
ATOM     17  C16 <0> d          -7.027  -3.566  -5.585  0.00  0.00     0.040 A 
ATOM     18  C15 <0> d          -8.260  -4.163  -5.757  0.00  0.00     0.045 A 
ATOM     19  C14 <0> d          -8.983  -4.592  -4.657  0.00  0.00     0.116 A 
ATOM     20  C13 <0> d          -8.467  -4.428  -3.382  0.00  0.00     0.045 A 
ATOM     21  F1  <0> d         -10.192  -5.170  -4.826  0.00  0.00    -0.206 F 
ATOM     22  C12 <0> d          -7.231  -3.837  -3.207  0.00  0.00     0.040 A 
ENDBRANCH  15  16
ENDBRANCH  14  15
ENDBRANCH  13  14
BRANCH  13  23
ATOM     23  O2  <0> d          -2.498  -2.875  -3.456  0.00  0.00    -0.392 OA
ATOM     24  H17 <0> d          -2.391  -3.739  -3.034  0.00  0.00     0.210 HD
ENDBRANCH  13  23
ENDBRANCH   1  13
TORSDOF 8
