REMARK  7 active torsions:
REMARK  status: ('A' for Active; 'I' for Inactive)
REMARK    1  A    between atoms: C2_2  and  C3_3 
REMARK    2  A    between atoms: C3_3  and  C4_4 
REMARK    3  A    between atoms: C4_4  and  C5_5 
REMARK    4  A    between atoms: C4_4  and  O4_22 
REMARK    5  A    between atoms: C11_11  and  N1_15 
REMARK       I    between atoms: N1_15  and  C14_16 
REMARK    6  A    between atoms: C14_16  and  C15_18 
REMARK    7  A    between atoms: C15_18  and  O3_19 
ROOT
ATOM      1  C5  <0> d          -2.820  -2.586   0.139  0.00  0.00    -0.028 A 
ATOM      2  C6  <0> d          -3.615  -2.728  -0.984  0.00  0.00     0.019 A 
ATOM      3  C7  <0> d          -4.902  -3.208  -0.859  0.00  0.00    -0.027 A 
ATOM      4  C8  <0> d          -5.405  -3.549   0.393  0.00  0.00     0.083 A 
ATOM      5  C9  <0> d          -4.608  -3.402   1.514  0.00  0.00    -0.001 A 
ATOM      6  C10 <0> d          -3.314  -2.928   1.383  0.00  0.00     0.021 A 
ATOM      7  C11 <0> d          -5.117  -3.749   2.890  0.00  0.00     0.122 C 
ATOM      8  C12 <0> d          -6.353  -4.645   2.772  0.00  0.00     0.057 C 
ATOM      9  C13 <0> d          -7.310  -4.014   1.753  0.00  0.00     0.178 C 
ATOM     10  O1  <0> d          -6.676  -4.023   0.474  0.00  0.00    -0.350 OA
ATOM     11  C17 <0> d          -5.767  -3.363  -2.084  0.00  0.00     0.051 C 
ENDROOT
BRANCH   7  12
ATOM     12  N1  <0> d          -4.072  -4.458   3.632  0.00  0.00    -0.350 N 
ATOM     13  C14 <0> d          -4.066  -4.431   4.980  0.00  0.00     0.241 C 
ATOM     14  O2  <0> d          -4.926  -3.821   5.578  0.00  0.00    -0.271 OA
ATOM     15  H16 <0> d          -3.383  -4.946   3.154  0.00  0.00     0.163 HD
BRANCH  13  16
ATOM     16  C15 <0> d          -2.990  -5.160   5.743  0.00  0.00     0.269 C 
BRANCH  16  17
ATOM     17  O3  <0> d          -3.199  -4.984   7.146  0.00  0.00    -0.387 OA
ATOM     18  C16 <0> d          -2.228  -5.638   7.965  0.00  0.00     0.202 C 
ENDBRANCH  16  17
ENDBRANCH  13  16
ENDBRANCH   7  12
BRANCH   1  19
ATOM     19  C4  <0> d          -1.413  -2.063   0.004  0.00  0.00     0.151 C 
BRANCH  19  20
ATOM     20  C3  <0> d          -1.433  -0.534   0.013  0.00  0.00     0.036 C 
BRANCH  20  21
ATOM     21  C2  <0> d           0.002  -0.004   0.002  0.00  0.00    -0.002 C 
ATOM     22  C1  <0> d          -0.019   1.526   0.010  0.00  0.00     0.005 C 
ENDBRANCH  20  21
ENDBRANCH  19  20
BRANCH  19  23
ATOM     23  O4  <0> d          -0.849  -2.526  -1.224  0.00  0.00    -0.391 OA
ATOM     24  H25 <0> d          -1.334  -2.242  -2.011  0.00  0.00     0.210 HD
ENDBRANCH  19  23
ENDBRANCH   1  19
TORSDOF 7
