REMARK  3 active torsions:
REMARK  status: ('A' for Active; 'I' for Inactive)
REMARK    1  A    between atoms: N2_6  and  S1_9 
REMARK    2  A    between atoms: S1_9  and  C7_12 
REMARK    3  A    between atoms: C12_17  and  N3_18 
ROOT
ATOM      1  S1  <0> d          -1.325   0.623  -1.452  0.00  0.00     0.263 S 
ATOM      2  O1  <0> d          -2.159   0.271  -0.356  0.00  0.00    -0.200 OA
ATOM      3  O2  <0> d          -1.751   1.507  -2.479  0.00  0.00    -0.200 OA
ENDROOT
BRANCH   1   4
ATOM      4  N2  <0> d           0.053   1.277  -0.806  0.00  0.00    -0.305 N 
ATOM      5  C4  <0> d           0.553   0.823   0.461  0.00  0.00     0.137 C 
ATOM      6  C3  <0> d           0.033   1.581   1.708  0.00  0.00     0.048 C 
ATOM      7  C2  <0> d          -0.007   3.100   1.419  0.00  0.00     0.236 C 
ATOM      8  N1  <0> d           1.130   3.490   0.625  0.00  0.00    -0.073 N 
ATOM      9  C1  <0> d           1.678   4.773   1.083  0.00  0.00     0.269 C 
ATOM     10  C6  <0> d           0.648   3.587  -0.752  0.00  0.00     0.254 C 
ATOM     11  H20 <0> d           1.934   2.745   0.718  0.00  0.00     0.279 HD
ATOM     12  C5  <0> d           0.801   2.356  -1.536  0.00  0.00     0.163 C 
ENDBRANCH   1   4
BRANCH   1  13
ATOM     13  C7  <0> d          -0.866  -0.884  -2.241  0.00  0.00     0.105 A 
ATOM     14  C12 <0> d          -0.050  -0.860  -3.364  0.00  0.00     0.049 A 
ATOM     15  C11 <0> d           0.312  -2.050  -3.981  0.00  0.00     0.030 A 
ATOM     16  C10 <0> d          -0.147  -3.253  -3.482  0.00  0.00     0.002 A 
ATOM     17  C9  <0> d          -0.964  -3.273  -2.365  0.00  0.00     0.002 A 
ATOM     18  C8  <0> d          -1.323  -2.090  -1.746  0.00  0.00     0.027 A 
BRANCH  14  19
ATOM     19  N3  <0> d           0.409   0.359  -3.870  0.00  0.00    -0.398 N 
ATOM     20  H18 <0> d           1.055   0.376  -4.760  0.00  0.00     0.156 HD
ATOM     21  H19 <0> d           0.124   1.301  -3.378  0.00  0.00     0.156 HD
ENDBRANCH  14  19
ENDBRANCH   1  13
TORSDOF 3
