REMARK  2 active torsions:
REMARK  status: ('A' for Active; 'I' for Inactive)
REMARK    1  A    between atoms: C5_5  and  N1_9 
REMARK       I    between atoms: N1_9  and  C9_10 
REMARK    2  A    between atoms: C9_10  and  C10_12 
ROOT
ATOM      1  N1  <0> d           0.059  -4.170  -0.021  0.00  0.00    -0.325 N 
ATOM      2  C9  <0> d          -0.040  -4.839  -1.187  0.00  0.00     0.248 C 
ATOM      3  O1  <0> d          -0.054  -4.230  -2.236  0.00  0.00    -0.271 OA
ATOM      4  H11 <0> d           0.135  -4.658   0.814  0.00  0.00     0.169 HD
ENDROOT
BRANCH   2   5
ATOM      5  C10 <0> d          -0.134  -6.343  -1.187  0.00  0.00     0.198 A 
ATOM      6  N2  <0> d           0.185  -6.869  -2.519  0.00  0.00    -0.373 N 
ATOM      7  C17 <0> d          -0.862  -7.517  -2.973  0.00  0.00     0.039 A 
ATOM      8  H19 <0> d           1.028  -6.756  -2.985  0.00  0.00     0.161 HD
ATOM      9  C12 <0> d          -1.961  -7.475  -1.981  0.00  0.00    -0.011 A 
ATOM     10  C16 <0> d          -1.091  -8.210  -4.193  0.00  0.00     0.030 A 
ATOM     11  C11 <0> d          -1.553  -6.777  -0.897  0.00  0.00     0.021 A 
ATOM     12  C13 <0> d          -3.221  -8.151  -2.313  0.00  0.00     0.020 A 
ATOM     13  C14 <0> d          -3.333  -8.782  -3.504  0.00  0.00    -0.061 A 
ATOM     14  C15 <0> d          -2.278  -8.808  -4.426  0.00  0.00     0.009 A 
ATOM     15  C18 <0> d          -4.625  -9.477  -3.847  0.00  0.00     0.048 C 
ENDBRANCH   2   5
BRANCH   1  16
ATOM     16  C5  <0> d           0.051  -2.771  -0.014  0.00  0.00     0.040 A 
ATOM     17  C4  <0> d           0.641  -2.066  -1.055  0.00  0.00     0.030 A 
ATOM     18  C3  <0> d           0.632  -0.685  -1.046  0.00  0.00     0.009 A 
ATOM     19  C2  <0> d           0.034  -0.004  -0.002  0.00  0.00    -0.061 A 
ATOM     20  C1  <0> d           0.025   1.503   0.005  0.00  0.00     0.048 C 
ATOM     21  C7  <0> d          -0.550  -0.702   1.039  0.00  0.00     0.015 A 
ATOM     22  C6  <0> d          -0.548  -2.083   1.033  0.00  0.00    -0.035 A 
ATOM     23  C8  <0> d          -1.190  -2.843   2.165  0.00  0.00     0.050 C 
ENDBRANCH   1  16
TORSDOF 2
