REMARK  3 active torsions:
REMARK  status: ('A' for Active; 'I' for Inactive)
REMARK    1  A    between atoms: C3_4  and  C5_7 
REMARK    2  A    between atoms: C5_7  and  N3_8 
REMARK       I    between atoms: N3_8  and  C7_10 
REMARK       I    between atoms: C7_10  and  N4_12 
REMARK       I    between atoms: N4_12  and  C8_13 
REMARK    3  A    between atoms: C8_13  and  C9_15 
ROOT
ATOM      1  N3  <0> d           1.424  -3.675  -1.855  0.00  0.00    -0.334 N 
ATOM      2  C6  <0> d           2.132  -4.609  -0.976  0.00  0.00     0.154 C 
ATOM      3  C7  <0> d           2.047  -3.163  -2.935  0.00  0.00     0.324 C 
ATOM      4  O1  <0> d           1.460  -2.388  -3.665  0.00  0.00    -0.247 OA
ATOM      5  N4  <0> d           3.321  -3.509  -3.205  0.00  0.00    -0.278 N 
ATOM      6  C8  <0> d           3.944  -2.997  -4.285  0.00  0.00     0.239 C 
ATOM      7  O2  <0> d           3.358  -2.224  -5.013  0.00  0.00    -0.272 OA
ATOM      8  H11 <0> d           3.790  -4.127  -2.623  0.00  0.00     0.173 HD
ENDROOT
BRANCH   1   9
ATOM      9  C5  <0> d           0.039  -3.298  -1.561  0.00  0.00     0.168 C 
BRANCH   9  10
ATOM     10  C3  <0> d           0.027  -2.079  -0.676  0.00  0.00    -0.004 A 
ATOM     11  C2  <0> d           0.008  -0.792  -1.094  0.00  0.00     0.122 A 
ATOM     12  N1  <0> d           0.002  -0.004   0.002  0.00  0.00    -0.285 N 
ATOM     13  C1  <0> d          -0.018   1.461   0.010  0.00  0.00     0.179 C 
ATOM     14  N2  <0> d           0.025  -0.834   1.130  0.00  0.00    -0.185 NA
ATOM     15  C4  <0> d           0.034  -2.078   0.723  0.00  0.00     0.149 A 
ENDBRANCH   9  10
ENDBRANCH   1   9
BRANCH   6  16
ATOM     16  C9  <0> d           5.369  -3.384  -4.588  0.00  0.00     0.217 C 
ATOM     17 Cl1  <0> d           5.916  -2.540  -6.084  0.00  0.00    -0.121 Cl
ENDBRANCH   6  16
TORSDOF 3
