REMARK  7 active torsions:
REMARK  status: ('A' for Active; 'I' for Inactive)
REMARK    1  A    between atoms: C2_2  and  N1_3 
REMARK    2  A    between atoms: N1_3  and  C3_4 
REMARK    3  A    between atoms: N1_3  and  S1_7 
REMARK    4  A    between atoms: S1_7  and  C6_10 
REMARK    5  A    between atoms: C8_12  and  C11_16 
REMARK    6  A    between atoms: C12_17  and  C13_18 
REMARK    7  A    between atoms: C13_18  and  N3_19 
ROOT
ATOM      1  C6  <0> d           0.707   0.906  -3.904  0.00  0.00     0.098 A 
ATOM      2  C7  <0> d          -0.416   1.709  -4.006  0.00  0.00     0.048 A 
ATOM      3  C8  <0> d          -0.278   2.969  -4.599  0.00  0.00     0.036 A 
ATOM      4  C9  <0> d           0.979   3.363  -5.061  0.00  0.00     0.136 A 
ATOM      5  N2  <0> d           2.017   2.562  -4.941  0.00  0.00    -0.270 NA
ATOM      6  C10 <0> d           1.918   1.372  -4.381  0.00  0.00     0.141 A 
ENDROOT
BRANCH   1   7
ATOM      7  S1  <0> d           0.595  -0.691  -3.167  0.00  0.00     0.262 S 
ATOM      8  O1  <0> d           1.677  -1.453  -3.683  0.00  0.00    -0.200 OA
ATOM      9  O2  <0> d          -0.759  -1.104  -3.297  0.00  0.00    -0.200 OA
BRANCH   7  10
ATOM     10  N1  <0> d           0.878  -0.503  -1.547  0.00  0.00    -0.303 N 
BRANCH  10  11
ATOM     11  C2  <0> d          -0.237  -0.242  -0.633  0.00  0.00     0.131 C 
ATOM     12  C1  <0> d          -0.728  -1.563  -0.037  0.00  0.00     0.027 C 
ENDBRANCH  10  11
BRANCH  10  13
ATOM     13  C3  <0> d           2.245  -0.598  -1.026  0.00  0.00     0.088 C 
ATOM     14  C4  <0> d           2.661   0.752  -0.438  0.00  0.00     0.032 C 
ATOM     15  C5  <0> d           2.302  -1.669   0.065  0.00  0.00     0.032 C 
ENDBRANCH  10  13
ENDBRANCH   7  10
ENDBRANCH   1   7
BRANCH   3  16
ATOM     16  C11 <0> d          -1.407   3.840  -4.730  0.00  0.00    -0.064 C 
ATOM     17  C12 <0> d          -2.333   4.553  -4.838  0.00  0.00    -0.074 C 
BRANCH  17  18
ATOM     18  C13 <0> d          -3.494   5.448  -4.972  0.00  0.00     0.323 C 
BRANCH  18  19
ATOM     19  N3  <0> d          -3.077   6.697  -5.624  0.00  0.00    -0.069 N 
ATOM     20  H18 <0> d          -2.368   7.148  -5.064  0.00  0.00     0.275 HD
ATOM     21  H19 <0> d          -2.703   6.491  -6.538  0.00  0.00     0.275 HD
ATOM     22  H20 <0> d          -3.873   7.311  -5.716  0.00  0.00     0.275 HD
ENDBRANCH  18  19
ENDBRANCH  17  18
ENDBRANCH   3  16
TORSDOF 7
