REMARK  6 active torsions:
REMARK  status: ('A' for Active; 'I' for Inactive)
REMARK    1  A    between atoms: N1_2  and  C3_4 
REMARK    2  A    between atoms: C6_7  and  C9_10 
REMARK    3  A    between atoms: C9_10  and  C10_11 
REMARK    4  A    between atoms: C9_10  and  N4_23 
REMARK    5  A    between atoms: C10_11  and  N2_12 
REMARK       I    between atoms: N2_12  and  C11_13 
REMARK       I    between atoms: C11_13  and  N3_15 
REMARK    6  A    between atoms: N3_15  and  C12_16 
ROOT
ATOM      1  C9  <0> d           0.035  -2.711  -4.910  0.00  0.00     0.237 C 
ENDROOT
BRANCH   1   2
ATOM      2  C6  <0> d          -0.024  -1.872  -3.659  0.00  0.00    -0.026 A 
ATOM      3  C5  <0> d          -0.111  -2.484  -2.422  0.00  0.00     0.011 A 
ATOM      4  C4  <0> d          -0.164  -1.718  -1.274  0.00  0.00     0.030 A 
ATOM      5  C3  <0> d          -0.130  -0.333  -1.363  0.00  0.00     0.029 A 
ATOM      6  C8  <0> d          -0.048   0.279  -2.607  0.00  0.00     0.030 A 
ATOM      7  C7  <0> d           0.010  -0.493  -3.751  0.00  0.00     0.011 A 
BRANCH   5   8
ATOM      8  N1  <0> d          -0.184   0.445  -0.203  0.00  0.00    -0.390 N 
ATOM      9  C1  <0> d          -0.154   1.906  -0.299  0.00  0.00     0.149 C 
ATOM     10  C2  <0> d          -0.270  -0.202   1.108  0.00  0.00     0.149 C 
ENDBRANCH   5   8
ENDBRANCH   1   2
BRANCH   1  11
ATOM     11  C10 <0> d           1.485  -2.815  -5.387  0.00  0.00     0.162 C 
BRANCH  11  12
ATOM     12  N2  <0> d           2.286  -3.497  -4.367  0.00  0.00    -0.341 N 
ATOM     13  C11 <0> d           3.620  -3.612  -4.524  0.00  0.00     0.320 C 
ATOM     14  O1  <0> d           4.158  -3.151  -5.512  0.00  0.00    -0.247 OA
ATOM     15  N3  <0> d           4.357  -4.239  -3.586  0.00  0.00    -0.307 N 
ATOM     16  H15 <0> d           3.936  -4.558  -2.772  0.00  0.00     0.170 HD
ATOM     17  H14 <0> d           1.857  -3.865  -3.579  0.00  0.00     0.164 HD
BRANCH  15  18
ATOM     18  C12 <0> d           5.729  -4.430  -3.786  0.00  0.00     0.058 A 
ATOM     19  C17 <0> d           6.352  -5.573  -3.299  0.00  0.00     0.060 A 
ATOM     20  C16 <0> d           7.706  -5.760  -3.504  0.00  0.00     0.026 A 
ATOM     21 Cl1  <0> d           5.429  -6.766  -2.441  0.00  0.00    -0.082 Cl
ATOM     22  C15 <0> d           8.442  -4.807  -4.182  0.00  0.00     0.002 A 
ATOM     23  C14 <0> d           7.826  -3.666  -4.663  0.00  0.00     0.002 A 
ATOM     24  C13 <0> d           6.472  -3.475  -4.467  0.00  0.00     0.031 A 
ENDBRANCH  15  18
ENDBRANCH  11  12
ENDBRANCH   1  11
BRANCH   1  25
ATOM     25  N4  <0> d          -0.781  -2.084  -5.959  0.00  0.00    -0.069 N 
ATOM     26  C18 <0> d          -0.807  -2.951  -7.144  0.00  0.00     0.270 C 
ATOM     27  C19 <0> d          -2.151  -1.891  -5.463  0.00  0.00     0.270 C 
ATOM     28  H26 <0> d          -0.384  -1.190  -6.205  0.00  0.00     0.279 HD
ENDBRANCH   1  25
TORSDOF 6
