REMARK  5 active torsions:
REMARK  status: ('A' for Active; 'I' for Inactive)
REMARK    1  A    between atoms: C2_2  and  C3_3 
REMARK    2  A    between atoms: C2_2  and  N5_20 
REMARK       I    between atoms: C3_3  and  N1_5 
REMARK       I    between atoms: N5_20  and  C14_21 
REMARK    3  A    between atoms: C14_21  and  C15_23 
REMARK    4  A    between atoms: C15_23  and  O3_24 
REMARK    5  A    between atoms: O3_24  and  C16_25 
ROOT
ATOM      1  C3  <0> d          -1.391  -0.566   0.128  0.00  0.00     0.242 C 
ATOM      2  O1  <0> d          -1.698  -1.209   1.109  0.00  0.00    -0.271 OA
ATOM      3  N1  <0> d          -2.294  -0.354  -0.850  0.00  0.00    -0.350 N 
ATOM      4  C4  <0> d          -1.904   0.322  -2.095  0.00  0.00     0.129 C 
ATOM      5  C5  <0> d          -2.303  -0.563  -3.281  0.00  0.00     0.068 C 
ATOM      6  C6  <0> d          -3.792  -0.899  -3.185  0.00  0.00     0.204 C 
ATOM      7  C7  <0> d          -4.066  -1.668  -1.892  0.00  0.00     0.068 C 
ATOM      8  C8  <0> d          -3.685  -0.801  -0.694  0.00  0.00     0.129 C 
ATOM      9  C9  <0> d          -4.202  -1.732  -4.369  0.00  0.00     0.072 A 
ATOM     10  C10 <0> d          -5.334  -1.522  -5.079  0.00  0.00     0.037 A 
ATOM     11  N2  <0> d          -5.386  -2.430  -6.053  0.00  0.00    -0.354 N 
ATOM     12  C11 <0> d          -4.331  -3.200  -5.977  0.00  0.00     0.181 A 
ATOM     13  N3  <0> d          -3.569  -2.793  -4.935  0.00  0.00    -0.352 N 
ATOM     14  H2  <0> d          -2.729  -3.185  -4.647  0.00  0.00     0.166 HD
ATOM     15  C12 <0> d          -6.317  -0.424  -4.752  0.00  0.00     0.089 C 
ATOM     16  C13 <0> d          -6.017   0.069  -3.330  0.00  0.00     0.277 C 
ATOM     17  N4  <0> d          -4.579   0.345  -3.195  0.00  0.00     0.099 N 
ATOM     18  H19 <0> d          -4.393   0.897  -2.371  0.00  0.00     0.317 HD
ATOM     19  H27 <0> d          -6.094  -2.509  -6.712  0.00  0.00     0.166 HD
ENDROOT
BRANCH   1  20
ATOM     20  C2  <0> d           0.002  -0.003   0.003  0.00  0.00     0.172 C 
ATOM     21  C1  <0> d          -0.019   1.489   0.339  0.00  0.00     0.042 C 
BRANCH  20  22
ATOM     22  N5  <0> d           0.896  -0.701   0.930  0.00  0.00    -0.346 N 
ATOM     23  C14 <0> d           2.218  -0.757   0.677  0.00  0.00     0.242 C 
ATOM     24  O2  <0> d           2.668  -0.231  -0.319  0.00  0.00    -0.271 OA
ATOM     25  H20 <0> d           0.536  -1.122   1.726  0.00  0.00     0.163 HD
BRANCH  23  26
ATOM     26  C15 <0> d           3.138  -1.475   1.631  0.00  0.00     0.278 C 
BRANCH  26  27
ATOM     27  O3  <0> d           4.481  -1.396   1.148  0.00  0.00    -0.342 OA
BRANCH  27  28
ATOM     28  C16 <0> d           5.442  -1.998   1.898  0.00  0.00     0.069 A 
ATOM     29  C21 <0> d           6.767  -1.960   1.488  0.00  0.00     0.038 A 
ATOM     30  C20 <0> d           7.744  -2.566   2.254  0.00  0.00     0.026 A 
ATOM     31  C19 <0> d           7.399  -3.221   3.424  0.00  0.00     0.034 A 
ATOM     32  C18 <0> d           6.078  -3.265   3.831  0.00  0.00     0.026 A 
ATOM     33 Cl1  <0> d           8.627  -3.988   4.381  0.00  0.00    -0.084 Cl
ATOM     34  C17 <0> d           5.099  -2.654   3.071  0.00  0.00     0.038 A 
ENDBRANCH  27  28
ENDBRANCH  26  27
ENDBRANCH  23  26
ENDBRANCH  20  22
ENDBRANCH   1  20
TORSDOF 5
