REMARK  7 active torsions:
REMARK  status: ('A' for Active; 'I' for Inactive)
REMARK    1  A    between atoms: C3_3  and  C6_7 
REMARK       I    between atoms: C6_7  and  N1_9 
REMARK    2  A    between atoms: N1_9  and  C7_10 
REMARK    3  A    between atoms: C8_12  and  C10_15 
REMARK    4  A    between atoms: C10_15  and  C11_16 
REMARK       I    between atoms: C11_16  and  N3_18 
REMARK    5  A    between atoms: N3_18  and  C12_19 
REMARK    6  A    between atoms: C12_19  and  C13_20 
REMARK    7  A    between atoms: C16_24  and  N5_26 
ROOT
ATOM      1  C11 <0> d          -8.249  -3.013  -1.189  0.00  0.00     0.223 C 
ATOM      2  O3  <0> d          -7.309  -3.012  -1.954  0.00  0.00    -0.273 OA
ATOM      3  N3  <0> d          -9.263  -3.882  -1.368  0.00  0.00    -0.357 N 
ATOM      4  H10 <0> d         -10.016  -3.883  -0.756  0.00  0.00     0.162 HD
ENDROOT
BRANCH   1   5
ATOM      5  C10 <0> d          -8.284  -2.041  -0.037  0.00  0.00     0.162 C 
BRANCH   5   6
ATOM      6  C8  <0> d          -7.043  -1.188  -0.062  0.00  0.00     0.052 A 
ATOM      7  N2  <0> d          -5.837  -1.725  -0.069  0.00  0.00    -0.228 NA
ATOM      8  C7  <0> d          -4.758  -0.973  -0.090  0.00  0.00     0.173 A 
ATOM      9  S1  <0> d          -5.380   0.591  -0.097  0.00  0.00    -0.062 SA
ATOM     10  C9  <0> d          -7.114   0.166  -0.079  0.00  0.00     0.081 A 
BRANCH   8  11
ATOM     11  N1  <0> d          -3.427  -1.373  -0.100  0.00  0.00    -0.301 N 
ATOM     12  C6  <0> d          -2.446  -0.448  -0.117  0.00  0.00     0.260 C 
ATOM     13  O2  <0> d          -2.726   0.735  -0.124  0.00  0.00    -0.267 OA
ATOM     14  H6  <0> d          -3.204  -2.317  -0.095  0.00  0.00     0.171 HD
BRANCH  12  15
ATOM     15  C3  <0> d          -1.035  -0.872  -0.128  0.00  0.00     0.063 A 
ATOM     16  C2  <0> d           0.067  -0.068  -0.145  0.00  0.00     0.064 A 
ATOM     17  C1  <0> d           0.060   1.439  -0.158  0.00  0.00     0.077 C 
ATOM     18  O1  <0> d           1.155  -0.845  -0.154  0.00  0.00    -0.326 OA
ATOM     19  C5  <0> d           0.817  -2.143  -0.134  0.00  0.00     0.143 A 
ATOM     20  C4  <0> d          -0.520  -2.249  -0.120  0.00  0.00     0.044 A 
ENDBRANCH  12  15
ENDBRANCH   8  11
ENDBRANCH   5   6
ENDBRANCH   1   5
BRANCH   3  21
ATOM     21  C12 <0> d          -9.229  -4.827  -2.487  0.00  0.00     0.161 C 
BRANCH  21  22
ATOM     22  C13 <0> d         -10.471  -5.680  -2.463  0.00  0.00    -0.036 A 
ATOM     23  C17 <0> d         -11.613  -5.287  -3.138  0.00  0.00     0.057 A 
ATOM     24  C16 <0> d         -12.738  -6.104  -3.096  0.00  0.00     0.103 A 
ATOM     25  N4  <0> d         -12.723  -7.237  -2.411  0.00  0.00    -0.352 N 
ATOM     26  C15 <0> d         -11.650  -7.635  -1.754  0.00  0.00     0.090 A 
ATOM     27  H24 <0> d         -13.520  -7.790  -2.393  0.00  0.00     0.166 HD
ATOM     28  C14 <0> d         -10.497  -6.876  -1.757  0.00  0.00     0.026 A 
BRANCH  24  29
ATOM     29  N5  <0> d         -13.890  -5.724  -3.774  0.00  0.00    -0.363 N 
ATOM     30  C21 <0> d         -15.053  -6.622  -3.853  0.00  0.00     0.150 C 
ATOM     31  C20 <0> d         -15.485  -6.734  -5.315  0.00  0.00     0.187 C 
ATOM     32  O4  <0> d         -15.657  -5.422  -5.858  0.00  0.00    -0.388 OA
ATOM     33  C19 <0> d         -14.463  -4.636  -5.878  0.00  0.00     0.187 C 
ATOM     34  C18 <0> d         -13.981  -4.415  -4.439  0.00  0.00     0.150 C 
ENDBRANCH  24  29
ENDBRANCH  21  22
ENDBRANCH   3  21
TORSDOF 7
