REMARK  3 active torsions:
REMARK  status: ('A' for Active; 'I' for Inactive)
REMARK    1  A    between atoms: C2_2  and  C4_4 
REMARK    2  A    between atoms: N1_9  and  C9_12 
REMARK    3  A    between atoms: C9_12  and  C10_13 
ROOT
ATOM      1  C4  <0> d          -1.433  -0.534   0.013  0.00  0.00     0.239 C 
ATOM      2  C5  <0> d          -1.436  -2.077   0.043  0.00  0.00     0.128 A 
ATOM      3  C6  <0> d          -2.633  -2.455   0.961  0.00  0.00     0.147 A 
ATOM      4  C7  <0> d          -3.594  -3.139   0.016  0.00  0.00     0.235 A 
ATOM      5  O1  <0> d          -4.675  -3.594   0.324  0.00  0.00    -0.272 OA
ATOM      6  N1  <0> d          -3.066  -3.166  -1.213  0.00  0.00    -0.284 N 
ATOM      7  C8  <0> d          -1.842  -2.599  -1.317  0.00  0.00     0.234 A 
ATOM      8  O2  <0> d          -1.175  -2.516  -2.326  0.00  0.00    -0.272 OA
ATOM      9  C12 <0> d          -3.206  -1.110   1.423  0.00  0.00     0.279 A 
ATOM     10  N2  <0> d          -2.127  -0.124   1.263  0.00  0.00     0.114 N 
ATOM     11  C13 <0> d          -3.704  -1.179   2.838  0.00  0.00     0.019 A 
ATOM     12  C14 <0> d          -3.106  -1.486   4.040  0.00  0.00     0.036 A 
ATOM     13  C15 <0> d          -3.848  -1.463   5.209  0.00  0.00     0.034 A 
ATOM     14  C16 <0> d          -5.191  -1.131   5.165  0.00  0.00     0.026 A 
ATOM     15  C17 <0> d          -5.793  -0.823   3.963  0.00  0.00     0.032 A 
ATOM     16  C18 <0> d          -5.054  -0.845   2.783  0.00  0.00     0.044 A 
ATOM     17  N3  <0> d          -5.432  -0.577   1.465  0.00  0.00    -0.324 N 
ATOM     18  C19 <0> d          -4.404  -0.712   0.605  0.00  0.00     0.267 A 
ATOM     19  O3  <0> d          -4.438  -0.544  -0.596  0.00  0.00    -0.270 OA
ATOM     20 Cl1  <0> d          -3.096  -1.851   6.724  0.00  0.00    -0.084 Cl
ATOM     21  H16 <0> d          -1.499  -0.160   2.053  0.00  0.00     0.318 HD
ATOM     22  H20 <0> d          -6.330  -0.323   1.200  0.00  0.00     0.169 HD
ENDROOT
BRANCH   1  23
ATOM     23  C2  <0> d           0.002  -0.004   0.002  0.00  0.00     0.011 C 
ATOM     24  C1  <0> d          -0.019   1.526   0.010  0.00  0.00     0.012 C 
ATOM     25  C3  <0> d           0.742  -0.511   1.242  0.00  0.00     0.012 C 
ENDBRANCH   1  23
BRANCH   6  26
ATOM     26  C9  <0> d          -3.755  -3.767  -2.358  0.00  0.00     0.161 C 
BRANCH  26  27
ATOM     27  C10 <0> d          -4.601  -2.723  -3.040  0.00  0.00    -0.017 C 
ATOM     28  C11 <0> d          -4.448  -2.489  -4.320  0.00  0.00     0.008 C 
ENDBRANCH  26  27
ENDBRANCH   6  26
TORSDOF 3
