REMARK  5 active torsions:
REMARK  status: ('A' for Active; 'I' for Inactive)
REMARK    1  A    between atoms: C9_10  and  C13_16 
REMARK    2  A    between atoms: C13_16  and  C14_17 
REMARK       I    between atoms: C14_17  and  N1_19 
REMARK    3  A    between atoms: C19_24  and  C20_25 
REMARK    4  A    between atoms: C19_24  and  N2_29 
REMARK    5  A    between atoms: C20_25  and  O5_26 
ROOT
ATOM      1  C1  <0> d           1.929   0.334  -4.930  0.00  0.00     0.051 C 
ATOM      2  C2  <0> d           1.838  -1.023  -4.280  0.00  0.00    -0.027 A 
ATOM      3  C3  <0> d           1.949  -2.213  -4.883  0.00  0.00     0.150 A 
ATOM      4  O1  <0> d           1.812  -3.205  -3.986  0.00  0.00    -0.321 OA
ATOM      5  C4  <0> d           1.605  -2.711  -2.748  0.00  0.00     0.088 A 
ATOM      6  C5  <0> d           1.608  -1.306  -2.856  0.00  0.00     0.006 A 
ATOM      7  C6  <0> d           1.417  -0.513  -1.733  0.00  0.00     0.029 A 
ATOM      8  C7  <0> d           1.215  -1.121  -0.494  0.00  0.00     0.005 A 
ATOM      9  C8  <0> d           1.014  -0.315   0.713  0.00  0.00    -0.036 A 
ATOM     10  C9  <0> d           0.828  -0.960   1.893  0.00  0.00     0.033 A 
ATOM     11  C10 <0> d           0.838  -2.371   1.929  0.00  0.00     0.295 A 
ATOM     12  O2  <0> d           0.669  -2.937   2.994  0.00  0.00    -0.259 OA
ATOM     13  O3  <0> d           1.026  -3.105   0.822  0.00  0.00    -0.274 OA
ATOM     14  C11 <0> d           1.218  -2.527  -0.385  0.00  0.00     0.093 A 
ATOM     15  C12 <0> d           1.410  -3.309  -1.512  0.00  0.00     0.076 A 
ATOM     16  C21 <0> d           1.009   1.191   0.646  0.00  0.00     0.050 C 
ENDROOT
BRANCH  10  17
ATOM     17  C13 <0> d           0.612  -0.173   3.159  0.00  0.00     0.148 C 
BRANCH  17  18
ATOM     18  C14 <0> d          -0.862   0.074   3.352  0.00  0.00     0.224 C 
ATOM     19  O4  <0> d          -1.659  -0.348   2.540  0.00  0.00    -0.273 OA
ATOM     20  N1  <0> d          -1.296   0.764   4.425  0.00  0.00    -0.349 N 
ATOM     21  C18 <0> d          -2.730   1.016   4.632  0.00  0.00     0.153 C 
ATOM     22  C15 <0> d          -0.347   1.279   5.425  0.00  0.00     0.153 C 
ATOM     23  C17 <0> d          -2.929   2.514   4.884  0.00  0.00     0.254 C 
ATOM     24  N2  <0> d          -2.064   2.925   6.011  0.00  0.00    -0.066 N 
ATOM     25  C16 <0> d          -0.640   2.772   5.642  0.00  0.00     0.254 C 
ATOM     26  H25 <0> d          -2.265   2.326   6.821  0.00  0.00     0.280 HD
BRANCH  24  27
ATOM     27  C19 <0> d          -2.343   4.330   6.374  0.00  0.00     0.260 C 
BRANCH  27  28
ATOM     28  C20 <0> d          -3.641   4.379   7.182  0.00  0.00     0.192 C 
BRANCH  28  29
ATOM     29  O5  <0> d          -3.466   3.663   8.407  0.00  0.00    -0.399 OA
ATOM     30  H21 <0> d          -4.251   3.652   8.971  0.00  0.00     0.209 HD
ENDBRANCH  28  29
ENDBRANCH  27  28
ENDBRANCH  24  27
ENDBRANCH  17  18
ENDBRANCH  10  17
TORSDOF 5
