REMARK  5 active torsions:
REMARK  status: ('A' for Active; 'I' for Inactive)
REMARK    1  A    between atoms: C8_8  and  C9_11 
REMARK    2  A    between atoms: C9_11  and  N5_32 
REMARK    3  A    between atoms: C12_14  and  C15_17 
REMARK       I    between atoms: C15_17  and  N2_19 
REMARK    4  A    between atoms: N2_19  and  C16_20 
REMARK    5  A    between atoms: C19_23  and  N3_26 
ROOT
ATOM      1  C10 <0> d          -2.113  -3.143   0.291  0.00  0.00     0.236 C 
ATOM      2  C11 <0> d          -0.841  -2.314   0.104  0.00  0.00     0.042 C 
ATOM      3  C12 <0> d          -1.199  -0.825   0.132  0.00  0.00     0.081 C 
ATOM      4  C13 <0> d          -1.895  -0.501   1.456  0.00  0.00     0.042 C 
ATOM      5  C14 <0> d          -3.137  -1.383   1.604  0.00  0.00     0.236 C 
ATOM      6  N5  <0> d          -2.722  -2.802   1.594  0.00  0.00    -0.066 N 
ATOM      7  H26 <0> d          -2.027  -2.950   2.335  0.00  0.00     0.280 HD
ENDROOT
BRANCH   3   8
ATOM      8  C15 <0> d           0.057  -0.002   0.008  0.00  0.00     0.226 C 
ATOM      9  O1  <0> d           1.134  -0.551  -0.093  0.00  0.00    -0.273 OA
ATOM     10  N2  <0> d          -0.016   1.344   0.009  0.00  0.00    -0.327 N 
ATOM     11  H18 <0> d          -0.881   1.782   0.018  0.00  0.00     0.169 HD
BRANCH  10  12
ATOM     12  C16 <0> d           1.156   2.108  -0.008  0.00  0.00     0.034 A 
ATOM     13  C21 <0> d           2.265   1.664  -0.716  0.00  0.00     0.032 A 
ATOM     14  C20 <0> d           3.421   2.418  -0.733  0.00  0.00     0.034 A 
ATOM     15  C19 <0> d           3.475   3.622  -0.043  0.00  0.00     0.058 A 
ATOM     16  C18 <0> d           2.366   4.066   0.665  0.00  0.00     0.034 A 
ATOM     17  C17 <0> d           1.209   3.315   0.679  0.00  0.00     0.032 A 
BRANCH  15  18
ATOM     18  N3  <0> d           4.649   4.388  -0.061  0.00  0.00    -0.245 N 
ATOM     19  N4  <0> d           5.836   4.063  -0.731  0.00  0.00    -0.180 NA
ATOM     20  C24 <0> d           6.703   5.019  -0.514  0.00  0.00     0.140 A 
ATOM     21  C23 <0> d           6.098   5.983   0.300  0.00  0.00     0.040 A 
ATOM     22  C22 <0> d           4.834   5.575   0.560  0.00  0.00     0.120 A 
ENDBRANCH  15  18
ENDBRANCH  10  12
ENDBRANCH   3   8
BRANCH   6  23
ATOM     23  C9  <0> d          -3.889  -3.671   1.849  0.00  0.00     0.291 C 
BRANCH  23  24
ATOM     24  C8  <0> d          -4.353  -3.456   3.267  0.00  0.00     0.036 A 
ATOM     25  C7  <0> d          -3.983  -4.200   4.321  0.00  0.00     0.040 A 
ATOM     26  C5  <0> d          -4.661  -3.646   5.495  0.00  0.00    -0.008 A 
ATOM     27  C4  <0> d          -5.429  -2.565   5.027  0.00  0.00     0.042 A 
ATOM     28  C6  <0> d          -4.677  -3.975   6.852  0.00  0.00     0.014 A 
ATOM     29  C3  <0> d          -6.199  -1.835   5.927  0.00  0.00     0.030 A 
ATOM     30  N1  <0> d          -5.220  -2.476   3.669  0.00  0.00    -0.357 N 
ATOM     31  C2  <0> d          -6.199  -2.177   7.261  0.00  0.00     0.002 A 
ATOM     32  C1  <0> d          -5.440  -3.245   7.719  0.00  0.00     0.001 A 
ATOM     33  H1  <0> d          -5.627  -1.818   3.084  0.00  0.00     0.166 HD
ENDBRANCH  23  24
ENDBRANCH   6  23
TORSDOF 5
