REMARK  4 active torsions:
REMARK  status: ('A' for Active; 'I' for Inactive)
REMARK    1  A    between atoms: N1_5  and  C5_7 
REMARK    2  A    between atoms: C8_10  and  C11_13 
REMARK       I    between atoms: C11_13  and  N3_15 
REMARK    3  A    between atoms: N3_15  and  C12_16 
REMARK    4  A    between atoms: C12_16  and  C14_18 
ROOT
ATOM      1  C5  <0> d           0.155  -3.453   1.093  0.00  0.00     0.058 A 
ATOM      2  C6  <0> d          -0.460  -4.557   0.515  0.00  0.00     0.032 A 
ATOM      3  C7  <0> d          -0.388  -5.788   1.129  0.00  0.00     0.019 A 
ATOM      4  C8  <0> d           0.305  -5.926   2.334  0.00  0.00     0.032 A 
ATOM      5  C9  <0> d           0.923  -4.814   2.912  0.00  0.00     0.019 A 
ATOM      6  C10 <0> d           0.851  -3.588   2.290  0.00  0.00     0.032 A 
ENDROOT
BRANCH   4   7
ATOM      7  C11 <0> d           0.384  -7.244   2.996  0.00  0.00     0.252 C 
ATOM      8  O1  <0> d          -0.155  -8.210   2.492  0.00  0.00    -0.268 OA
ATOM      9  N3  <0> d           1.053  -7.375   4.158  0.00  0.00    -0.346 N 
ATOM     10  H9  <0> d           1.483  -6.604   4.561  0.00  0.00     0.163 HD
BRANCH   9  11
ATOM     11  C12 <0> d           1.131  -8.683   4.815  0.00  0.00     0.152 C 
ATOM     12  C13 <0> d           2.295  -9.481   4.224  0.00  0.00     0.040 C 
BRANCH  11  13
ATOM     13  C14 <0> d           1.353  -8.490   6.293  0.00  0.00     0.151 A 
ATOM     14  N6  <0> d           0.712  -9.142   7.293  0.00  0.00    -0.330 N 
ATOM     15  C15 <0> d           1.228  -8.656   8.448  0.00  0.00     0.235 A 
ATOM     16  C16 <0> d          -0.326 -10.166   7.154  0.00  0.00     0.158 C 
ATOM     17  N5  <0> d           2.121  -7.759   8.127  0.00  0.00    -0.143 NA
ATOM     18  N4  <0> d           2.195  -7.661   6.847  0.00  0.00    -0.133 NA
ENDBRANCH  11  13
ENDBRANCH   9  11
ENDBRANCH   4   7
BRANCH   1  19
ATOM     19  N1  <0> d           0.080  -2.205   0.467  0.00  0.00    -0.238 N 
ATOM     20  C4  <0> d          -1.022  -1.667  -0.116  0.00  0.00     0.035 A 
ATOM     21  C3  <0> d          -0.677  -0.453  -0.602  0.00  0.00     0.055 A 
ATOM     22  C17 <0> d          -2.384  -2.308  -0.205  0.00  0.00     0.070 C 
ATOM     23  C2  <0> d           0.674  -0.239  -0.309  0.00  0.00     0.053 A 
ATOM     24  C1  <0> d           1.471   0.989  -0.669  0.00  0.00     0.072 C 
ATOM     25  N2  <0> d           1.130  -1.288   0.325  0.00  0.00    -0.172 NA
ENDBRANCH   1  19
TORSDOF 4
