REMARK  5 active torsions:
REMARK  status: ('A' for Active; 'I' for Inactive)
REMARK    1  A    between atoms: C3_3  and  C16_24 
REMARK    2  A    between atoms: C5_5  and  N1_7 
REMARK       I    between atoms: N1_7  and  C7_8 
REMARK    3  A    between atoms: C7_8  and  C8_10 
REMARK    4  A    between atoms: N3_12  and  C12_17 
REMARK    5  A    between atoms: C17_25  and  C18_26 
ROOT
ATOM      1  N1  <0> d           1.225  -2.087  -0.021  0.00  0.00    -0.322 N 
ATOM      2  C7  <0> d           0.069  -2.772   0.088  0.00  0.00     0.272 C 
ATOM      3  O1  <0> d          -0.992  -2.176   0.102  0.00  0.00    -0.266 OA
ATOM      4  H6  <0> d           2.065  -2.564  -0.110  0.00  0.00     0.169 HD
ENDROOT
BRANCH   2   5
ATOM      5  C8  <0> d           0.090  -4.235   0.190  0.00  0.00     0.123 C 
ATOM      6  C11 <0> d          -1.207  -4.989   0.311  0.00  0.00     0.076 C 
ATOM      7  C10 <0> d          -1.086  -6.332  -0.419  0.00  0.00     0.111 C 
ATOM      8  C9  <0> d           0.200  -7.003  -0.008  0.00  0.00     0.240 C 
ATOM      9  N3  <0> d           1.285  -6.255   0.273  0.00  0.00    -0.232 N 
ATOM     10  O2  <0> d           0.258  -8.212   0.069  0.00  0.00    -0.272 OA
ATOM     11  N2  <0> d           1.226  -4.860   0.179  0.00  0.00    -0.168 NA
BRANCH   9  12
ATOM     12  C12 <0> d           2.533  -6.905   0.678  0.00  0.00     0.128 C 
ATOM     13  C15 <0> d           3.662  -6.551  -0.332  0.00  0.00     0.167 C 
ATOM     14  S1  <0> d           5.153  -6.932   0.681  0.00  0.00     0.146 S 
ATOM     15  C14 <0> d           4.415  -6.824   2.362  0.00  0.00     0.142 C 
ATOM     16  O3  <0> d           6.099  -5.884   0.523  0.00  0.00    -0.228 OA
ATOM     17  O4  <0> d           5.549  -8.275   0.435  0.00  0.00    -0.228 OA
ATOM     18  C13 <0> d           2.957  -6.397   2.066  0.00  0.00     0.043 C 
ENDBRANCH   9  12
ENDBRANCH   2   5
BRANCH   1  19
ATOM     19  C5  <0> d           1.213  -0.689  -0.007  0.00  0.00     0.036 A 
ATOM     20  C4  <0> d           0.276  -0.011   0.756  0.00  0.00     0.050 A 
ATOM     21  C3  <0> d           0.269   1.386   0.767  0.00  0.00     0.020 A 
ATOM     22  C2  <0> d           1.208   2.090   0.007  0.00  0.00     0.021 A 
ATOM     23  C1  <0> d           2.136   1.404  -0.750  0.00  0.00     0.004 A 
ATOM     24  C6  <0> d           2.142   0.022  -0.760  0.00  0.00     0.029 A 
BRANCH  21  25
ATOM     25  C16 <0> d          -0.695   2.094   1.554  0.00  0.00    -0.061 C 
ATOM     26  C17 <0> d          -1.485   2.675   2.199  0.00  0.00    -0.054 C 
BRANCH  26  27
ATOM     27  C18 <0> d          -2.450   3.383   2.986  0.00  0.00     0.058 A 
ATOM     28  S2  <0> d          -3.742   2.735   4.034  0.00  0.00    -0.093 SA
ATOM     29  C21 <0> d          -4.418   4.289   4.594  0.00  0.00     0.051 A 
ATOM     30  C20 <0> d          -3.635   5.194   3.951  0.00  0.00     0.009 A 
ATOM     31  C19 <0> d          -2.627   4.749   3.128  0.00  0.00     0.028 A 
ENDBRANCH  26  27
ENDBRANCH  21  25
ENDBRANCH   1  19
TORSDOF 5
