REMARK  6 active torsions:
REMARK  status: ('A' for Active; 'I' for Inactive)
REMARK    1  A    between atoms: C2_2  and  O1_3 
REMARK    2  A    between atoms: O1_3  and  C3_4 
REMARK    3  A    between atoms: N1_7  and  C8_10 
REMARK    4  A    between atoms: C8_10  and  C9_11 
REMARK    5  A    between atoms: C11_13  and  C15_18 
REMARK    6  A    between atoms: C14_16  and  N2_17 
ROOT
ATOM      1  C9  <0> d          -4.484  -6.098  -0.209  0.00  0.00     0.042 C 
ATOM      2  C10 <0> d          -5.597  -5.489  -1.063  0.00  0.00     0.013 C 
ATOM      3  C11 <0> d          -5.515  -6.050  -2.484  0.00  0.00    -0.007 C 
ATOM      4  C12 <0> d          -5.678  -7.570  -2.443  0.00  0.00     0.007 C 
ATOM      5  C13 <0> d          -4.564  -8.180  -1.589  0.00  0.00     0.033 C 
ATOM      6  C14 <0> d          -4.647  -7.619  -0.168  0.00  0.00     0.189 C 
ENDROOT
BRANCH   1   7
ATOM      7  C8  <0> d          -3.124  -5.748  -0.818  0.00  0.00     0.241 C 
BRANCH   7   8
ATOM      8  N1  <0> d          -2.917  -4.295  -0.749  0.00  0.00    -0.070 N 
ATOM      9  C5  <0> d          -1.669  -3.947  -1.439  0.00  0.00     0.237 C 
ATOM     10  C4  <0> d          -1.489  -2.427  -1.440  0.00  0.00     0.059 C 
ATOM     11  C3  <0> d          -1.432  -1.925   0.005  0.00  0.00     0.124 C 
ATOM     12  C7  <0> d          -2.706  -2.358   0.737  0.00  0.00     0.059 C 
ATOM     13  C6  <0> d          -2.841  -3.880   0.657  0.00  0.00     0.237 C 
ATOM     14  H38 <0> d          -3.690  -3.825  -1.196  0.00  0.00     0.279 HD
BRANCH  11  15
ATOM     15  O1  <0> d          -1.339  -0.499   0.012  0.00  0.00    -0.386 OA
BRANCH  15  16
ATOM     16  C2  <0> d           0.002  -0.004   0.002  0.00  0.00     0.163 C 
ATOM     17  C1  <0> d          -0.019   1.526   0.010  0.00  0.00     0.033 C 
ENDBRANCH  15  16
ENDBRANCH  11  15
ENDBRANCH   7   8
ENDBRANCH   1   7
BRANCH   6  18
ATOM     18  N2  <0> d          -5.951  -7.956   0.417  0.00  0.00    -0.075 N 
ATOM     19  H26 <0> d          -6.686  -7.554  -0.146  0.00  0.00     0.274 HD
ATOM     20  H27 <0> d          -6.059  -8.959   0.444  0.00  0.00     0.274 HD
ATOM     21  H37 <0> d          -6.005  -7.586   1.354  0.00  0.00     0.274 HD
ENDBRANCH   6  18
BRANCH   3  22
ATOM     22  C15 <0> d          -6.629  -5.440  -3.338  0.00  0.00    -0.048 C 
ATOM     23  C16 <0> d          -6.466  -3.920  -3.379  0.00  0.00     0.015 C 
ATOM     24  C17 <0> d          -6.547  -6.001  -4.759  0.00  0.00     0.015 C 
ATOM     25  C18 <0> d          -7.988  -5.791  -2.729  0.00  0.00     0.015 C 
ENDBRANCH   3  22
TORSDOF 6
