REMARK  4 active torsions:
REMARK  status: ('A' for Active; 'I' for Inactive)
REMARK    1  A    between atoms: C2_2  and  C3_3 
REMARK    2  A    between atoms: C2_2  and  N1_26 
REMARK    3  A    between atoms: C18_18  and  O1_20 
REMARK    4  A    between atoms: O1_20  and  C20_21 
ROOT
ATOM      1  C3  <0> d           0.555  -0.476   1.321  0.00  0.00     0.024 C 
ATOM      2  C4  <0> d           1.969   0.163   1.273  0.00  0.00     0.008 C 
ATOM      3  C5  <0> d           2.970  -0.960   1.675  0.00  0.00     0.006 C 
ATOM      4  C6  <0> d           2.049  -2.004   2.316  0.00  0.00    -0.002 C 
ATOM      5  C7  <0> d           0.847  -1.991   1.351  0.00  0.00    -0.035 C 
ATOM      6  C8  <0> d          -0.259  -2.860   1.895  0.00  0.00     0.010 C 
ATOM      7  C9  <0> d           0.286  -4.277   2.153  0.00  0.00     0.006 C 
ATOM      8  C10 <0> d           1.438  -4.236   3.147  0.00  0.00    -0.002 C 
ATOM      9  C11 <0> d           2.588  -3.371   2.601  0.00  0.00    -0.005 C 
ATOM     10  C12 <0> d           3.254  -4.062   1.421  0.00  0.00     0.006 C 
ATOM     11  C13 <0> d           3.840  -5.398   1.911  0.00  0.00     0.006 C 
ATOM     12  C14 <0> d           2.677  -6.284   2.368  0.00  0.00    -0.004 C 
ATOM     13  C15 <0> d           1.943  -5.623   3.530  0.00  0.00    -0.036 C 
ATOM     14  C16 <0> d           2.906  -5.499   4.717  0.00  0.00     0.012 C 
ATOM     15  C17 <0> d           3.397  -6.875   5.152  0.00  0.00     0.033 C 
ATOM     16  C18 <0> d           4.070  -7.619   4.006  0.00  0.00     0.132 C 
ATOM     17  C19 <0> d           3.200  -7.661   2.758  0.00  0.00     0.038 C 
ATOM     18  C22 <0> d           0.756  -6.496   3.954  0.00  0.00     0.016 C 
ATOM     19  C23 <0> d           1.200  -2.395  -0.078  0.00  0.00     0.016 C 
ENDROOT
BRANCH   1  20
ATOM     20  C2  <0> d          -0.234  -0.126   0.063  0.00  0.00     0.184 C 
ATOM     21  C1  <0> d          -1.605  -0.803   0.116  0.00  0.00     0.040 C 
BRANCH  20  22
ATOM     22  N1  <0> d          -0.410   1.331  -0.015  0.00  0.00    -0.075 N 
ATOM     23  H38 <0> d           0.575   1.818  -0.053  0.00  0.00     0.274 HD
ATOM     24  H39 <0> d          -0.959   1.682   0.872  0.00  0.00     0.274 HD
ATOM     25  H40 <0> d          -0.980   1.583  -0.922  0.00  0.00     0.274 HD
ENDBRANCH  20  22
ENDBRANCH   1  20
BRANCH  16  26
ATOM     26  O1  <0> d           5.359  -7.023   3.709  0.00  0.00    -0.316 OA
BRANCH  26  27
ATOM     27  C20 <0> d           6.422  -7.510   4.369  0.00  0.00     0.255 C 
ATOM     28  O2  <0> d           6.279  -8.405   5.168  0.00  0.00    -0.266 OA
ATOM     29  C21 <0> d           7.793  -6.941   4.113  0.00  0.00     0.126 C 
ENDBRANCH  26  27
ENDBRANCH  16  26
TORSDOF 4
