REMARK  7 active torsions:
REMARK  status: ('A' for Active; 'I' for Inactive)
REMARK    1  A    between atoms: C2_2  and  C3_3 
REMARK    2  A    between atoms: C2_2  and  O3_17 
REMARK    3  A    between atoms: C3_3  and  N1_4 
REMARK    4  A    between atoms: N1_4  and  S1_6 
REMARK    5  A    between atoms: S1_6  and  C5_9 
REMARK    6  A    between atoms: C8_12  and  C11_15 
REMARK    7  A    between atoms: C11_15  and  N2_16 
ROOT
ATOM      1  C5  <0> d           0.094  -3.055  -2.040  0.00  0.00     0.079 A 
ATOM      2  C6  <0> d           0.666  -2.106  -2.866  0.00  0.00     0.026 A 
ATOM      3  C7  <0> d           1.949  -2.290  -3.347  0.00  0.00     0.010 A 
ATOM      4  C8  <0> d           2.660  -3.424  -3.002  0.00  0.00    -0.033 A 
ATOM      5  C9  <0> d           2.089  -4.373  -2.175  0.00  0.00     0.010 A 
ATOM      6  C10 <0> d           0.808  -4.187  -1.691  0.00  0.00     0.026 A 
ENDROOT
BRANCH   1   7
ATOM      7  S1  <0> d          -1.541  -2.820  -1.427  0.00  0.00     0.260 S 
ATOM      8  O1  <0> d          -2.046  -4.111  -1.111  0.00  0.00    -0.200 OA
ATOM      9  O2  <0> d          -2.195  -1.949  -2.339  0.00  0.00    -0.200 OA
BRANCH   7  10
ATOM     10  N1  <0> d          -1.413  -1.998   0.005  0.00  0.00    -0.309 N 
ATOM     11  C4  <0> d          -1.281  -2.736   1.264  0.00  0.00     0.163 C 
BRANCH  10  12
ATOM     12  C3  <0> d          -1.433  -0.534   0.013  0.00  0.00     0.166 C 
BRANCH  12  13
ATOM     13  C2  <0> d           0.002  -0.004   0.002  0.00  0.00     0.132 C 
ATOM     14  C1  <0> d          -0.019   1.526   0.010  0.00  0.00     0.041 C 
BRANCH  13  15
ATOM     15  O3  <0> d           0.693  -0.477   1.160  0.00  0.00    -0.394 OA
ATOM     16  H18 <0> d           1.611  -0.180   1.219  0.00  0.00     0.210 HD
ENDBRANCH  13  15
ENDBRANCH  12  13
ENDBRANCH  10  12
ENDBRANCH   7  10
ENDBRANCH   1   7
BRANCH   4  17
ATOM     17  C11 <0> d           4.058  -3.625  -3.527  0.00  0.00     0.268 C 
BRANCH  17  18
ATOM     18  N2  <0> d           5.023  -3.033  -2.591  0.00  0.00    -0.075 N 
ATOM     19  H16 <0> d           4.838  -2.046  -2.497  0.00  0.00     0.274 HD
ATOM     20  H17 <0> d           4.934  -3.479  -1.690  0.00  0.00     0.274 HD
ATOM     21  H19 <0> d           5.959  -3.168  -2.942  0.00  0.00     0.274 HD
ENDBRANCH  17  18
ENDBRANCH   4  17
TORSDOF 7
