REMARK  6 active torsions:
REMARK  status: ('A' for Active; 'I' for Inactive)
REMARK    1  A    between atoms: C4_4  and  C7_7 
REMARK    2  A    between atoms: C8_10  and  S1_18 
REMARK    3  A    between atoms: N3_11  and  C9_12 
REMARK    4  A    between atoms: C9_12  and  C10_13 
REMARK    5  A    between atoms: S1_18  and  C14_19 
REMARK    6  A    between atoms: C14_19  and  C15_20 
ROOT
ATOM      1  C7  <0> d           3.711  -0.707  -0.038  0.00  0.00     0.347 C 
ATOM      2  N1  <0> d           4.765   0.122   0.590  0.00  0.00    -0.223 NA
ATOM      3  N2  <0> d           4.819  -0.344   1.984  0.00  0.00    -0.218 NA
ATOM      4  C8  <0> d           4.609  -1.810   1.856  0.00  0.00     0.375 C 
ATOM      5  N3  <0> d           3.611  -1.942   0.768  0.00  0.00     0.147 N 
ATOM      6  H8  <0> d           4.528   1.102   0.545  0.00  0.00     0.143 HD
ATOM      7  H9  <0> d           4.087   0.079   2.535  0.00  0.00     0.143 HD
ENDROOT
BRANCH   4   8
ATOM      8  S1  <0> d           3.960  -2.496   3.404  0.00  0.00    -0.114 SA
BRANCH   8   9
ATOM      9  C14 <0> d           2.417  -1.583   3.676  0.00  0.00     0.124 C 
BRANCH   9  10
ATOM     10  C15 <0> d           1.756  -2.070   4.967  0.00  0.00     0.191 A 
ATOM     11  N5  <0> d           2.655  -1.848   6.107  0.00  0.00    -0.366 N 
ATOM     12  C21 <0> d           2.912  -3.010   6.634  0.00  0.00     0.056 A 
ATOM     13  H23 <0> d           2.995  -0.992   6.412  0.00  0.00     0.162 HD
ATOM     14  C16 <0> d           2.196  -4.067   5.870  0.00  0.00     0.056 A 
ATOM     15  C20 <0> d           3.733  -3.429   7.778  0.00  0.00     0.031 A 
ATOM     16  N4  <0> d           1.524  -3.518   4.900  0.00  0.00    -0.366 N 
ATOM     17  C17 <0> d           2.357  -5.460   6.309  0.00  0.00     0.031 A 
ATOM     18  H22 <0> d           0.970  -3.981   4.251  0.00  0.00     0.162 HD
ATOM     19  C18 <0> d           3.137  -5.735   7.374  0.00  0.00     0.002 A 
ATOM     20  C19 <0> d           3.813  -4.736   8.097  0.00  0.00     0.002 A 
ENDBRANCH   9  10
ENDBRANCH   8   9
ENDBRANCH   4   8
BRANCH   5  21
ATOM     21  C9  <0> d           3.881  -3.130  -0.054  0.00  0.00     0.342 C 
BRANCH  21  22
ATOM     22  C10 <0> d           3.533  -4.370   0.728  0.00  0.00     0.081 A 
ATOM     23  O1  <0> d           4.369  -5.056   1.524  0.00  0.00    -0.325 OA
ATOM     24  C13 <0> d           3.719  -6.102   2.061  0.00  0.00     0.142 A 
ATOM     25  C12 <0> d           2.455  -6.098   1.601  0.00  0.00     0.027 A 
ATOM     26  C11 <0> d           2.335  -4.982   0.741  0.00  0.00     0.036 A 
ENDBRANCH  21  22
ENDBRANCH   5  21
BRANCH   1  27
ATOM     27  C4  <0> d           2.396   0.029  -0.020  0.00  0.00    -0.010 A 
ATOM     28  C3  <0> d           1.916   0.557   1.163  0.00  0.00     0.011 A 
ATOM     29  C2  <0> d           0.710   1.233   1.179  0.00  0.00     0.001 A 
ATOM     30  C1  <0> d          -0.016   1.380   0.011  0.00  0.00     0.000 A 
ATOM     31  C6  <0> d           0.465   0.852  -1.172  0.00  0.00     0.001 A 
ATOM     32  C5  <0> d           1.670   0.175  -1.188  0.00  0.00     0.011 A 
ENDBRANCH   1  27
TORSDOF 6
