REMARK  6 active torsions:
REMARK  status: ('A' for Active; 'I' for Inactive)
REMARK    1  A    between atoms: C6_7  and  C8_11 
REMARK    2  A    between atoms: C8_11  and  S1_12 
REMARK    3  A    between atoms: S1_12  and  C9_13 
REMARK    4  A    between atoms: C9_13  and  C11_15 
REMARK       I    between atoms: C11_15  and  N3_17 
REMARK    5  A    between atoms: N3_17  and  N4_18 
REMARK       I    between atoms: N4_18  and  C12_19 
REMARK    6  A    between atoms: C12_19  and  C13_21 
ROOT
ATOM      1  C11 <0> d           8.437  -5.518  -1.709  0.00  0.00     0.249 C 
ATOM      2  O2  <0> d           7.998  -5.572  -2.838  0.00  0.00    -0.271 OA
ATOM      3  N3  <0> d           9.717  -5.865  -1.466  0.00  0.00    -0.266 N 
ATOM      4  H11 <0> d          10.068  -5.822  -0.563  0.00  0.00     0.190 HD
ENDROOT
BRANCH   1   5
ATOM      5  C9  <0> d           7.552  -5.063  -0.578  0.00  0.00     0.137 C 
ATOM      6  C10 <0> d           7.036  -6.283   0.188  0.00  0.00     0.031 C 
BRANCH   5   7
ATOM      7  S1  <0> d           6.148  -4.130  -1.246  0.00  0.00    -0.147 SA
BRANCH   7   8
ATOM      8  C8  <0> d           5.277  -3.531   0.228  0.00  0.00     0.155 C 
BRANCH   8   9
ATOM      9  C6  <0> d           4.072  -2.729  -0.191  0.00  0.00     0.140 A 
ATOM     10  N1  <0> d           3.306  -2.207   0.754  0.00  0.00    -0.225 NA
ATOM     11  C5  <0> d           2.243  -1.498   0.457  0.00  0.00     0.112 A 
ATOM     12  C4  <0> d           1.868  -1.261  -0.953  0.00  0.00     0.073 A 
ATOM     13  S2  <0> d           0.997  -0.657   1.404  0.00  0.00    -0.100 SA
ATOM     14  C3  <0> d           0.769  -0.528  -1.190  0.00  0.00    -0.051 A 
ATOM     15  C7  <0> d           2.796  -1.891  -1.945  0.00  0.00     0.281 A 
ATOM     16  C2  <0> d           0.002  -0.004   0.002  0.00  0.00     0.079 A 
ATOM     17  C23 <0> d           0.315  -0.239  -2.598  0.00  0.00     0.046 C 
ATOM     18  C1  <0> d          -0.019   1.526   0.010  0.00  0.00     0.026 C 
ATOM     19  N2  <0> d           3.837  -2.585  -1.473  0.00  0.00    -0.193 NA
ATOM     20  O1  <0> d           2.607  -1.777  -3.144  0.00  0.00    -0.265 OA
ENDBRANCH   8   9
ENDBRANCH   7   8
ENDBRANCH   5   7
ENDBRANCH   1   5
BRANCH   3  21
ATOM     21  N4  <0> d          10.539  -6.288  -2.518  0.00  0.00    -0.267 N 
ATOM     22  C12 <0> d          11.819  -6.636  -2.276  0.00  0.00     0.244 C 
ATOM     23  O3  <0> d          12.258  -6.582  -1.146  0.00  0.00    -0.271 OA
ATOM     24  H12 <0> d          10.188  -6.332  -3.422  0.00  0.00     0.190 HD
BRANCH  22  25
ATOM     25  C13 <0> d          12.704  -7.091  -3.407  0.00  0.00     0.043 C 
ATOM     26  C18 <0> d          14.096  -7.422  -2.865  0.00  0.00     0.024 C 
ATOM     27  C17 <0> d          14.994  -7.884  -4.013  0.00  0.00    -0.013 C 
ATOM     28  C16 <0> d          14.390  -9.130  -4.664  0.00  0.00     0.009 C 
ATOM     29  C19 <0> d          15.105  -6.769  -5.055  0.00  0.00     0.009 C 
ATOM     30  C15 <0> d          12.998  -8.799  -5.207  0.00  0.00    -0.013 C 
ATOM     31  C14 <0> d          12.100  -8.337  -4.058  0.00  0.00     0.024 C 
ATOM     32  C21 <0> d          13.110  -7.683  -6.248  0.00  0.00     0.009 C 
ATOM     33  C20 <0> d          13.713  -6.437  -5.597  0.00  0.00    -0.013 C 
ATOM     34  C22 <0> d          12.815  -5.975  -4.448  0.00  0.00     0.024 C 
ENDBRANCH  22  25
ENDBRANCH   3  21
TORSDOF 6
