REMARK  3 active torsions:
REMARK  status: ('A' for Active; 'I' for Inactive)
REMARK    1  A    between atoms: C3_3  and  C15_19 
REMARK    2  A    between atoms: C7_7  and  N2_12 
REMARK    3  A    between atoms: C15_19  and  N3_20 
ROOT
ATOM      1  C1  <0> d           2.353   5.304  -2.154  0.00  0.00     0.069 C 
ATOM      2  C2  <0> d           2.910   5.342  -0.755  0.00  0.00     0.016 A 
ATOM      3  C3  <0> d           2.214   4.708   0.268  0.00  0.00     0.027 A 
ATOM      4  C4  <0> d           2.711   4.739   1.557  0.00  0.00     0.129 A 
ATOM      5  C5  <0> d           3.932   5.417   1.780  0.00  0.00     0.029 A 
ATOM      6  C6  <0> d           4.502   5.487   3.059  0.00  0.00     0.040 A 
ATOM      7  C7  <0> d           5.691   6.161   3.236  0.00  0.00     0.011 A 
ATOM      8  C8  <0> d           6.329   6.773   2.151  0.00  0.00     0.026 A 
ATOM      9  C9  <0> d           5.793   6.718   0.902  0.00  0.00     0.032 A 
ATOM     10  C10 <0> d           4.581   6.038   0.686  0.00  0.00     0.045 A 
ATOM     11  N1  <0> d           4.039   5.973  -0.535  0.00  0.00    -0.359 N 
ATOM     12  O2  <0> d           2.051   4.134   2.576  0.00  0.00    -0.190 OA
ATOM     13  H29 <0> d           4.565   6.464  -1.367  0.00  0.00     0.166 HD
ENDROOT
BRANCH   3  14
ATOM     14  C15 <0> d           0.919   3.995  -0.027  0.00  0.00     0.278 C 
BRANCH  14  15
ATOM     15  N3  <0> d          -0.183   4.967  -0.041  0.00  0.00    -0.063 N 
ATOM     16  C20 <0> d          -1.437   4.334  -0.468  0.00  0.00     0.184 C 
ATOM     17  C19 <0> d          -2.526   5.400  -0.610  0.00  0.00     0.033 C 
ATOM     18  C21 <0> d          -1.225   3.639  -1.814  0.00  0.00     0.040 C 
ATOM     19  C18 <0> d          -2.720   6.106   0.734  0.00  0.00     0.004 C 
ATOM     20  C17 <0> d          -1.388   6.716   1.179  0.00  0.00     0.028 C 
ATOM     21  C16 <0> d          -0.332   5.611   1.270  0.00  0.00     0.235 C 
ATOM     22  H30 <0> d           0.064   5.750  -0.773  0.00  0.00     0.280 HD
ENDBRANCH  14  15
ENDBRANCH   3  14
BRANCH   7  23
ATOM     23  N2  <0> d           6.265   6.234   4.508  0.00  0.00    -0.279 NA
ATOM     24  C14 <0> d           7.523   6.994   4.476  0.00  0.00     0.122 C 
ATOM     25  C13 <0> d           8.146   6.998   5.874  0.00  0.00     0.182 C 
ATOM     26  O1  <0> d           7.208   7.542   6.807  0.00  0.00    -0.389 OA
ATOM     27  C12 <0> d           5.972   6.826   6.864  0.00  0.00     0.182 C 
ATOM     28  C11 <0> d           5.327   6.820   5.476  0.00  0.00     0.122 C 
ENDBRANCH   7  23
TORSDOF 3
