REMARK  4 active torsions:
REMARK  status: ('A' for Active; 'I' for Inactive)
REMARK    1  A    between atoms: C3_3  and  C7_9 
REMARK       I    between atoms: C7_9  and  N3_11 
REMARK    2  A    between atoms: N3_11  and  C9_13 
REMARK    3  A    between atoms: C9_13  and  C10_14 
REMARK       I    between atoms: C10_14  and  N4_16 
REMARK    4  A    between atoms: N4_16  and  C11_17 
ROOT
ATOM      1  C9  <0> d          -0.217   0.911  -5.283  0.00  0.00     0.228 C 
ENDROOT
BRANCH   1   2
ATOM      2  N3  <0> d           1.060   1.140  -4.600  0.00  0.00    -0.344 N 
ATOM      3  C7  <0> d           2.021   1.873  -5.197  0.00  0.00     0.257 C 
ATOM      4  O1  <0> d           1.829   2.343  -6.302  0.00  0.00    -0.267 OA
ATOM      5  C8  <0> d           1.291   0.574  -3.269  0.00  0.00     0.153 C 
BRANCH   3   6
ATOM      6  C3  <0> d           3.305   2.103  -4.511  0.00  0.00     0.082 A 
ATOM      7  C2  <0> d           3.612   3.177  -3.645  0.00  0.00     0.068 A 
ATOM      8  C1  <0> d           2.680   4.296  -3.257  0.00  0.00     0.073 C 
ATOM      9  N2  <0> d           4.845   3.033  -3.245  0.00  0.00    -0.177 NA
ATOM     10  N1  <0> d           5.375   1.872  -3.820  0.00  0.00    -0.277 N 
ATOM     11  C4  <0> d           4.432   1.311  -4.593  0.00  0.00     0.044 A 
ATOM     12  C5  <0> d           6.732   1.359  -3.616  0.00  0.00     0.179 C 
ATOM     13  C6  <0> d           4.578   0.048  -5.403  0.00  0.00     0.071 C 
ENDBRANCH   3   6
ENDBRANCH   1   2
BRANCH   1  14
ATOM     14  C10 <0> d          -0.125  -0.345  -6.110  0.00  0.00     0.240 C 
ATOM     15  O2  <0> d           0.904  -0.986  -6.128  0.00  0.00    -0.271 OA
ATOM     16  N4  <0> d          -1.188  -0.757  -6.830  0.00  0.00    -0.323 N 
ATOM     17  H15 <0> d          -2.033  -0.287  -6.759  0.00  0.00     0.169 HD
BRANCH  16  18
ATOM     18  C11 <0> d          -1.071  -1.864  -7.680  0.00  0.00     0.078 A 
ATOM     19  C16 <0> d          -0.667  -1.690  -8.998  0.00  0.00     0.062 A 
ATOM     20  C15 <0> d          -0.547  -2.785  -9.832  0.00  0.00     0.026 A 
ATOM     21 Cl1  <0> d          -0.306  -0.100  -9.593  0.00  0.00    -0.082 Cl
ATOM     22  C14 <0> d          -0.840  -4.052  -9.360  0.00  0.00     0.003 A 
ATOM     23  C13 <0> d          -1.249  -4.228  -8.051  0.00  0.00     0.026 A 
ATOM     24  C12 <0> d          -1.365  -3.137  -7.209  0.00  0.00     0.062 A 
ATOM     25 Cl2  <0> d          -1.877  -3.360  -5.565  0.00  0.00    -0.082 Cl
ENDBRANCH  16  18
ENDBRANCH   1  14
TORSDOF 4
