REMARK  4 active torsions:
REMARK  status: ('A' for Active; 'I' for Inactive)
REMARK    1  A    between atoms: C3_4  and  C5_8 
REMARK    2  A    between atoms: C5_8  and  N3_9 
REMARK    3  A    between atoms: N4_13  and  S1_20 
REMARK    4  A    between atoms: C10_15  and  C12_17 
ROOT
ATOM      1  N3  <0> d          -4.416   1.429  -3.459  0.00  0.00    -0.063 N 
ATOM      2  C6  <0> d          -4.796   0.575  -2.303  0.00  0.00     0.243 C 
ATOM      3  C7  <0> d          -5.925  -0.327  -2.849  0.00  0.00     0.052 C 
ATOM      4  C8  <0> d          -5.302  -1.579  -3.487  0.00  0.00     0.142 C 
ATOM      5  N4  <0> d          -5.922  -1.722  -4.814  0.00  0.00    -0.309 N 
ATOM      6  C9  <0> d          -6.225  -0.360  -5.285  0.00  0.00     0.158 C 
ATOM      7  C10 <0> d          -6.541   0.481  -4.022  0.00  0.00     0.096 C 
ATOM      8  C11 <0> d          -5.723   1.790  -4.069  0.00  0.00     0.258 C 
ATOM      9  H20 <0> d          -3.849   0.911  -4.115  0.00  0.00     0.280 HD
ENDROOT
BRANCH   1  10
ATOM     10  C5  <0> d          -3.708   2.632  -3.003  0.00  0.00     0.312 C 
BRANCH  10  11
ATOM     11  C3  <0> d          -2.338   2.250  -2.503  0.00  0.00     0.130 A 
ATOM     12  N1  <0> d          -2.057   1.831  -1.300  0.00  0.00    -0.237 NA
ATOM     13  C2  <0> d          -0.742   1.585  -1.213  0.00  0.00     0.048 A 
ATOM     14  C1  <0> d          -0.013   1.086   0.008  0.00  0.00     0.072 C 
ATOM     15  C4  <0> d          -0.185   1.868  -2.406  0.00  0.00     0.116 A 
ATOM     16  N2  <0> d          -1.198   2.284  -3.227  0.00  0.00    -0.351 N 
ATOM     17  H1  <0> d          -1.113   2.558  -4.154  0.00  0.00     0.166 HD
ENDBRANCH  10  11
ENDBRANCH   1  10
BRANCH   7  18
ATOM     18  C12 <0> d          -8.017   0.724  -3.839  0.00  0.00     0.185 C 
ATOM     19  O1  <0> d          -8.533   1.726  -4.304  0.00  0.00    -0.647 OA
ATOM     20  O2  <0> d          -8.696  -0.082  -3.226  0.00  0.00    -0.647 OA
ENDBRANCH   7  18
BRANCH   5  21
ATOM     21  S1  <0> d          -6.219  -3.137  -5.621  0.00  0.00     0.224 S 
ATOM     22  O3  <0> d          -6.222  -2.777  -6.996  0.00  0.00    -0.206 OA
ATOM     23  O4  <0> d          -5.257  -4.052  -5.114  0.00  0.00    -0.206 OA
ATOM     24  C13 <0> d          -7.885  -3.630  -5.100  0.00  0.00     0.186 C 
ENDBRANCH   5  21
TORSDOF 4
