REMARK  5 active torsions:
REMARK  status: ('A' for Active; 'I' for Inactive)
REMARK    1  A    between atoms: C6_6  and  N6_21 
REMARK    2  A    between atoms: C11_13  and  N4_17 
REMARK    3  A    between atoms: N4_17  and  C13_18 
REMARK    4  A    between atoms: C13_18  and  C14_19 
REMARK    5  A    between atoms: C14_19  and  N5_20 
ROOT
ATOM      1  C1  <0> d          -2.587   9.103  -2.497  0.00  0.00     0.046 C 
ATOM      2  C2  <0> d          -2.568   7.585  -2.309  0.00  0.00     0.058 C 
ATOM      3  C3  <0> d          -2.639   6.896  -3.674  0.00  0.00     0.077 C 
ATOM      4  C4  <0> d          -2.334   5.430  -3.520  0.00  0.00    -0.028 A 
ATOM      5  C5  <0> d          -1.736   4.933  -2.405  0.00  0.00     0.013 A 
ATOM      6  C6  <0> d          -1.460   3.564  -2.313  0.00  0.00     0.116 A 
ATOM      7  N1  <0> d          -1.791   2.746  -3.300  0.00  0.00    -0.228 NA
ATOM      8  C7  <0> d          -2.379   3.194  -4.389  0.00  0.00     0.113 A 
ATOM      9  C8  <0> d          -2.688   4.553  -4.574  0.00  0.00     0.037 A 
ATOM     10  C9  <0> d          -3.346   4.896  -5.848  0.00  0.00     0.092 A 
ATOM     11  C10 <0> d          -3.586   3.828  -6.721  0.00  0.00     0.082 A 
ATOM     12  S1  <0> d          -2.954   2.406  -5.873  0.00  0.00    -0.063 SA
ATOM     13  C11 <0> d          -4.199   4.033  -7.948  0.00  0.00     0.144 A 
ATOM     14  N2  <0> d          -4.556   5.275  -8.276  0.00  0.00    -0.223 NA
ATOM     15  C12 <0> d          -4.324   6.271  -7.442  0.00  0.00     0.236 A 
ATOM     16  N3  <0> d          -3.747   6.114  -6.277  0.00  0.00    -0.240 NA
ATOM     17  C19 <0> d          -1.345   5.827  -1.255  0.00  0.00     0.211 C 
ATOM     18  O2  <0> d          -1.349   7.193  -1.668  0.00  0.00    -0.376 OA
ATOM     19  C20 <0> d          -3.762   7.156  -1.454  0.00  0.00     0.046 C 
ENDROOT
BRANCH  13  20
ATOM     20  N4  <0> d          -4.435   2.974  -8.811  0.00  0.00    -0.372 N 
ATOM     21  H7  <0> d          -4.135   1.955  -8.526  0.00  0.00     0.161 HD
BRANCH  20  22
ATOM     22  C13 <0> d          -5.084   3.212 -10.103  0.00  0.00     0.148 C 
BRANCH  22  23
ATOM     23  C14 <0> d          -5.225   1.887 -10.855  0.00  0.00     0.249 C 
BRANCH  23  24
ATOM     24  N5  <0> d          -5.876   2.126 -12.150  0.00  0.00    -0.078 N 
ATOM     25  H12 <0> d          -5.977   1.173 -12.690  0.00  0.00     0.274 HD
ATOM     26  H13 <0> d          -5.266   2.821 -12.744  0.00  0.00     0.274 HD
ATOM     27  H27 <0> d          -6.873   2.561 -11.985  0.00  0.00     0.274 HD
ENDBRANCH  23  24
ENDBRANCH  22  23
ENDBRANCH  20  22
ENDBRANCH  13  20
BRANCH   6  28
ATOM     28  N6  <0> d          -0.839   3.061  -1.178  0.00  0.00    -0.263 NA
ATOM     29  C18 <0> d          -1.831   2.599  -0.197  0.00  0.00     0.123 C 
ATOM     30  C17 <0> d          -1.107   2.108   1.060  0.00  0.00     0.182 C 
ATOM     31  O1  <0> d          -0.181   1.079   0.700  0.00  0.00    -0.389 OA
ATOM     32  C16 <0> d           0.799   1.494  -0.255  0.00  0.00     0.182 C 
ATOM     33  C15 <0> d           0.094   1.979  -1.524  0.00  0.00     0.123 C 
ENDBRANCH   6  28
TORSDOF 5
