REMARK  6 active torsions:
REMARK  status: ('A' for Active; 'I' for Inactive)
REMARK    1  A    between atoms: C3_5  and  S1_8 
REMARK    2  A    between atoms: N3_6  and  N4_7 
REMARK    3  A    between atoms: S1_8  and  C4_9 
REMARK    4  A    between atoms: C4_9  and  C5_10 
REMARK       I    between atoms: C5_10  and  N5_12 
REMARK    5  A    between atoms: N5_12  and  C6_13 
REMARK    6  A    between atoms: C9_16  and  N6_20 
ROOT
ATOM      1  C5  <0> d           0.089  -6.239   1.000  0.00  0.00     0.231 C 
ATOM      2  O1  <0> d           0.099  -6.301   2.211  0.00  0.00    -0.272 OA
ATOM      3  N5  <0> d           0.108  -7.370   0.267  0.00  0.00    -0.325 N 
ATOM      4  H8  <0> d           0.035  -7.324  -0.699  0.00  0.00     0.169 HD
ENDROOT
BRANCH   1   5
ATOM      5  C4  <0> d           0.056  -4.898   0.314  0.00  0.00     0.185 C 
BRANCH   5   6
ATOM      6  S1  <0> d           0.036  -3.581   1.561  0.00  0.00    -0.080 SA
BRANCH   6   7
ATOM      7  C3  <0> d          -0.002  -2.096   0.613  0.00  0.00     0.206 A 
ATOM      8  N2  <0> d          -0.014  -2.006  -0.697  0.00  0.00    -0.121 NA
ATOM      9  N1  <0> d          -0.043  -0.771  -1.049  0.00  0.00    -0.133 NA
ATOM     10  C2  <0> d          -0.051  -0.005   0.005  0.00  0.00     0.141 A 
ATOM     11  C1  <0> d          -0.082   1.502   0.014  0.00  0.00     0.095 C 
ATOM     12  N3  <0> d          -0.021  -0.821   1.102  0.00  0.00    -0.240 N 
BRANCH  12  13
ATOM     13  N4  <0> d          -0.013  -0.441   2.413  0.00  0.00    -0.239 NA
ATOM     14  H4  <0> d          -0.953  -0.360   2.772  0.00  0.00     0.143 HD
ATOM     15  H5  <0> d           0.533  -1.079   2.972  0.00  0.00     0.143 HD
ENDBRANCH  12  13
ENDBRANCH   6   7
ENDBRANCH   5   6
ENDBRANCH   1   5
BRANCH   3  16
ATOM     16  C6  <0> d           0.234  -8.612   0.901  0.00  0.00     0.052 A 
ATOM     17  C11 <0> d           0.939  -9.639   0.285  0.00  0.00     0.040 A 
ATOM     18  C10 <0> d           1.066 -10.862   0.916  0.00  0.00     0.057 A 
ATOM     19 Br1  <0> d           1.728  -9.362  -1.411  0.00  0.00    -0.049 Br
ATOM     20  C9  <0> d           0.484 -11.067   2.154  0.00  0.00     0.104 A 
ATOM     21  C8  <0> d          -0.223 -10.048   2.766  0.00  0.00     0.038 A 
ATOM     22  C7  <0> d          -0.349  -8.822   2.143  0.00  0.00     0.033 A 
BRANCH  20  23
ATOM     23  N6  <0> d           0.618 -12.380   2.824  0.00  0.00    -0.116 N 
ATOM     24  O2  <0> d           0.109 -12.560   3.906  0.00  0.00    -0.532 OA
ATOM     25  O3  <0> d           1.235 -13.271   2.290  0.00  0.00    -0.532 OA
ENDBRANCH  20  23
ENDBRANCH   3  16
TORSDOF 6
