REMARK  5 active torsions:
REMARK  status: ('A' for Active; 'I' for Inactive)
REMARK    1  A    between atoms: C3_3  and  S2_6 
REMARK    2  A    between atoms: S2_6  and  C5_7 
REMARK    3  A    between atoms: C5_7  and  C6_8 
REMARK    4  A    between atoms: C5_7  and  C7_10 
REMARK    5  A    between atoms: C6_8  and  N1_9 
ROOT
ATOM      1  C5  <0> d           5.140   0.414  -0.063  0.00  0.00     0.111 C 
ENDROOT
BRANCH   1   2
ATOM      2  S2  <0> d           4.254   1.996   0.009  0.00  0.00    -0.111 SA
BRANCH   2   3
ATOM      3  C3  <0> d           4.284   2.425   1.717  0.00  0.00     0.041 A 
ATOM      4  C2  <0> d           3.856   3.568   2.324  0.00  0.00     0.026 A 
ATOM      5  C1  <0> d           3.982   3.681   3.696  0.00  0.00     0.009 A 
ATOM      6  C4  <0> d           4.525   2.656   4.394  0.00  0.00     0.051 A 
ATOM      7  S1  <0> d           4.883   1.474   3.105  0.00  0.00    -0.095 SA
ENDBRANCH   2   3
ENDBRANCH   1   2
BRANCH   1   8
ATOM      8  C6  <0> d           4.994  -0.190  -1.461  0.00  0.00     0.249 C 
BRANCH   8   9
ATOM      9  N1  <0> d           3.586  -0.537  -1.700  0.00  0.00    -0.078 N 
ATOM     10  H7  <0> d           3.291  -1.226  -1.025  0.00  0.00     0.274 HD
ATOM     11  H8  <0> d           3.016   0.290  -1.607  0.00  0.00     0.274 HD
ATOM     12  H13 <0> d           3.486  -0.912  -2.631  0.00  0.00     0.274 HD
ENDBRANCH   8   9
ENDBRANCH   1   8
BRANCH   1  13
ATOM     13  C7  <0> d           6.599   0.642   0.236  0.00  0.00    -0.042 A 
ATOM     14  C12 <0> d           7.190   0.013   1.316  0.00  0.00     0.010 A 
ATOM     15  C11 <0> d           8.530   0.218   1.587  0.00  0.00     0.019 A 
ATOM     16  C10 <0> d           9.277   1.061   0.785  0.00  0.00     0.011 A 
ATOM     17  C9  <0> d           8.684   1.695  -0.292  0.00  0.00     0.019 A 
ATOM     18 Br1  <0> d          11.108   1.347   1.160  0.00  0.00    -0.051 Br
ATOM     19  C8  <0> d           7.345   1.485  -0.566  0.00  0.00     0.010 A 
ENDBRANCH   1  13
TORSDOF 5
