REMARK  6 active torsions:
REMARK  status: ('A' for Active; 'I' for Inactive)
REMARK    1  A    between atoms: C2_2  and  C5_5 
REMARK    2  A    between atoms: C8_8  and  C11_11 
REMARK    3  A    between atoms: C11_11  and  C12_12 
REMARK    4  A    between atoms: C11_11  and  O3_29 
REMARK    5  A    between atoms: C12_12  and  N1_32 
REMARK    6  A    between atoms: C19_19  and  O2_28 
ROOT
ATOM      1  C13 <0> d           4.896   3.828  -0.444  0.00  0.00     0.238 C 
ATOM      2  C14 <0> d           3.539   3.171  -0.709  0.00  0.00     0.066 C 
ATOM      3  C15 <0> d           2.518   3.696   0.302  0.00  0.00     0.073 C 
ATOM      4  C16 <0> d           2.437   5.220   0.199  0.00  0.00     0.066 C 
ATOM      5  C17 <0> d           3.826   5.817   0.436  0.00  0.00     0.238 C 
ATOM      6  C18 <0> d           1.144   3.086   0.005  0.00  0.00     0.075 C 
ATOM      7  C19 <0> d           1.286   1.562  -0.002  0.00  0.00     0.157 C 
ATOM      8  C20 <0> d           2.052   1.118   1.219  0.00  0.00     0.007 A 
ATOM      9  C21 <0> d           1.985  -0.214   1.597  0.00  0.00     0.055 A 
ATOM     10  C22 <0> d           2.679  -0.659   2.707  0.00  0.00     0.117 A 
ATOM     11  C23 <0> d           3.444   0.227   3.446  0.00  0.00     0.045 A 
ATOM     12  C24 <0> d           3.513   1.554   3.072  0.00  0.00     0.040 A 
ATOM     13  C25 <0> d           2.816   2.004   1.956  0.00  0.00     0.079 A 
ATOM     14  O1  <0> d           2.908   3.319   1.621  0.00  0.00    -0.339 OA
ATOM     15  F1  <0> d           2.609  -1.958   3.072  0.00  0.00    -0.206 F 
ATOM     16  N1  <0> d           4.755   5.293  -0.588  0.00  0.00    -0.068 N 
ATOM     17  H33 <0> d           4.375   5.501  -1.519  0.00  0.00     0.280 HD
ENDROOT
BRANCH  16  18
ATOM     18  C12 <0> d           6.075   5.942  -0.452  0.00  0.00     0.271 C 
BRANCH  18  19
ATOM     19  C11 <0> d           5.878   7.455  -0.327  0.00  0.00     0.177 C 
BRANCH  19  20
ATOM     20  C8  <0> d           7.222   8.128  -0.216  0.00  0.00    -0.028 A 
ATOM     21  C7  <0> d           7.745   8.426   1.028  0.00  0.00     0.010 A 
ATOM     22  C6  <0> d           8.977   9.044   1.130  0.00  0.00     0.008 A 
ATOM     23  C5  <0> d           9.687   9.363  -0.012  0.00  0.00    -0.051 A 
ATOM     24  C10 <0> d           9.164   9.065  -1.257  0.00  0.00     0.008 A 
ATOM     25  C9  <0> d           7.934   8.443  -1.359  0.00  0.00     0.010 A 
BRANCH  23  26
ATOM     26  C2  <0> d          11.031  10.036   0.099  0.00  0.00    -0.024 C 
ATOM     27  C1  <0> d          11.986   9.141   0.890  0.00  0.00     0.019 C 
ATOM     28  C3  <0> d          11.598  10.277  -1.302  0.00  0.00     0.019 C 
ATOM     29  C4  <0> d          10.872  11.376   0.821  0.00  0.00     0.019 C 
ENDBRANCH  23  26
ENDBRANCH  19  20
BRANCH  19  30
ATOM     30  O3  <0> d           5.195   7.943  -1.483  0.00  0.00    -0.389 OA
ATOM     31  H32 <0> d           5.663   7.784  -2.314  0.00  0.00     0.210 HD
ENDBRANCH  19  30
ENDBRANCH  18  19
ENDBRANCH  16  18
BRANCH   7  32
ATOM     32  O2  <0> d          -0.011   0.963   0.007  0.00  0.00    -0.391 OA
ATOM     33  H31 <0> d           0.002  -0.004   0.002  0.00  0.00     0.210 HD
ENDBRANCH   7  32
TORSDOF 6
