REMARK  3 active torsions:
REMARK  status: ('A' for Active; 'I' for Inactive)
REMARK    1  A    between atoms: C8_12  and  N3_14 
REMARK    2  A    between atoms: N3_14  and  C9_15 
REMARK    3  A    between atoms: C9_15  and  C10_16 
ROOT
ATOM      1  C1  <0> d          -0.018   1.503   0.010  0.00  0.00     0.048 C 
ATOM      2  C2  <0> d           0.002  -0.004   0.002  0.00  0.00    -0.060 A 
ATOM      3  C3  <0> d           0.006  -0.689  -1.200  0.00  0.00     0.009 A 
ATOM      4  C4  <0> d           0.023  -2.069  -1.215  0.00  0.00     0.032 A 
ATOM      5  C5  <0> d           0.037  -2.776  -0.018  0.00  0.00     0.072 A 
ATOM      6  C6  <0> d           0.036  -2.079   1.185  0.00  0.00     0.109 A 
ATOM      7  C7  <0> d           0.023  -0.702   1.197  0.00  0.00     0.034 A 
ATOM      8  S1  <0> d           0.062  -2.997   2.691  0.00  0.00     0.300 S 
ATOM      9  O1  <0> d           1.137  -2.484   3.466  0.00  0.00    -0.198 OA
ATOM     10  O2  <0> d          -1.275  -3.037   3.170  0.00  0.00    -0.198 OA
ATOM     11  N1  <0> d           0.472  -4.548   2.271  0.00  0.00     0.030 NA
ATOM     12  C8  <0> d           0.428  -4.936   1.038  0.00  0.00     0.712 C 
ATOM     13  N2  <0> d           0.051  -4.168  -0.021  0.00  0.00    -0.188 N 
ATOM     14  H7  <0> d          -0.228  -4.622  -0.832  0.00  0.00     0.184 HD
ENDROOT
BRANCH  12  15
ATOM     15  N3  <0> d           0.793  -6.235   0.774  0.00  0.00    -0.219 N 
ATOM     16  H8  <0> d           0.775  -6.569  -0.136  0.00  0.00     0.178 HD
BRANCH  15  17
ATOM     17  C9  <0> d           1.210  -7.115   1.869  0.00  0.00     0.176 C 
BRANCH  17  18
ATOM     18  C10 <0> d           1.555  -8.474   1.317  0.00  0.00    -0.037 A 
ATOM     19  C14 <0> d           2.847  -8.766   0.907  0.00  0.00     0.028 A 
ATOM     20  C13 <0> d           3.128 -10.026   0.411  0.00  0.00     0.116 A 
ATOM     21  N4  <0> d           2.182 -10.939   0.316  0.00  0.00    -0.273 NA
ATOM     22  C12 <0> d           0.941 -10.695   0.691  0.00  0.00     0.116 A 
ATOM     23  C11 <0> d           0.588  -9.461   1.202  0.00  0.00     0.028 A 
ENDBRANCH  17  18
ENDBRANCH  15  17
ENDBRANCH  12  15
TORSDOF 3
