REMARK  5 active torsions:
REMARK  status: ('A' for Active; 'I' for Inactive)
REMARK    1  A    between atoms: C2_2  and  N1_3 
REMARK    2  A    between atoms: N1_3  and  C3_4 
REMARK    3  A    between atoms: N1_3  and  C8_10 
REMARK    4  A    between atoms: C3_4  and  C4_5 
REMARK    5  A    between atoms: C11_13  and  N3_18 
ROOT
ATOM      1  C8  <0> d          -0.037  -0.712  -2.370  0.00  0.00     0.051 A 
ATOM      2  C9  <0> d          -0.212   0.305  -3.298  0.00  0.00     0.033 A 
ATOM      3  C10 <0> d          -0.930   0.073  -4.454  0.00  0.00     0.031 A 
ATOM      4  C11 <0> d          -1.482  -1.180  -4.698  0.00  0.00     0.027 A 
ATOM      5  C12 <0> d          -1.315  -2.205  -3.783  0.00  0.00     0.054 A 
ATOM      6  C13 <0> d          -0.586  -1.980  -2.613  0.00  0.00     0.073 A 
ATOM      7  C14 <0> d          -0.405  -3.037  -1.664  0.00  0.00     0.102 C 
ATOM      8  N2  <0> d          -0.261  -3.875  -0.911  0.00  0.00    -0.191 NA
ENDROOT
BRANCH   1   9
ATOM      9  N1  <0> d           0.688  -0.476  -1.203  0.00  0.00    -0.378 N 
BRANCH   9  10
ATOM     10  C2  <0> d           0.002  -0.004   0.002  0.00  0.00     0.118 C 
ATOM     11  C1  <0> d          -0.019   1.526   0.010  0.00  0.00     0.026 C 
ENDBRANCH   9  10
BRANCH   9  12
ATOM     12  C3  <0> d           2.135  -0.701  -1.182  0.00  0.00     0.155 C 
BRANCH  12  13
ATOM     13  C4  <0> d           2.421  -2.145  -0.763  0.00  0.00     0.139 C 
ATOM     14  O1  <0> d           1.949  -3.046  -1.772  0.00  0.00    -0.384 OA
ATOM     15  C7  <0> d           3.053  -3.790  -2.318  0.00  0.00     0.168 C 
ATOM     16  C6  <0> d           4.134  -3.782  -1.209  0.00  0.00     0.029 C 
ATOM     17  C5  <0> d           3.944  -2.357  -0.621  0.00  0.00     0.035 C 
ENDBRANCH  12  13
ENDBRANCH   9  12
ENDBRANCH   1   9
BRANCH   4  18
ATOM     18  N3  <0> d          -2.209  -1.405  -5.874  0.00  0.00    -0.399 N 
ATOM     19  H18 <0> d          -2.327  -0.688  -6.516  0.00  0.00     0.156 HD
ATOM     20  H19 <0> d          -2.595  -2.278  -6.046  0.00  0.00     0.156 HD
ENDBRANCH   4  18
TORSDOF 5
