REMARK  7 active torsions:
REMARK  status: ('A' for Active; 'I' for Inactive)
REMARK    1  A    between atoms: O1_2  and  C2_3 
REMARK    2  A    between atoms: C5_6  and  C8_9 
REMARK    3  A    between atoms: C8_9  and  C9_10 
REMARK    4  A    between atoms: C8_9  and  N3_33 
REMARK    5  A    between atoms: C9_10  and  N1_11 
REMARK       I    between atoms: N1_11  and  C10_12 
REMARK    6  A    between atoms: C10_12  and  C11_14 
REMARK    7  A    between atoms: C11_14  and  C12_15 
ROOT
ATOM      1  C9  <0> d           4.153  -0.082   1.539  0.00  0.00     0.160 C 
ENDROOT
BRANCH   1   2
ATOM      2  C8  <0> d           2.902  -0.430   2.348  0.00  0.00     0.238 C 
BRANCH   2   3
ATOM      3  C5  <0> d           2.687  -1.922   2.324  0.00  0.00    -0.026 A 
ATOM      4  C4  <0> d           2.388  -2.595   3.494  0.00  0.00     0.012 A 
ATOM      5  C3  <0> d           2.190  -3.962   3.475  0.00  0.00     0.037 A 
ATOM      6  C2  <0> d           2.292  -4.659   2.280  0.00  0.00     0.068 A 
ATOM      7  C7  <0> d           2.593  -3.982   1.107  0.00  0.00     0.037 A 
ATOM      8  C6  <0> d           2.784  -2.614   1.131  0.00  0.00     0.012 A 
BRANCH   6   9
ATOM      9  O1  <0> d           2.098  -6.004   2.259  0.00  0.00    -0.356 OA
ATOM     10  C1  <0> d           2.219  -6.657   0.993  0.00  0.00     0.210 C 
ENDBRANCH   6   9
ENDBRANCH   2   3
BRANCH   2  11
ATOM     11  N3  <0> d           1.740   0.268   1.756  0.00  0.00    -0.057 N 
ATOM     12  C20 <0> d           1.425  -0.307   0.432  0.00  0.00     0.261 C 
ATOM     13  C21 <0> d           0.244   0.460  -0.168  0.00  0.00     0.195 C 
ATOM     14  O4  <0> d          -0.871   0.382   0.724  0.00  0.00    -0.388 OA
ATOM     15  C22 <0> d          -0.604   0.909   2.026  0.00  0.00     0.195 C 
ATOM     16  C23 <0> d           0.568   0.146   2.649  0.00  0.00     0.261 C 
ATOM     17  H28 <0> d           1.971   1.262   1.642  0.00  0.00     0.281 HD
ENDBRANCH   2  11
ENDBRANCH   1   2
BRANCH   1  18
ATOM     18  N1  <0> d           4.312   1.373   1.488  0.00  0.00    -0.359 N 
ATOM     19  C10 <0> d           5.402   1.912   0.906  0.00  0.00     0.219 C 
ATOM     20  O2  <0> d           6.250   1.192   0.424  0.00  0.00    -0.274 OA
ATOM     21  H12 <0> d           3.633   1.949   1.874  0.00  0.00     0.162 HD
BRANCH  19  22
ATOM     22  C11 <0> d           5.566   3.409   0.854  0.00  0.00     0.128 C 
BRANCH  22  23
ATOM     23  C12 <0> d           6.877   3.754   0.146  0.00  0.00     0.153 C 
ATOM     24  S1  <0> d           8.282   3.153   1.133  0.00  0.00    -0.113 SA
ATOM     25  C19 <0> d           8.356   4.330   2.448  0.00  0.00     0.028 A 
ATOM     26  C14 <0> d           7.931   5.637   2.217  0.00  0.00     0.051 A 
ATOM     27  C18 <0> d           8.832   3.953   3.693  0.00  0.00     0.021 A 
ATOM     28  N2  <0> d           7.426   6.040   0.984  0.00  0.00    -0.325 N 
ATOM     29  C15 <0> d           8.002   6.561   3.256  0.00  0.00     0.031 A 
ATOM     30  C13 <0> d           6.999   5.250   0.005  0.00  0.00     0.236 C 
ATOM     31  H15 <0> d           7.382   6.996   0.823  0.00  0.00     0.169 HD
ATOM     32  O3  <0> d           6.692   5.756  -1.053  0.00  0.00    -0.272 OA
ATOM     33  C16 <0> d           8.479   6.181   4.494  0.00  0.00     0.002 A 
ATOM     34  C17 <0> d           8.893   4.880   4.717  0.00  0.00     0.002 A 
ENDBRANCH  22  23
ENDBRANCH  19  22
ENDBRANCH   1  18
TORSDOF 7
