REMARK  6 active torsions:
REMARK  status: ('A' for Active; 'I' for Inactive)
REMARK    1  A    between atoms: C11_11  and  C12_13 
REMARK    2  A    between atoms: C12_13  and  C13_14 
REMARK    3  A    between atoms: C13_14  and  C14_15 
REMARK       I    between atoms: C14_15  and  N2_17 
REMARK    4  A    between atoms: N3_20  and  C17_23 
REMARK    5  A    between atoms: C17_23  and  C18_24 
REMARK    6  A    between atoms: C18_24  and  C19_25 
ROOT
ATOM      1  C1  <0> d          -0.018   1.503   0.010  0.00  0.00     0.048 C 
ATOM      2  C2  <0> d           0.002  -0.004   0.002  0.00  0.00    -0.061 A 
ATOM      3  C3  <0> d           0.006  -0.691  -1.199  0.00  0.00     0.015 A 
ATOM      4  C4  <0> d           0.025  -2.070  -1.212  0.00  0.00    -0.034 A 
ATOM      5  C5  <0> d           0.041  -2.782  -0.015  0.00  0.00     0.050 A 
ATOM      6  C6  <0> d           0.036  -2.081   1.187  0.00  0.00     0.018 A 
ATOM      7  C7  <0> d           0.023  -0.704   1.195  0.00  0.00     0.019 A 
ATOM      8  C8  <0> d           0.055  -3.122   2.269  0.00  0.00     0.279 A 
ATOM      9  C9  <0> d          -1.169  -3.004   3.186  0.00  0.00     0.147 A 
ATOM     10  C10 <0> d          -0.655  -2.220   4.426  0.00  0.00     0.128 A 
ATOM     11  C11 <0> d           0.825  -1.915   4.116  0.00  0.00     0.237 C 
ATOM     12  N1  <0> d           1.232  -2.974   3.145  0.00  0.00     0.113 N 
ATOM     13  C15 <0> d          -0.749  -3.233   5.543  0.00  0.00     0.233 A 
ATOM     14  O2  <0> d          -0.432  -3.035   6.697  0.00  0.00    -0.272 OA
ATOM     15  N3  <0> d          -1.236  -4.383   5.062  0.00  0.00    -0.287 N 
ATOM     16  C16 <0> d          -1.520  -4.367   3.739  0.00  0.00     0.234 A 
ATOM     17  O3  <0> d          -1.979  -5.287   3.096  0.00  0.00    -0.272 OA
ATOM     18  C25 <0> d           0.072  -4.440   1.545  0.00  0.00     0.267 A 
ATOM     19  O4  <0> d           0.091  -5.543   2.048  0.00  0.00    -0.270 OA
ATOM     20  N4  <0> d           0.061  -4.157   0.228  0.00  0.00    -0.324 N 
ATOM     21  C26 <0> d           0.028  -2.808  -2.526  0.00  0.00     0.050 C 
ATOM     22  H9  <0> d           1.448  -3.842   3.611  0.00  0.00     0.318 HD
ATOM     23  H25 <0> d           0.067  -4.830  -0.471  0.00  0.00     0.169 HD
ENDROOT
BRANCH  11  24
ATOM     24  C12 <0> d           1.669  -2.025   5.388  0.00  0.00     0.045 C 
BRANCH  24  25
ATOM     25  C13 <0> d           3.106  -1.599   5.085  0.00  0.00     0.105 C 
BRANCH  25  26
ATOM     26  C14 <0> d           3.937  -1.707   6.338  0.00  0.00     0.215 C 
ATOM     27  O1  <0> d           3.429  -2.089   7.372  0.00  0.00    -0.274 OA
ATOM     28  N2  <0> d           5.244  -1.381   6.311  0.00  0.00    -0.370 N 
ATOM     29  H14 <0> d           5.651  -1.076   5.484  0.00  0.00     0.159 HD
ATOM     30  H15 <0> d           5.779  -1.451   7.117  0.00  0.00     0.159 HD
ENDBRANCH  25  26
ENDBRANCH  24  25
ENDBRANCH  11  24
BRANCH  15  31
ATOM     31  C17 <0> d          -1.452  -5.565   5.900  0.00  0.00     0.139 C 
BRANCH  31  32
ATOM     32  C18 <0> d          -2.867  -5.529   6.479  0.00  0.00     0.059 C 
BRANCH  32  33
ATOM     33  C19 <0> d          -3.089  -6.745   7.341  0.00  0.00    -0.057 A 
ATOM     34  C24 <0> d          -2.786  -6.701   8.689  0.00  0.00     0.007 A 
ATOM     35  C23 <0> d          -2.993  -7.815   9.480  0.00  0.00     0.001 A 
ATOM     36  C22 <0> d          -3.495  -8.976   8.922  0.00  0.00     0.000 A 
ATOM     37  C21 <0> d          -3.793  -9.021   7.573  0.00  0.00     0.001 A 
ATOM     38  C20 <0> d          -3.590  -7.906   6.782  0.00  0.00     0.007 A 
ENDBRANCH  32  33
ENDBRANCH  31  32
ENDBRANCH  15  31
TORSDOF 6
