REMARK  4 active torsions:
REMARK  status: ('A' for Active; 'I' for Inactive)
REMARK    1  A    between atoms: C3_3  and  C11_14 
REMARK    2  A    between atoms: N2_6  and  C5_7 
REMARK    3  A    between atoms: C11_14  and  N3_16 
REMARK       I    between atoms: N3_16  and  C13_17 
REMARK    4  A    between atoms: C13_17  and  C14_19 
ROOT
ATOM      1  N3  <0> d           3.672  -2.115  -0.142  0.00  0.00    -0.347 N 
ATOM      2  C13 <0> d           3.786  -0.775  -0.216  0.00  0.00     0.268 C 
ATOM      3  O1  <0> d           4.881  -0.264  -0.357  0.00  0.00    -0.266 OA
ATOM      4  H14 <0> d           2.682  -2.577  -0.014  0.00  0.00     0.163 HD
ENDROOT
BRANCH   1   5
ATOM      5  C11 <0> d           4.867  -2.958  -0.232  0.00  0.00     0.117 C 
ATOM      6  C12 <0> d           5.200  -3.214  -1.704  0.00  0.00     0.037 C 
BRANCH   5   7
ATOM      7  C3  <0> d           4.609  -4.272   0.460  0.00  0.00     0.008 A 
ATOM      8  C2  <0> d           5.547  -5.089   0.992  0.00  0.00     0.042 A 
ATOM      9  C1  <0> d           7.034  -4.849   0.998  0.00  0.00     0.071 C 
ATOM     10  N2  <0> d           4.909  -6.158   1.521  0.00  0.00    -0.238 N 
ATOM     11  N1  <0> d           3.536  -5.994   1.296  0.00  0.00    -0.179 NA
ATOM     12  C4  <0> d           3.357  -4.864   0.661  0.00  0.00     0.150 A 
BRANCH  10  13
ATOM     13  C5  <0> d           5.516  -7.242   2.172  0.00  0.00     0.058 A 
ATOM     14  C10 <0> d           6.552  -7.021   3.070  0.00  0.00     0.034 A 
ATOM     15  C9  <0> d           7.148  -8.090   3.711  0.00  0.00     0.044 A 
ATOM     16  C8  <0> d           6.713  -9.380   3.459  0.00  0.00     0.116 A 
ATOM     17  C7  <0> d           5.679  -9.601   2.564  0.00  0.00     0.044 A 
ATOM     18  F1  <0> d           7.297 -10.424   4.087  0.00  0.00    -0.206 F 
ATOM     19  C6  <0> d           5.077  -8.535   1.925  0.00  0.00     0.034 A 
ENDBRANCH  10  13
ENDBRANCH   5   7
ENDBRANCH   1   5
BRANCH   2  20
ATOM     20  C14 <0> d           2.583   0.074  -0.125  0.00  0.00     0.104 A 
ATOM     21  N4  <0> d           1.353  -0.527   0.035  0.00  0.00    -0.318 N 
ATOM     22  C22 <0> d           0.214   0.187   0.125  0.00  0.00     0.257 A 
ATOM     23  H2  <0> d           1.280  -1.623   0.094  0.00  0.00     0.169 HD
ATOM     24  C21 <0> d           0.274   1.654   0.051  0.00  0.00     0.042 A 
ATOM     25  O2  <0> d          -0.855  -0.378   0.266  0.00  0.00    -0.267 OA
ATOM     26  C16 <0> d           1.535   2.271  -0.113  0.00  0.00    -0.018 A 
ATOM     27  C20 <0> d          -0.873   2.440   0.144  0.00  0.00     0.018 A 
ATOM     28  C15 <0> d           2.722   1.421  -0.202  0.00  0.00     0.048 A 
ATOM     29  C17 <0> d           1.621   3.663  -0.186  0.00  0.00     0.012 A 
ATOM     30  C18 <0> d           0.472   4.420  -0.097  0.00  0.00     0.001 A 
ATOM     31  C19 <0> d          -0.766   3.813   0.064  0.00  0.00     0.001 A 
ENDBRANCH   2  20
TORSDOF 4
