REMARK  3 active torsions:
REMARK  status: ('A' for Active; 'I' for Inactive)
REMARK    1  A    between atoms: O1_2  and  C2_3 
REMARK    2  A    between atoms: C4_5  and  C9_12 
REMARK    3  A    between atoms: N3_21  and  C15_22 
ROOT
ATOM      1  C9  <0> d           2.401   0.387  -4.230  0.00  0.00     0.083 C 
ATOM      2  C10 <0> d           3.488   1.288  -3.638  0.00  0.00     0.118 C 
ATOM      3  C11 <0> d           2.894   2.449  -2.893  0.00  0.00     0.224 C 
ATOM      4  O4  <0> d           3.442   2.843  -1.886  0.00  0.00    -0.273 OA
ATOM      5  N1  <0> d           1.768   3.069  -3.311  0.00  0.00    -0.311 N 
ATOM      6  C12 <0> d           1.080   2.517  -4.392  0.00  0.00     0.141 A 
ATOM      7  C13 <0> d           1.344   1.261  -4.854  0.00  0.00     0.089 A 
ATOM      8  N2  <0> d           0.532   1.017  -5.881  0.00  0.00    -0.243 NA
ATOM      9  C14 <0> d          -0.230   2.061  -6.088  0.00  0.00     0.217 A 
ATOM     10  N3  <0> d           0.088   3.026  -5.170  0.00  0.00    -0.289 N 
ATOM     11  H11 <0> d           1.448   3.873  -2.872  0.00  0.00     0.170 HD
ENDROOT
BRANCH   1  12
ATOM     12  C4  <0> d           1.787  -0.452  -3.139  0.00  0.00    -0.042 A 
ATOM     13  C3  <0> d           1.173   0.161  -2.062  0.00  0.00     0.047 A 
ATOM     14  C2  <0> d           0.606  -0.608  -1.056  0.00  0.00     0.104 A 
ATOM     15  C7  <0> d           0.661  -1.994  -1.128  0.00  0.00     0.138 A 
ATOM     16  C6  <0> d           1.275  -2.607  -2.216  0.00  0.00     0.108 A 
ATOM     17  O2  <0> d           0.195  -2.963  -0.286  0.00  0.00    -0.320 OA
ATOM     18  C5  <0> d           1.839  -1.831  -3.217  0.00  0.00     0.047 A 
ATOM     19  O3  <0> d           1.194  -3.960  -2.058  0.00  0.00    -0.323 OA
ATOM     20  C8  <0> d           0.176  -4.173  -1.067  0.00  0.00     0.352 C 
BRANCH  14  21
ATOM     21  O1  <0> d           0.002  -0.004   0.002  0.00  0.00    -0.353 OA
ATOM     22  C1  <0> d          -0.017   1.425   0.010  0.00  0.00     0.210 C 
ENDBRANCH  14  21
ENDBRANCH   1  12
BRANCH  10  23
ATOM     23  C15 <0> d          -0.498   4.295  -5.054  0.00  0.00     0.059 A 
ATOM     24  C19 <0> d          -0.957   4.749  -3.825  0.00  0.00     0.146 A 
ATOM     25  N4  <0> d          -1.503   5.944  -3.711  0.00  0.00    -0.271 NA
ATOM     26  C18 <0> d          -1.645   6.745  -4.749  0.00  0.00     0.116 A 
ATOM     27  C17 <0> d          -1.216   6.361  -6.006  0.00  0.00     0.021 A 
ATOM     28  C16 <0> d          -0.631   5.116  -6.170  0.00  0.00     0.033 A 
ENDBRANCH  10  23
TORSDOF 3
