REMARK  6 active torsions:
REMARK  status: ('A' for Active; 'I' for Inactive)
REMARK    1  A    between atoms: C7_7  and  C12_15 
REMARK    2  A    between atoms: C12_15  and  C13_16 
REMARK    3  A    between atoms: C12_15  and  N6_25 
REMARK    4  A    between atoms: N5_20  and  C14_21 
REMARK    5  A    between atoms: C14_21  and  C15_22 
REMARK    6  A    between atoms: C15_22  and  O2_23 
ROOT
ATOM      1  C12 <0> d          -2.518   4.282   0.048  0.00  0.00     0.334 C 
ENDROOT
BRANCH   1   2
ATOM      2  C7  <0> d          -1.237   3.490   0.032  0.00  0.00     0.051 A 
ATOM      3  C6  <0> d          -1.280   2.135   0.032  0.00  0.00     0.029 A 
ATOM      4  C5  <0> d          -0.017   1.395   0.010  0.00  0.00    -0.008 A 
ATOM      5  C4  <0> d           0.002  -0.004   0.002  0.00  0.00     0.014 A 
ATOM      6  C9  <0> d           1.194   2.112   0.002  0.00  0.00     0.051 A 
ATOM      7  C3  <0> d           1.197  -0.665  -0.013  0.00  0.00     0.008 A 
ATOM      8  C2  <0> d           2.394   0.039  -0.020  0.00  0.00    -0.054 A 
ATOM      9  C1  <0> d           3.701  -0.711  -0.036  0.00  0.00     0.049 C 
ATOM     10  C10 <0> d           2.399   1.417  -0.012  0.00  0.00    -0.028 A 
ATOM     11  C11 <0> d           3.706   2.169  -0.020  0.00  0.00     0.051 C 
ATOM     12  N1  <0> d           1.170   3.490   0.009  0.00  0.00    -0.322 N 
ATOM     13  C8  <0> d           0.005   4.161   0.023  0.00  0.00     0.254 A 
ATOM     14  H1  <0> d           2.122   4.041   0.003  0.00  0.00     0.169 HD
ATOM     15  O1  <0> d           0.021   5.380   0.030  0.00  0.00    -0.268 OA
ENDBRANCH   1   2
BRANCH   1  16
ATOM     16  C13 <0> d          -2.642   5.064  -1.234  0.00  0.00     0.186 A 
ATOM     17  N5  <0> d          -3.454   4.784  -2.271  0.00  0.00    -0.230 N 
ATOM     18  N4  <0> d          -3.256   5.694  -3.164  0.00  0.00    -0.044 NA
ATOM     19  N3  <0> d          -2.367   6.516  -2.729  0.00  0.00    -0.023 NA
ATOM     20  N2  <0> d          -1.985   6.152  -1.554  0.00  0.00    -0.111 NA
BRANCH  17  21
ATOM     21  C14 <0> d          -4.386   3.658  -2.367  0.00  0.00     0.180 C 
BRANCH  21  22
ATOM     22  C15 <0> d          -5.747   4.074  -1.807  0.00  0.00     0.189 C 
BRANCH  22  23
ATOM     23  O2  <0> d          -6.657   2.975  -1.901  0.00  0.00    -0.394 OA
ATOM     24  C16 <0> d          -7.965   3.260  -1.402  0.00  0.00     0.201 C 
ENDBRANCH  22  23
ENDBRANCH  21  22
ENDBRANCH  17  21
ENDBRANCH   1  16
BRANCH   1  25
ATOM     25  N6  <0> d          -2.506   5.209   1.188  0.00  0.00     0.108 N 
ATOM     26  C20 <0> d          -3.744   6.000   1.236  0.00  0.00     0.301 C 
ATOM     27  C19 <0> d          -3.659   7.007   2.386  0.00  0.00     0.264 C 
ATOM     28  N7  <0> d          -3.448   6.286   3.649  0.00  0.00    -0.072 N 
ATOM     29  C18 <0> d          -2.211   5.495   3.601  0.00  0.00     0.264 C 
ATOM     30  C21 <0> d          -3.436   7.213   4.789  0.00  0.00     0.269 C 
ATOM     31  H30 <0> d          -4.290   5.592   3.789  0.00  0.00     0.279 HD
ATOM     32  C17 <0> d          -2.296   4.489   2.451  0.00  0.00     0.301 C 
ENDBRANCH   1  25
TORSDOF 6
