REMARK  3 active torsions:
REMARK  status: ('A' for Active; 'I' for Inactive)
REMARK    1  A    between atoms: C7_8  and  N4_18 
REMARK    2  A    between atoms: N2_9  and  C8_10 
REMARK    3  A    between atoms: N3_13  and  C12_15 
ROOT
ATOM      1  C1  <0> d          -0.017   1.393   0.010  0.00  0.00     0.038 A 
ATOM      2  C2  <0> d           1.168   2.094   0.002  0.00  0.00     0.048 A 
ATOM      3  C3  <0> d           2.384   1.424  -0.013  0.00  0.00     0.157 A 
ATOM      4  C4  <0> d           2.419   0.041  -0.021  0.00  0.00     0.184 A 
ATOM      5  C5  <0> d           1.233  -0.680  -0.013  0.00  0.00     0.123 A 
ATOM      6  C6  <0> d           0.002  -0.004   0.002  0.00  0.00     0.106 A 
ATOM      7  N1  <0> d          -0.974  -0.951   0.006  0.00  0.00    -0.063 NA
ATOM      8  C7  <0> d          -0.431  -2.142  -0.005  0.00  0.00     0.702 A 
ATOM      9  N2  <0> d           0.930  -2.033  -0.018  0.00  0.00    -0.170 N 
ATOM     10  F1  <0> d           3.605  -0.607  -0.036  0.00  0.00    -0.200 F 
ATOM     11  F2  <0> d           3.538   2.126  -0.021  0.00  0.00    -0.203 F 
ENDROOT
BRANCH   9  12
ATOM     12  C8  <0> d           1.891  -3.138  -0.034  0.00  0.00     0.136 C 
ATOM     13  C11 <0> d           1.686  -4.042   1.196  0.00  0.00     0.261 C 
ATOM     14  N3  <0> d           1.306  -5.381   0.689  0.00  0.00    -0.065 N 
ATOM     15  C10 <0> d           1.872  -5.471  -0.681  0.00  0.00     0.237 C 
ATOM     16  H17 <0> d           0.302  -5.470   0.656  0.00  0.00     0.280 HD
ATOM     17  C9  <0> d           1.638  -4.051  -1.256  0.00  0.00     0.055 C 
BRANCH  14  18
ATOM     18  C12 <0> d           1.882  -6.427   1.544  0.00  0.00     0.188 A 
ATOM     19  C14 <0> d           1.437  -6.467   3.008  0.00  0.00     0.035 A 
ATOM     20  C13 <0> d           0.946  -7.537   2.030  0.00  0.00     0.035 A 
ENDBRANCH  14  18
ENDBRANCH   9  12
BRANCH   8  21
ATOM     21  N4  <0> d          -1.130  -3.332  -0.005  0.00  0.00    -0.233 N 
ATOM     22  H15 <0> d          -2.100  -3.324   0.004  0.00  0.00     0.174 HD
ATOM     23  H16 <0> d          -0.652  -4.176  -0.014  0.00  0.00     0.174 HD
ENDBRANCH   8  21
TORSDOF 3
