REMARK  4 active torsions:
REMARK  status: ('A' for Active; 'I' for Inactive)
REMARK    1  A    between atoms: C7_8  and  N3_10 
REMARK    2  A    between atoms: C10_13  and  O1_16 
REMARK    3  A    between atoms: C13_17  and  N4_27 
REMARK    4  A    between atoms: C15_19  and  N4_27 
ROOT
ATOM      1  C1  <0> d           7.964   6.030   4.667  0.00  0.00     0.015 C 
ATOM      2  C2  <0> d           8.667   4.804   4.080  0.00  0.00    -0.040 C 
ATOM      3  C3  <0> d           7.652   3.683   3.865  0.00  0.00     0.069 C 
ATOM      4  C4  <0> d           6.694   4.045   2.763  0.00  0.00     0.048 A 
ATOM      5  C5  <0> d           6.960   5.039   1.846  0.00  0.00     0.015 A 
ATOM      6  C6  <0> d           6.020   5.299   0.855  0.00  0.00     0.131 A 
ATOM      7  N1  <0> d           4.905   4.590   0.817  0.00  0.00    -0.230 NA
ATOM      8  C7  <0> d           4.676   3.646   1.718  0.00  0.00     0.204 A 
ATOM      9  N2  <0> d           5.552   3.373   2.671  0.00  0.00    -0.222 NA
ATOM     10  C13 <0> d           8.221   5.857   1.875  0.00  0.00     0.223 C 
ATOM     11  C14 <0> d           9.287   5.166   2.725  0.00  0.00     0.047 C 
ATOM     12  C21 <0> d           9.761   4.331   5.040  0.00  0.00     0.015 C 
ENDROOT
BRANCH  10  13
ATOM     13  N4  <0> d           8.721   6.011   0.496  0.00  0.00    -0.062 N 
ATOM     14  H34 <0> d           7.925   6.053  -0.151  0.00  0.00     0.278 HD
ATOM     15  H35 <0> d           9.312   5.205   0.258  0.00  0.00     0.278 HD
BRANCH  13  16
ATOM     16  C15 <0> d           9.514   7.249   0.373  0.00  0.00     0.186 C 
ATOM     17  C20 <0> d          10.528   7.086  -0.760  0.00  0.00     0.033 C 
ATOM     18  C19 <0> d          11.352   8.368  -0.896  0.00  0.00     0.002 C 
ATOM     19  C18 <0> d          10.421   9.541  -1.211  0.00  0.00     0.000 C 
ATOM     20  C17 <0> d           9.406   9.704  -0.077  0.00  0.00     0.002 C 
ATOM     21  C16 <0> d           8.583   8.422   0.059  0.00  0.00     0.033 C 
ENDBRANCH  13  16
ENDBRANCH  10  13
BRANCH   8  22
ATOM     22  N3  <0> d           3.496   2.925   1.657  0.00  0.00    -0.251 NA
ATOM     23  C12 <0> d           3.763   1.484   1.575  0.00  0.00     0.101 C 
ATOM     24  C11 <0> d           2.444   0.712   1.655  0.00  0.00     0.046 C 
ATOM     25  C10 <0> d           1.532   1.148   0.505  0.00  0.00     0.120 C 
ATOM     26  C9  <0> d           1.309   2.661   0.586  0.00  0.00     0.046 C 
ATOM     27  C8  <0> d           2.662   3.375   0.535  0.00  0.00     0.101 C 
BRANCH  25  28
ATOM     28  O1  <0> d           0.277   0.474   0.609  0.00  0.00    -0.395 OA
ATOM     29  H17 <0> d           0.344  -0.490   0.567  0.00  0.00     0.210 HD
ENDBRANCH  25  28
ENDBRANCH   8  22
TORSDOF 4
