REMARK  5 active torsions:
REMARK  status: ('A' for Active; 'I' for Inactive)
REMARK    1  A    between atoms: N1_5  and  C5_7 
REMARK    2  A    between atoms: C5_7  and  C6_8 
REMARK    3  A    between atoms: C6_8  and  N3_9 
REMARK       I    between atoms: N3_9  and  C7_10 
REMARK    4  A    between atoms: C7_10  and  C8_12 
REMARK       I    between atoms: N4_14  and  C16_22 
REMARK    5  A    between atoms: C16_22  and  C17_24 
ROOT
ATOM      1  C8  <0> d           2.723  -6.622   3.912  0.00  0.00     0.106 C 
ATOM      2  C9  <0> d           2.181  -6.277   5.318  0.00  0.00     0.141 C 
ATOM      3  N4  <0> d           3.020  -7.069   6.247  0.00  0.00    -0.346 N 
ATOM      4  C10 <0> d           4.385  -6.986   5.673  0.00  0.00     0.136 C 
ATOM      5  C11 <0> d           4.169  -7.086   4.150  0.00  0.00    -0.007 C 
ATOM      6  C12 <0> d           5.145  -6.170   3.418  0.00  0.00     0.039 C 
ATOM      7  C13 <0> d           6.573  -6.686   3.621  0.00  0.00     0.233 C 
ATOM      8  N5  <0> d           6.678  -8.056   3.107  0.00  0.00    -0.075 N 
ATOM      9  C14 <0> d           5.804  -8.949   3.878  0.00  0.00     0.233 C 
ATOM     10  C15 <0> d           4.344  -8.529   3.686  0.00  0.00     0.039 C 
ATOM     11  C16 <0> d           2.631  -7.717   7.363  0.00  0.00     0.258 C 
ATOM     12  O2  <0> d           3.447  -8.328   8.027  0.00  0.00    -0.267 OA
ATOM     13  H19 <0> d           6.400  -8.072   2.136  0.00  0.00     0.277 HD
ATOM     14  H33 <0> d           7.633  -8.372   3.186  0.00  0.00     0.277 HD
ENDROOT
BRANCH   1  15
ATOM     15  C7  <0> d           2.701  -5.402   3.028  0.00  0.00     0.224 C 
ATOM     16  N3  <0> d           2.565  -5.540   1.694  0.00  0.00    -0.359 N 
ATOM     17  H10 <0> d           2.481  -6.424   1.303  0.00  0.00     0.162 HD
ATOM     18  O1  <0> d           2.807  -4.297   3.516  0.00  0.00    -0.273 OA
BRANCH  16  19
ATOM     19  C6  <0> d           2.545  -4.354   0.834  0.00  0.00     0.144 C 
BRANCH  19  20
ATOM     20  C5  <0> d           2.381  -4.785  -0.625  0.00  0.00     0.170 C 
BRANCH  20  21
ATOM     21  N1  <0> d           2.361  -3.599  -1.485  0.00  0.00    -0.273 N 
ATOM     22  C4  <0> d           3.434  -3.014  -2.056  0.00  0.00     0.028 A 
ATOM     23  C3  <0> d           2.994  -1.952  -2.770  0.00  0.00     0.055 A 
ATOM     24  C22 <0> d           4.867  -3.463  -1.923  0.00  0.00     0.070 C 
ATOM     25  C2  <0> d           1.604  -1.886  -2.630  0.00  0.00     0.053 A 
ATOM     26  C1  <0> d           0.701  -0.856  -3.258  0.00  0.00     0.072 C 
ATOM     27  N2  <0> d           1.224  -2.870  -1.856  0.00  0.00    -0.177 NA
ENDBRANCH  20  21
ENDBRANCH  19  20
ENDBRANCH  16  19
ENDBRANCH   1  15
BRANCH  11  28
ATOM     28  C17 <0> d           1.218  -7.686   7.779  0.00  0.00     0.089 A 
ATOM     29  C19 <0> d           0.631  -6.766   8.600  0.00  0.00     0.092 A 
ATOM     30  O3  <0> d          -0.660  -7.087   8.725  0.00  0.00    -0.217 OA
ATOM     31  C20 <0> d           1.318  -5.593   9.250  0.00  0.00     0.080 C 
ATOM     32  N6  <0> d          -0.926  -8.254   7.973  0.00  0.00    -0.132 NA
ATOM     33  C18 <0> d           0.174  -8.638   7.395  0.00  0.00     0.076 A 
ATOM     34  C21 <0> d           0.342  -9.837   6.498  0.00  0.00     0.074 C 
ENDBRANCH  11  28
TORSDOF 5
