REMARK  7 active torsions:
REMARK  status: ('A' for Active; 'I' for Inactive)
REMARK    1  A    between atoms: C5_5  and  N2_8 
REMARK    2  A    between atoms: C6_6  and  N1_7 
REMARK       I    between atoms: N2_8  and  C7_9 
REMARK    3  A    between atoms: C7_9  and  C8_11 
REMARK    4  A    between atoms: C8_11  and  N3_12 
REMARK    5  A    between atoms: N3_12  and  C9_13 
REMARK    6  A    between atoms: N3_12  and  C12_17 
REMARK    7  A    between atoms: C9_13  and  C10_14 
ROOT
ATOM      1  C10 <0> d           3.767  -6.450  -1.427  0.00  0.00     0.151 C 
ATOM      2  C11 <0> d           3.727  -7.906  -1.637  0.00  0.00     0.060 C 
ATOM      3  N4  <0> d           3.696  -9.030  -1.799  0.00  0.00    -0.197 NA
ENDROOT
BRANCH   1   4
ATOM      4  C9  <0> d           3.909  -6.154   0.068  0.00  0.00     0.250 C 
BRANCH   4   5
ATOM      5  N3  <0> d           3.835  -4.703   0.288  0.00  0.00    -0.058 N 
ATOM      6  H17 <0> d           4.516  -4.240  -0.294  0.00  0.00     0.281 HD
BRANCH   5   7
ATOM      7  C8  <0> d           2.490  -4.223  -0.054  0.00  0.00     0.338 C 
BRANCH   7   8
ATOM      8  C7  <0> d           2.449  -2.721   0.054  0.00  0.00     0.248 C 
ATOM      9  N2  <0> d           1.308  -2.056  -0.215  0.00  0.00    -0.322 N 
ATOM     10  H5  <0> d           0.500  -2.547  -0.430  0.00  0.00     0.169 HD
ATOM     11  O1  <0> d           3.444  -2.110   0.385  0.00  0.00    -0.271 OA
BRANCH   9  12
ATOM     12  C5  <0> d           1.290  -0.654  -0.186  0.00  0.00     0.083 A 
ATOM     13  C4  <0> d           2.337   0.067  -0.742  0.00  0.00     0.064 A 
ATOM     14  C3  <0> d           2.317   1.450  -0.712  0.00  0.00     0.050 A 
ATOM     15 Cl1  <0> d           3.672  -0.766  -1.474  0.00  0.00    -0.082 Cl
ATOM     16  C2  <0> d           1.254   2.118  -0.130  0.00  0.00     0.037 A 
ATOM     17  C1  <0> d           0.206   1.406   0.426  0.00  0.00     0.055 A 
ATOM     18 Cl2  <0> d           1.236   3.853  -0.097  0.00  0.00    -0.084 Cl
ATOM     19  C6  <0> d           0.219   0.019   0.401  0.00  0.00     0.056 A 
BRANCH  19  20
ATOM     20  N1  <0> d          -0.840  -0.702   0.963  0.00  0.00    -0.397 N 
ATOM     21  H3  <0> d          -1.584  -0.233   1.371  0.00  0.00     0.156 HD
ATOM     22  H4  <0> d          -0.829  -1.672   0.945  0.00  0.00     0.156 HD
ENDBRANCH  19  20
ENDBRANCH   9  12
ENDBRANCH   7   8
ENDBRANCH   5   7
BRANCH   5  23
ATOM     23  C12 <0> d           4.116  -4.408   1.700  0.00  0.00     0.189 A 
ATOM     24  C14 <0> d           5.426  -4.937   2.285  0.00  0.00     0.035 A 
ATOM     25  C13 <0> d           5.262  -3.442   2.005  0.00  0.00     0.035 A 
ENDBRANCH   5  23
ENDBRANCH   4   5
ENDBRANCH   1   4
TORSDOF 7
