REMARK  4 active torsions:
REMARK  status: ('A' for Active; 'I' for Inactive)
REMARK    1  A    between atoms: C6_7  and  C12_14 
REMARK    2  A    between atoms: C13_15  and  O2_29 
REMARK    3  A    between atoms: C14_17  and  S1_28 
REMARK    4  A    between atoms: N4_18  and  C16_21 
ROOT
ATOM      1  C12 <0> d           3.425  -2.225   2.342  0.00  0.00     0.172 C 
ATOM      2  C13 <0> d           3.948  -3.107   3.479  0.00  0.00     0.373 C 
ATOM      3  N3  <0> d           3.451  -2.565   4.754  0.00  0.00     0.146 N 
ATOM      4  C14 <0> d           2.000  -2.755   4.862  0.00  0.00     0.393 C 
ATOM      5  N4  <0> d           1.325  -2.231   3.680  0.00  0.00    -0.275 N 
ATOM      6  C15 <0> d           1.949  -1.999   2.521  0.00  0.00     0.237 C 
ATOM      7  O1  <0> d           1.301  -1.592   1.579  0.00  0.00    -0.272 OA
ATOM      8  H15 <0> d           3.930  -2.985   5.537  0.00  0.00     0.323 HD
ENDROOT
BRANCH   1   9
ATOM      9  C6  <0> d           3.676  -2.919   1.001  0.00  0.00     0.264 C 
ATOM     10  C5  <0> d           5.182  -2.998   0.736  0.00  0.00     0.146 C 
ATOM     11  N1  <0> d           5.930  -3.498   1.885  0.00  0.00    -0.379 N 
ATOM     12  C9  <0> d           5.676  -1.576   0.523  0.00  0.00    -0.041 C 
ATOM     13  C4  <0> d           6.854  -2.615   2.196  0.00  0.00     0.039 A 
ATOM     14  H22 <0> d           5.772  -4.338   2.342  0.00  0.00     0.160 HD
ATOM     15  C3  <0> d           7.887  -2.634   3.171  0.00  0.00     0.030 A 
ATOM     16  C10 <0> d           6.705  -1.398   1.360  0.00  0.00    -0.005 A 
ATOM     17  C2  <0> d           8.709  -1.573   3.318  0.00  0.00     0.002 A 
ATOM     18  C1  <0> d           8.596  -0.416   2.536  0.00  0.00     0.001 A 
ATOM     19  C11 <0> d           7.645  -0.291   1.583  0.00  0.00     0.014 A 
ATOM     20  C8  <0> d           4.959  -0.611  -0.395  0.00  0.00     0.067 C 
ATOM     21  C7  <0> d           3.455  -0.733  -0.088  0.00  0.00     0.274 C 
ATOM     22  N2  <0> d           3.055  -2.143  -0.084  0.00  0.00     0.091 N 
ATOM     23  H9  <0> d           3.230  -2.571  -0.980  0.00  0.00     0.316 HD
ENDBRANCH   1   9
BRANCH   2  24
ATOM     24  O2  <0> d           3.476  -4.445   3.305  0.00  0.00    -0.367 OA
ATOM     25  H21 <0> d           3.771  -5.058   3.992  0.00  0.00     0.212 HD
ENDBRANCH   2  24
BRANCH   5  26
ATOM     26  C16 <0> d          -0.046  -1.956   3.764  0.00  0.00     0.078 A 
ATOM     27  C21 <0> d          -0.975  -2.942   3.449  0.00  0.00     0.143 A 
ATOM     28  C20 <0> d          -2.328  -2.669   3.539  0.00  0.00     0.044 A 
ATOM     29  F1  <0> d          -0.556  -4.167   3.061  0.00  0.00    -0.204 F 
ATOM     30  C19 <0> d          -2.756  -1.414   3.930  0.00  0.00     0.003 A 
ATOM     31  C18 <0> d          -1.834  -0.430   4.239  0.00  0.00     0.002 A 
ATOM     32  C17 <0> d          -0.481  -0.698   4.157  0.00  0.00     0.033 A 
ENDBRANCH   5  26
BRANCH   4  33
ATOM     33  S1  <0> d           1.639  -4.526   5.019  0.00  0.00    -0.126 SA
ATOM     34  H20 <0> d           2.285  -4.891   6.141  0.00  0.00     0.105 HD
ENDBRANCH   4  33
TORSDOF 4
