REMARK  6 active torsions:
REMARK  status: ('A' for Active; 'I' for Inactive)
REMARK    1  A    between atoms: C2_2  and  C3_3 
REMARK    2  A    between atoms: C3_3  and  C18_23 
REMARK    3  A    between atoms: C6_6  and  C7_8 
REMARK    4  A    between atoms: C10_11  and  N2_14 
REMARK    5  A    between atoms: C18_23  and  O4_25 
REMARK    6  A    between atoms: O4_25  and  C19_26 
ROOT
ATOM      1  C3  <0> d           0.724  -0.425  -1.291  0.00  0.00     0.225 C 
ATOM      2  C4  <0> d           0.670  -1.947  -1.372  0.00  0.00     0.140 C 
ATOM      3  C5  <0> d          -0.842  -2.067  -1.800  0.00  0.00     0.129 C 
ATOM      4  C6  <0> d          -0.964  -1.100  -2.899  0.00  0.00     0.234 C 
ATOM      5  N1  <0> d          -0.010   0.007  -2.525  0.00  0.00    -0.047 N 
ATOM      6  C15 <0> d          -1.128  -3.450  -1.507  0.00  0.00     0.233 C 
ATOM      7  O1  <0> d          -1.877  -4.192  -2.105  0.00  0.00    -0.272 OA
ATOM      8  N3  <0> d          -0.367  -3.743  -0.403  0.00  0.00    -0.292 N 
ATOM      9  C16 <0> d           0.588  -2.784  -0.135  0.00  0.00     0.234 C 
ATOM     10  O2  <0> d           1.226  -2.641   0.886  0.00  0.00    -0.272 OA
ATOM     11  C17 <0> d          -0.540  -4.954   0.404  0.00  0.00     0.162 C 
ATOM     12  H9  <0> d          -0.519   0.859  -2.340  0.00  0.00     0.279 HD
ATOM     13  H28 <0> d           0.644   0.154  -3.278  0.00  0.00     0.279 HD
ENDROOT
BRANCH   4  14
ATOM     14  C7  <0> d          -0.576  -1.740  -4.207  0.00  0.00    -0.027 A 
ATOM     15  C12 <0> d          -1.557  -2.187  -5.074  0.00  0.00     0.011 A 
ATOM     16  C11 <0> d          -1.206  -2.769  -6.276  0.00  0.00     0.030 A 
ATOM     17  C10 <0> d           0.135  -2.916  -6.609  0.00  0.00     0.029 A 
ATOM     18  C9  <0> d           1.117  -2.471  -5.734  0.00  0.00     0.030 A 
ATOM     19  C8  <0> d           0.759  -1.885  -4.536  0.00  0.00     0.011 A 
BRANCH  17  20
ATOM     20  N2  <0> d           0.493  -3.509  -7.822  0.00  0.00    -0.390 N 
ATOM     21  C13 <0> d           1.903  -3.772  -8.120  0.00  0.00     0.149 C 
ATOM     22  C14 <0> d          -0.540  -3.867  -8.796  0.00  0.00     0.149 C 
ENDBRANCH  17  20
ENDBRANCH   4  14
BRANCH   1  23
ATOM     23  C2  <0> d           0.010   0.075  -0.033  0.00  0.00     0.046 C 
ATOM     24  C1  <0> d          -0.046   1.604  -0.053  0.00  0.00     0.008 C 
ENDBRANCH   1  23
BRANCH   1  25
ATOM     25  C18 <0> d           2.150   0.063  -1.321  0.00  0.00     0.296 C 
ATOM     26  O3  <0> d           3.039  -0.645  -0.911  0.00  0.00    -0.262 OA
BRANCH  25  27
ATOM     27  O4  <0> d           2.431   1.284  -1.803  0.00  0.00    -0.320 OA
BRANCH  27  28
ATOM     28  C19 <0> d           3.804   1.681  -1.801  0.00  0.00     0.174 C 
ATOM     29  C20 <0> d           3.927   3.091  -2.382  0.00  0.00     0.034 C 
ENDBRANCH  27  28
ENDBRANCH  25  27
ENDBRANCH   1  25
TORSDOF 6
