REMARK  4 active torsions:
REMARK  status: ('A' for Active; 'I' for Inactive)
REMARK    1  A    between atoms: C7_9  and  C10_12 
REMARK       I    between atoms: C10_12  and  N2_14 
REMARK    2  A    between atoms: N2_14  and  C11_15 
REMARK    3  A    between atoms: C14_18  and  C17_21 
REMARK    4  A    between atoms: C17_21  and  N3_22 
REMARK       I    between atoms: N3_22  and  C18_23 
REMARK       I    between atoms: C18_23  and  N4_25 
ROOT
ATOM      1  C10 <0> d           0.071  -1.528   4.877  0.00  0.00     0.256 C 
ATOM      2  O1  <0> d           0.069  -0.396   5.320  0.00  0.00    -0.267 OA
ATOM      3  N2  <0> d           0.092  -2.581   5.717  0.00  0.00    -0.323 N 
ATOM      4  H8  <0> d           0.026  -3.483   5.367  0.00  0.00     0.169 HD
ENDROOT
BRANCH   3   5
ATOM      5  C11 <0> d           0.208  -2.373   7.096  0.00  0.00     0.035 A 
ATOM      6  C16 <0> d          -0.392  -1.269   7.686  0.00  0.00     0.030 A 
ATOM      7  C15 <0> d          -0.281  -1.070   9.048  0.00  0.00     0.011 A 
ATOM      8  C14 <0> d           0.438  -1.963   9.822  0.00  0.00    -0.040 A 
ATOM      9  C13 <0> d           1.042  -3.060   9.236  0.00  0.00     0.011 A 
ATOM     10  C12 <0> d           0.929  -3.268   7.876  0.00  0.00     0.030 A 
BRANCH   8  11
ATOM     11  C17 <0> d           0.562  -1.739  11.307  0.00  0.00     0.162 C 
BRANCH  11  12
ATOM     12  N3  <0> d           1.749  -0.925  11.580  0.00  0.00    -0.339 N 
ATOM     13  C18 <0> d           2.063  -0.596  12.849  0.00  0.00     0.314 C 
ATOM     14  O2  <0> d           1.362  -0.975  13.767  0.00  0.00    -0.248 OA
ATOM     15  N4  <0> d           3.155   0.154  13.101  0.00  0.00    -0.352 N 
ATOM     16  H16 <0> d           3.715   0.456  12.368  0.00  0.00     0.160 HD
ATOM     17  H17 <0> d           3.381   0.390  14.014  0.00  0.00     0.160 HD
ATOM     18  H15 <0> d           2.309  -0.622  10.848  0.00  0.00     0.164 HD
ENDBRANCH  11  12
ENDBRANCH   8  11
ENDBRANCH   3   5
BRANCH   1  19
ATOM     19  C7  <0> d           0.052  -1.749   3.417  0.00  0.00     0.033 A 
ATOM     20  C6  <0> d           0.031  -0.661   2.549  0.00  0.00     0.031 A 
ATOM     21  C5  <0> d           0.013  -0.884   1.175  0.00  0.00    -0.001 A 
ATOM     22  C2  <0> d          -0.010  -0.005   0.002  0.00  0.00    -0.027 A 
ATOM     23  C4  <0> d           0.013  -2.201   0.674  0.00  0.00     0.043 A 
ATOM     24  C1  <0> d          -0.022   1.502   0.010  0.00  0.00     0.051 C 
ATOM     25  C3  <0> d          -0.014  -0.798  -1.081  0.00  0.00     0.012 A 
ATOM     26  N1  <0> d           0.000  -2.112  -0.697  0.00  0.00    -0.359 N 
ATOM     27  C19 <0> d          -0.030  -0.314  -2.507  0.00  0.00     0.068 C 
ATOM     28  H1  <0> d           0.001  -2.869  -1.304  0.00  0.00     0.166 HD
ATOM     29  C9  <0> d           0.029  -3.275   1.561  0.00  0.00     0.031 A 
ATOM     30  C8  <0> d           0.055  -3.055   2.906  0.00  0.00     0.019 A 
ENDBRANCH   1  19
TORSDOF 4
