REMARK  2 active torsions:
REMARK  status: ('A' for Active; 'I' for Inactive)
REMARK    1  A    between atoms: C8_9  and  C10_13 
REMARK       I    between atoms: C10_13  and  N1_15 
REMARK    2  A    between atoms: N1_15  and  C11_16 
ROOT
ATOM      1  C1  <0> d           1.166   2.095   0.002  0.00  0.00     0.022 A 
ATOM      2  C2  <0> d          -0.017   1.386   0.010  0.00  0.00     0.039 A 
ATOM      3  C3  <0> d           0.002  -0.004   0.002  0.00  0.00     0.089 A 
ATOM      4  C4  <0> d           1.237  -0.677  -0.013  0.00  0.00     0.000 A 
ATOM      5  C5  <0> d           2.432   0.058  -0.021  0.00  0.00     0.033 A 
ATOM      6  C6  <0> d           2.387   1.433  -0.013  0.00  0.00     0.011 A 
ATOM      7 Br1  <0> d           3.995   2.427  -0.023  0.00  0.00    -0.051 Br
ATOM      8  C7  <0> d           1.273  -2.095  -0.021  0.00  0.00     0.037 A 
ATOM      9  C8  <0> d           0.077  -2.791  -0.013  0.00  0.00     0.108 A 
ATOM     10  C9  <0> d          -1.181  -2.034   0.003  0.00  0.00     0.304 A 
ATOM     11  O1  <0> d          -2.244  -2.625   0.011  0.00  0.00    -0.259 OA
ATOM     12  O2  <0> d          -1.161  -0.691   0.010  0.00  0.00    -0.274 OA
ENDROOT
BRANCH   9  13
ATOM     13  C10 <0> d           0.066  -4.263  -0.021  0.00  0.00     0.263 C 
ATOM     14  O3  <0> d          -0.992  -4.863  -0.013  0.00  0.00    -0.267 OA
ATOM     15  N1  <0> d           1.228  -4.945  -0.036  0.00  0.00    -0.301 N 
ATOM     16  H5  <0> d           2.071  -4.467  -0.041  0.00  0.00     0.171 HD
BRANCH  15  17
ATOM     17  C11 <0> d           1.218  -6.334  -0.043  0.00  0.00     0.173 A 
ATOM     18  S1  <0> d           2.560  -7.435  -0.062  0.00  0.00    -0.062 SA
ATOM     19  C13 <0> d           1.617  -8.953  -0.061  0.00  0.00     0.072 A 
ATOM     20  C12 <0> d           0.353  -8.463  -0.046  0.00  0.00     0.126 A 
ATOM     21  N2  <0> d           0.185  -7.155  -0.031  0.00  0.00    -0.236 NA
ENDBRANCH  15  17
ENDBRANCH   9  13
TORSDOF 2
