REMARK  4 active torsions:
REMARK  status: ('A' for Active; 'I' for Inactive)
REMARK    1  A    between atoms: C5_5  and  C15_17 
REMARK    2  A    between atoms: C6_6  and  O1_8 
REMARK    3  A    between atoms: O1_8  and  C8_9 
REMARK    4  A    between atoms: C15_17  and  N1_18 
ROOT
ATOM      1  C1  <0> d           0.078   1.496   0.042  0.00  0.00     0.048 C 
ATOM      2  C2  <0> d           0.067  -0.011   0.025  0.00  0.00    -0.059 A 
ATOM      3  C3  <0> d          -0.056  -0.684  -1.179  0.00  0.00     0.008 A 
ATOM      4  C4  <0> d          -0.067  -2.062  -1.207  0.00  0.00     0.018 A 
ATOM      5  C5  <0> d           0.046  -2.784  -0.017  0.00  0.00     0.041 A 
ATOM      6  C6  <0> d           0.170  -2.099   1.199  0.00  0.00     0.090 A 
ATOM      7  C7  <0> d           0.185  -0.712   1.208  0.00  0.00     0.045 A 
ENDROOT
BRANCH   6   8
ATOM      8  O1  <0> d           0.280  -2.789   2.361  0.00  0.00    -0.310 OA
BRANCH   8   9
ATOM      9  C8  <0> d           0.286  -2.085   3.524  0.00  0.00     0.076 A 
ATOM     10  C13 <0> d           1.475  -1.887   4.210  0.00  0.00     0.045 A 
ATOM     11  C12 <0> d           1.479  -1.165   5.389  0.00  0.00    -0.038 A 
ATOM     12  C11 <0> d           0.297  -0.650   5.890  0.00  0.00     0.040 A 
ATOM     13  C14 <0> d           2.771  -0.945   6.132  0.00  0.00     0.050 C 
ATOM     14  C10 <0> d          -0.891  -0.852   5.209  0.00  0.00     0.027 A 
ATOM     15 Cl1  <0> d           0.304   0.250   7.374  0.00  0.00    -0.084 Cl
ATOM     16  C9  <0> d          -0.899  -1.567   4.028  0.00  0.00     0.039 A 
ENDBRANCH   8   9
ENDBRANCH   6   8
BRANCH   5  17
ATOM     17  C15 <0> d           0.034  -4.260  -0.040  0.00  0.00     0.105 C 
ATOM     18  N2  <0> d           0.918  -4.923  -0.785  0.00  0.00    -0.385 N 
ATOM     19  H14 <0> d           1.569  -4.435  -1.313  0.00  0.00     0.157 HD
ATOM     20  H15 <0> d           0.910  -5.892  -0.800  0.00  0.00     0.157 HD
BRANCH  17  21
ATOM     21  N1  <0> d          -0.861  -4.931   0.686  0.00  0.00    -0.385 N 
ATOM     22  H13 <0> d          -0.916  -5.896   0.616  0.00  0.00     0.157 HD
ATOM     23  H16 <0> d          -1.457  -4.452   1.283  0.00  0.00     0.157 HD
ENDBRANCH  17  21
ENDBRANCH   5  17
TORSDOF 4
