REMARK  4 active torsions:
REMARK  status: ('A' for Active; 'I' for Inactive)
REMARK    1  A    between atoms: C2_2  and  N1_3 
REMARK       I    between atoms: N1_3  and  C3_4 
REMARK    2  A    between atoms: C3_4  and  C4_6 
REMARK    3  A    between atoms: N4_19  and  C15_22 
REMARK    4  A    between atoms: C15_22  and  C16_23 
ROOT
ATOM      1  C4  <0> d           0.596  -2.132  -1.030  0.00  0.00     0.076 A 
ATOM      2  C5  <0> d           0.116  -2.848   0.058  0.00  0.00     0.042 A 
ATOM      3  C6  <0> d           0.151  -4.250   0.029  0.00  0.00     0.080 A 
ATOM      4  C7  <0> d           0.676  -4.936  -1.089  0.00  0.00     0.149 A 
ATOM      5  N2  <0> d           0.700  -6.263  -1.084  0.00  0.00    -0.212 NA
ATOM      6  C8  <0> d           0.239  -6.967  -0.050  0.00  0.00     0.139 A 
ATOM      7  C9  <0> d           0.291  -8.372  -0.105  0.00  0.00     0.051 A 
ATOM      8  C10 <0> d          -0.176  -9.104   0.946  0.00  0.00     0.005 A 
ATOM      9  C11 <0> d          -0.701  -8.447   2.067  0.00  0.00     0.018 A 
ATOM     10  C12 <0> d          -0.744  -7.096   2.103  0.00  0.00     0.102 A 
ATOM     11  N3  <0> d          -0.280  -6.356   1.057  0.00  0.00    -0.273 N 
ATOM     12  C13 <0> d          -0.337  -5.007   1.126  0.00  0.00     0.267 A 
ATOM     13  O2  <0> d          -0.797  -4.454   2.108  0.00  0.00    -0.267 OA
ATOM     14  N4  <0> d           1.159  -4.242  -2.171  0.00  0.00    -0.313 N 
ATOM     15  C14 <0> d           1.140  -2.864  -2.184  0.00  0.00     0.118 A 
ATOM     16  N5  <0> d           1.603  -2.210  -3.220  0.00  0.00    -0.384 N 
ATOM     17  H12 <0> d           2.009  -2.760  -4.081  0.00  0.00     0.157 HD
ATOM     18  H18 <0> d           1.585  -1.110  -3.228  0.00  0.00     0.157 HD
ENDROOT
BRANCH   1  19
ATOM     19  C3  <0> d           0.567  -0.665  -1.026  0.00  0.00     0.255 C 
ATOM     20  N1  <0> d          -0.031  -0.005  -0.015  0.00  0.00    -0.357 N 
ATOM     21  H6  <0> d          -0.498  -0.567   0.808  0.00  0.00     0.162 HD
ATOM     22  O1  <0> d           1.084  -0.043  -1.936  0.00  0.00    -0.268 OA
BRANCH  20  23
ATOM     23  C2  <0> d          -0.060   1.459  -0.011  0.00  0.00     0.118 C 
ATOM     24  C1  <0> d          -0.794   1.952   1.239  0.00  0.00     0.026 C 
ENDBRANCH  20  23
ENDBRANCH   1  19
BRANCH  14  25
ATOM     25  C15 <0> d           1.701  -4.972  -3.320  0.00  0.00     0.158 C 
BRANCH  25  26
ATOM     26  C16 <0> d           3.177  -5.198  -3.121  0.00  0.00    -0.017 C 
ATOM     27  C17 <0> d           3.668  -6.412  -3.180  0.00  0.00     0.008 C 
ENDBRANCH  25  26
ENDBRANCH  14  25
TORSDOF 4
