REMARK  4 active torsions:
REMARK  status: ('A' for Active; 'I' for Inactive)
REMARK    1  A    between atoms: C3_3  and  C7_8 
REMARK    2  A    between atoms: C7_8  and  N1_9 
REMARK       I    between atoms: N1_9  and  C8_10 
REMARK    3  A    between atoms: C8_10  and  C9_12 
REMARK    4  A    between atoms: C11_15  and  C12_17 
ROOT
ATOM      1  C9  <0> d          -4.478  -0.216   3.039  0.00  0.00     0.131 A 
ATOM      2  C10 <0> d          -5.630  -0.906   3.321  0.00  0.00     0.089 A 
ATOM      3  S1  <0> d          -5.615  -0.910   5.056  0.00  0.00    -0.084 SA
ATOM      4  C11 <0> d          -4.139  -0.032   5.294  0.00  0.00     0.080 A 
ATOM      5  N2  <0> d          -3.745   0.207   4.070  0.00  0.00    -0.240 NA
ENDROOT
BRANCH   1   6
ATOM      6  C8  <0> d          -4.063   0.042   1.650  0.00  0.00     0.271 C 
ATOM      7  N1  <0> d          -2.926   0.722   1.402  0.00  0.00    -0.351 N 
ATOM      8  H7  <0> d          -2.308   1.083   2.237  0.00  0.00     0.163 HD
ATOM      9  O1  <0> d          -4.747  -0.358   0.727  0.00  0.00    -0.266 OA
BRANCH   7  10
ATOM     10  C7  <0> d          -2.514   0.979   0.020  0.00  0.00     0.161 C 
BRANCH  10  11
ATOM     11  C3  <0> d          -1.219   1.750   0.017  0.00  0.00    -0.039 A 
ATOM     12  C2  <0> d          -0.013   1.076   0.008  0.00  0.00     0.009 A 
ATOM     13  C1  <0> d           1.175   1.783   0.000  0.00  0.00     0.002 A 
ATOM     14  C6  <0> d           1.157   3.165   0.007  0.00  0.00     0.019 A 
ATOM     15  C5  <0> d          -0.050   3.841   0.022  0.00  0.00     0.011 A 
ATOM     16  C4  <0> d          -1.238   3.133   0.030  0.00  0.00     0.027 A 
ATOM     17 Br1  <0> d          -0.076   5.731   0.030  0.00  0.00    -0.051 Br
ENDBRANCH  10  11
ENDBRANCH   7  10
ENDBRANCH   1   6
BRANCH   4  18
ATOM     18  C12 <0> d          -3.474   0.355   6.589  0.00  0.00     0.048 C 
ATOM     19  C16 <0> d          -4.420   1.238   7.407  0.00  0.00     0.039 C 
ATOM     20  C15 <0> d          -3.763   1.578   8.747  0.00  0.00     0.233 C 
ATOM     21  N3  <0> d          -3.467   0.338   9.477  0.00  0.00    -0.075 N 
ATOM     22  C14 <0> d          -2.523  -0.504   8.732  0.00  0.00     0.233 C 
ATOM     23  H14 <0> d          -4.408  -0.212   9.630  0.00  0.00     0.277 HD
ATOM     24  H19 <0> d          -3.034   0.600  10.453  0.00  0.00     0.277 HD
ATOM     25  C13 <0> d          -3.142  -0.906   7.391  0.00  0.00     0.039 C 
ENDBRANCH   4  18
TORSDOF 4
