REMARK  5 active torsions:
REMARK  status: ('A' for Active; 'I' for Inactive)
REMARK    1  A    between atoms: C2_2  and  O2_4 
REMARK    2  A    between atoms: O2_4  and  C3_5 
REMARK    3  A    between atoms: C6_8  and  O5_12 
REMARK    4  A    between atoms: O5_12  and  C8_13 
REMARK    5  A    between atoms: C10_17  and  N1_18 
ROOT
ATOM      1  C3  <0> d          -1.413  -1.529  -1.303  0.00  0.00     0.213 C 
ATOM      2  C4  <0> d          -2.693  -1.016  -1.991  0.00  0.00     0.198 C 
ATOM      3  C5  <0> d          -3.457  -0.301  -0.841  0.00  0.00     0.196 C 
ATOM      4  C6  <0> d          -4.063   0.917  -1.574  0.00  0.00     0.262 C 
ATOM      5  C7  <0> d          -3.295   1.010  -2.874  0.00  0.00     0.291 C 
ATOM      6  O3  <0> d          -3.501   1.822  -3.745  0.00  0.00    -0.262 OA
ATOM      7  O4  <0> d          -2.353   0.058  -2.914  0.00  0.00    -0.308 OA
ATOM      8  O7  <0> d          -2.439   0.160   0.059  0.00  0.00    -0.352 OA
ATOM      9  C10 <0> d          -1.331  -0.742   0.015  0.00  0.00     0.264 C 
ENDROOT
BRANCH   9  10
ATOM     10  N1  <0> d          -0.076   0.012   0.065  0.00  0.00    -0.280 N 
ATOM     11  C14 <0> d           0.846  -0.288   0.997  0.00  0.00     0.331 A 
ATOM     12  N2  <0> d           2.008   0.388   1.065  0.00  0.00    -0.275 N 
ATOM     13  O9  <0> d           0.625  -1.180   1.794  0.00  0.00    -0.246 OA
ATOM     14  C13 <0> d           2.267   1.384   0.193  0.00  0.00     0.250 A 
ATOM     15  H6  <0> d           2.682   0.151   1.765  0.00  0.00     0.173 HD
ATOM     16  C12 <0> d           1.305   1.710  -0.793  0.00  0.00     0.092 A 
ATOM     17  O8  <0> d           3.317   1.996   0.254  0.00  0.00    -0.268 OA
ATOM     18  C11 <0> d           0.148   1.015  -0.839  0.00  0.00     0.104 A 
ENDBRANCH   9  10
BRANCH   1  19
ATOM     19  O2  <0> d          -1.519  -2.953  -1.036  0.00  0.00    -0.309 OA
BRANCH  19  20
ATOM     20  C2  <0> d          -0.370  -3.639  -0.927  0.00  0.00     0.255 C 
ATOM     21  C1  <0> d          -0.401  -5.137  -0.762  0.00  0.00     0.126 C 
ATOM     22  O1  <0> d           0.688  -3.056  -0.962  0.00  0.00    -0.266 OA
ENDBRANCH  19  20
ENDBRANCH   1  19
BRANCH   4  23
ATOM     23  O5  <0> d          -5.475   0.698  -1.833  0.00  0.00    -0.303 OA
BRANCH  23  24
ATOM     24  C8  <0> d          -6.263   1.784  -1.872  0.00  0.00     0.255 C 
ATOM     25  O6  <0> d          -5.788   2.881  -1.694  0.00  0.00    -0.266 OA
ATOM     26  C9  <0> d          -7.739   1.636  -2.136  0.00  0.00     0.126 C 
ENDBRANCH  23  24
ENDBRANCH   4  23
TORSDOF 5
