REMARK  4 active torsions:
REMARK  status: ('A' for Active; 'I' for Inactive)
REMARK    1  A    between atoms: C3_3  and  C5_6 
REMARK    2  A    between atoms: C10_12  and  N2_22 
REMARK    3  A    between atoms: C11_13  and  C12_15 
REMARK    4  A    between atoms: C12_15  and  C13_17 
ROOT
ATOM      1  C5  <0> d          -1.310  -0.712  -0.079  0.00  0.00     0.021 A 
ATOM      2  C6  <0> d          -2.167  -0.742   1.021  0.00  0.00    -0.019 A 
ATOM      3  C7  <0> d          -3.260  -1.588   1.024  0.00  0.00     0.043 A 
ATOM      4  N1  <0> d          -3.500  -2.374  -0.014  0.00  0.00    -0.245 NA
ATOM      5  C8  <0> d          -2.726  -2.387  -1.076  0.00  0.00     0.112 A 
ATOM      6  C9  <0> d          -1.586  -1.562  -1.194  0.00  0.00     0.041 A 
ATOM      7  C10 <0> d          -0.848  -1.699  -2.436  0.00  0.00     0.061 A 
ATOM      8  C11 <0> d          -1.312  -2.596  -3.378  0.00  0.00     0.085 A 
ATOM      9  S1  <0> d          -2.757  -3.294  -2.603  0.00  0.00    -0.063 SA
ATOM     10  C17 <0> d          -4.024  -1.431   2.323  0.00  0.00     0.060 C 
ATOM     11  C18 <0> d          -3.044  -0.728   3.286  0.00  0.00     0.011 C 
ATOM     12  C19 <0> d          -2.122   0.042   2.316  0.00  0.00     0.042 C 
ENDROOT
BRANCH   8  13
ATOM     13  C12 <0> d          -0.764  -2.897  -4.650  0.00  0.00     0.208 C 
ATOM     14  O2  <0> d           0.247  -2.329  -5.028  0.00  0.00    -0.285 OA
BRANCH  13  15
ATOM     15  C13 <0> d          -1.414  -3.891  -5.512  0.00  0.00     0.056 A 
ATOM     16  S2  <0> d          -2.884  -4.855  -5.207  0.00  0.00    -0.098 SA
ATOM     17  C16 <0> d          -2.929  -5.740  -6.697  0.00  0.00     0.050 A 
ATOM     18  C15 <0> d          -1.840  -5.279  -7.365  0.00  0.00     0.009 A 
ATOM     19  C14 <0> d          -1.049  -4.322  -6.778  0.00  0.00     0.023 A 
ENDBRANCH  13  15
ENDBRANCH   8  13
BRANCH   7  20
ATOM     20  N2  <0> d           0.296  -0.948  -2.670  0.00  0.00    -0.397 N 
ATOM     21  H7  <0> d           0.934  -1.232  -3.343  0.00  0.00     0.156 HD
ATOM     22  H8  <0> d           0.457  -0.138  -2.161  0.00  0.00     0.156 HD
ENDBRANCH   7  20
BRANCH   1  23
ATOM     23  C3  <0> d          -0.143   0.186  -0.094  0.00  0.00     0.086 A 
ATOM     24  C2  <0> d           1.163  -0.197  -0.018  0.00  0.00     0.040 A 
ATOM     25  C1  <0> d           1.933   0.980  -0.068  0.00  0.00     0.027 A 
ATOM     26  C4  <0> d           1.073   2.013  -0.169  0.00  0.00     0.142 A 
ATOM     27  O1  <0> d          -0.180   1.531  -0.184  0.00  0.00    -0.322 OA
ENDBRANCH   1  23
TORSDOF 4
