REMARK  7 active torsions:
REMARK  status: ('A' for Active; 'I' for Inactive)
REMARK    1  A    between atoms: N1_4  and  C7_9 
REMARK    2  A    between atoms: C10_12  and  C12_15 
REMARK    3  A    between atoms: C12_15  and  N3_16 
REMARK       I    between atoms: N3_16  and  C13_17 
REMARK       I    between atoms: C13_17  and  N4_19 
REMARK    4  A    between atoms: N4_19  and  C14_20 
REMARK    5  A    between atoms: N6_23  and  C17_25 
REMARK    6  A    between atoms: C17_25  and  C18_26 
REMARK    7  A    between atoms: C18_26  and  O3_27 
ROOT
ATOM      1  C12 <0> d          -4.185  -5.503  -3.188  0.00  0.00     0.164 C 
ENDROOT
BRANCH   1   2
ATOM      2  C10 <0> d          -3.451  -4.533  -2.299  0.00  0.00    -0.025 A 
ATOM      3  C9  <0> d          -3.619  -3.164  -2.464  0.00  0.00     0.014 A 
ATOM      4  C8  <0> d          -2.927  -2.308  -1.627  0.00  0.00     0.049 A 
ATOM      5  C7  <0> d          -2.091  -2.844  -0.652  0.00  0.00     0.103 A 
ATOM      6  N2  <0> d          -1.953  -4.155  -0.530  0.00  0.00    -0.352 N 
ATOM      7  C11 <0> d          -2.604  -4.995  -1.311  0.00  0.00     0.098 A 
ATOM      8  H29 <0> d          -1.361  -4.507   0.154  0.00  0.00     0.166 HD
BRANCH   5   9
ATOM      9  N1  <0> d          -1.389  -1.995   0.196  0.00  0.00    -0.362 N 
ATOM     10  C3  <0> d          -0.596  -2.529   1.315  0.00  0.00     0.156 C 
ATOM     11  C2  <0> d          -0.987  -1.773   2.589  0.00  0.00     0.136 C 
ATOM     12  C1  <0> d          -0.045  -2.168   3.728  0.00  0.00     0.041 C 
ATOM     13  O1  <0> d          -0.886  -0.366   2.353  0.00  0.00    -0.378 OA
ATOM     14  C5  <0> d          -1.770   0.122   1.341  0.00  0.00     0.136 C 
ATOM     15  C4  <0> d          -1.418  -0.537   0.002  0.00  0.00     0.156 C 
ATOM     16  C6  <0> d          -3.214  -0.218   1.714  0.00  0.00     0.041 C 
ENDBRANCH   5   9
ENDBRANCH   1   2
BRANCH   1  17
ATOM     17  N3  <0> d          -3.369  -5.796  -4.369  0.00  0.00    -0.339 N 
ATOM     18  C13 <0> d          -3.827  -6.645  -5.310  0.00  0.00     0.321 C 
ATOM     19  O2  <0> d          -4.917  -7.168  -5.179  0.00  0.00    -0.247 OA
ATOM     20  N4  <0> d          -3.077  -6.914  -6.397  0.00  0.00    -0.306 N 
ATOM     21  H19 <0> d          -2.208  -6.497  -6.502  0.00  0.00     0.171 HD
ATOM     22  H18 <0> d          -2.500  -5.378  -4.474  0.00  0.00     0.164 HD
BRANCH  20  23
ATOM     23  C14 <0> d          -3.556  -7.801  -7.381  0.00  0.00     0.072 A 
ATOM     24  C16 <0> d          -2.907  -8.159  -8.518  0.00  0.00     0.143 A 
ATOM     25  N6  <0> d          -3.705  -9.030  -9.189  0.00  0.00    -0.277 N 
ATOM     26  N5  <0> d          -4.878  -9.201  -8.442  0.00  0.00    -0.183 NA
ATOM     27  C15 <0> d          -4.789  -8.468  -7.362  0.00  0.00     0.169 A 
BRANCH  25  28
ATOM     28  C17 <0> d          -3.397  -9.673 -10.469  0.00  0.00     0.176 C 
BRANCH  28  29
ATOM     29  C18 <0> d          -3.522 -11.190 -10.321  0.00  0.00     0.189 C 
BRANCH  29  30
ATOM     30  O3  <0> d          -3.221 -11.817 -11.570  0.00  0.00    -0.394 OA
ATOM     31  C19 <0> d          -3.310 -13.243 -11.541  0.00  0.00     0.201 C 
ENDBRANCH  29  30
ENDBRANCH  28  29
ENDBRANCH  25  28
ENDBRANCH  20  23
ENDBRANCH   1  17
TORSDOF 7
