REMARK  5 active torsions:
REMARK  status: ('A' for Active; 'I' for Inactive)
REMARK    1  A    between atoms: C7_7  and  N1_8 
REMARK    2  A    between atoms: C7_7  and  N4_29 
REMARK    3  A    between atoms: C14_15  and  C16_18 
REMARK    4  A    between atoms: C14_15  and  O3_25 
REMARK    5  A    between atoms: C18_22  and  N3_24 
ROOT
ATOM      1  N1  <0> d           3.375   3.478   1.868  0.00  0.00    -0.289 N 
ATOM      2  C8  <0> d           3.449   3.728   3.238  0.00  0.00     0.049 A 
ATOM      3  C9  <0> d           3.622   2.860   4.315  0.00  0.00     0.030 A 
ATOM      4  C10 <0> d           3.663   3.354   5.603  0.00  0.00     0.002 A 
ATOM      5  C11 <0> d           3.536   4.711   5.836  0.00  0.00     0.001 A 
ATOM      6  C12 <0> d           3.365   5.579   4.771  0.00  0.00     0.013 A 
ATOM      7  C13 <0> d           3.322   5.089   3.486  0.00  0.00     0.014 A 
ATOM      8  C14 <0> d           3.152   5.752   2.138  0.00  0.00     0.190 A 
ATOM      9  C15 <0> d           3.207   4.603   1.153  0.00  0.00     0.267 A 
ATOM     10  O1  <0> d           3.115   4.684  -0.053  0.00  0.00    -0.269 OA
ENDROOT
BRANCH   8  11
ATOM     11  C16 <0> d           4.296   6.733   1.875  0.00  0.00     0.198 A 
ATOM     12  S1  <0> d           4.254   8.144   3.051  0.00  0.00    -0.074 SA
ATOM     13  C18 <0> d           4.005   9.407   1.885  0.00  0.00     0.164 A 
ATOM     14  N2  <0> d           3.963   8.784   0.718  0.00  0.00    -0.189 NA
ATOM     15  C17 <0> d           4.090   7.491   0.569  0.00  0.00     0.263 A 
ATOM     16  O2  <0> d           4.049   6.942  -0.515  0.00  0.00    -0.270 OA
BRANCH  13  17
ATOM     17  N3  <0> d           3.882  10.745   2.120  0.00  0.00    -0.378 N 
ATOM     18  H20 <0> d           3.930  11.084   3.027  0.00  0.00     0.158 HD
ATOM     19  H21 <0> d           3.745  11.356   1.380  0.00  0.00     0.158 HD
ENDBRANCH  13  17
ENDBRANCH   8  11
BRANCH   8  20
ATOM     20  O3  <0> d           1.892   6.423   2.066  0.00  0.00    -0.374 OA
ATOM     21  H22 <0> d           1.130   5.842   2.196  0.00  0.00     0.211 HD
ENDBRANCH   8  20
BRANCH   1  22
ATOM     22  C7  <0> d           3.474   2.142   1.275  0.00  0.00     0.367 C 
BRANCH  22  23
ATOM     23  N4  <0> d           2.120   1.556   1.203  0.00  0.00    -0.055 N 
ATOM     24  C4  <0> d           1.419   2.052  -0.001  0.00  0.00     0.237 C 
ATOM     25  C3  <0> d          -0.019   1.527   0.010  0.00  0.00     0.032 C 
ATOM     26  C2  <0> d           0.002  -0.004   0.002  0.00  0.00    -0.015 C 
ATOM     27  C1  <0> d          -1.431  -0.535   0.074  0.00  0.00     0.010 C 
ATOM     28  C6  <0> d           0.794  -0.503   1.214  0.00  0.00     0.032 C 
ATOM     29  C5  <0> d           2.208   0.081   1.168  0.00  0.00     0.237 C 
ATOM     30  H23 <0> d           1.590   1.838   2.037  0.00  0.00     0.281 HD
ENDBRANCH  22  23
ENDBRANCH   1  22
TORSDOF 5
