REMARK  5 active torsions:
REMARK  status: ('A' for Active; 'I' for Inactive)
REMARK    1  A    between atoms: C2_2  and  C3_3 
REMARK    2  A    between atoms: C3_3  and  C4_4 
REMARK    3  A    between atoms: C3_3  and  N3_19 
REMARK    4  A    between atoms: C5_6  and  C8_10 
REMARK    5  A    between atoms: C12_14  and  N2_16 
ROOT
ATOM      1  C4  <0> d          -1.416  -2.035  -0.119  0.00  0.00     0.106 A 
ATOM      2  N1  <0> d          -1.706  -2.759  -1.169  0.00  0.00    -0.242 NA
ATOM      3  C5  <0> d          -1.644  -4.082  -1.133  0.00  0.00     0.081 A 
ATOM      4  C6  <0> d          -1.261  -4.643   0.057  0.00  0.00     0.010 A 
ATOM      5  S1  <0> d          -1.011  -3.179   1.046  0.00  0.00    -0.075 SA
ATOM      6  C7  <0> d          -1.093  -6.095   0.425  0.00  0.00     0.059 C 
ENDROOT
BRANCH   3   7
ATOM      7  C8  <0> d          -1.972  -4.912  -2.318  0.00  0.00    -0.004 A 
ATOM      8  C13 <0> d          -2.977  -4.511  -3.196  0.00  0.00     0.050 A 
ATOM      9  C12 <0> d          -3.274  -5.283  -4.300  0.00  0.00     0.103 A 
ATOM     10  C11 <0> d          -2.584  -6.460  -4.530  0.00  0.00     0.036 A 
ATOM     11  C10 <0> d          -1.589  -6.866  -3.658  0.00  0.00     0.003 A 
ATOM     12  C9  <0> d          -1.280  -6.098  -2.554  0.00  0.00     0.014 A 
BRANCH   9  13
ATOM     13  N2  <0> d          -4.336  -4.855  -5.237  0.00  0.00    -0.116 N 
ATOM     14  O1  <0> d          -4.601  -5.534  -6.202  0.00  0.00    -0.532 OA
ATOM     15  O2  <0> d          -4.940  -3.827  -5.038  0.00  0.00    -0.532 OA
ENDBRANCH   9  13
ENDBRANCH   3   7
BRANCH   1  16
ATOM     16  C3  <0> d          -1.433  -0.534   0.013  0.00  0.00     0.241 C 
BRANCH  16  17
ATOM     17  C2  <0> d           0.002  -0.004   0.002  0.00  0.00     0.035 C 
ATOM     18  C1  <0> d          -0.019   1.526   0.010  0.00  0.00     0.007 C 
ENDBRANCH  16  17
BRANCH  16  19
ATOM     19  N3  <0> d          -2.083  -0.161   1.276  0.00  0.00    -0.069 N 
ATOM     20  H14 <0> d          -2.095   0.844   1.365  0.00  0.00     0.275 HD
ATOM     21  H15 <0> d          -3.030  -0.510   1.284  0.00  0.00     0.275 HD
ATOM     22  H16 <0> d          -1.571  -0.560   2.049  0.00  0.00     0.275 HD
ENDBRANCH  16  19
ENDBRANCH   1  16
TORSDOF 5
