REMARK  3 active torsions:
REMARK  status: ('A' for Active; 'I' for Inactive)
REMARK    1  A    between atoms: C5_8  and  S1_9 
REMARK    2  A    between atoms: S1_9  and  N2_12 
REMARK    3  A    between atoms: N2_12  and  C6_13 
ROOT
ATOM      1  N2  <0> d          -2.155  -0.797  -1.511  0.00  0.00    -0.308 N 
ATOM      2  H7  <0> d          -2.995  -0.332  -1.649  0.00  0.00     0.172 HD
ENDROOT
BRANCH   1   3
ATOM      3  S1  <0> d          -1.511  -0.906   0.011  0.00  0.00     0.260 S 
ATOM      4  O2  <0> d          -1.169  -2.271   0.210  0.00  0.00    -0.200 OA
ATOM      5  O3  <0> d          -2.395  -0.208   0.877  0.00  0.00    -0.200 OA
BRANCH   3   6
ATOM      6  C5  <0> d           0.002  -0.004   0.002  0.00  0.00     0.095 A 
ATOM      7  C1  <0> d          -0.017   1.398   0.010  0.00  0.00     0.032 A 
ATOM      8  C2  <0> d           1.164   2.081   0.002  0.00  0.00     0.076 A 
ATOM      9  C3  <0> d           2.373   1.364  -0.013  0.00  0.00     0.245 A 
ATOM     10  O1  <0> d           3.437   1.963  -0.020  0.00  0.00    -0.268 OA
ATOM     11  N1  <0> d           2.358   0.018  -0.020  0.00  0.00    -0.332 N 
ATOM     12  H1  <0> d           3.196  -0.471  -0.031  0.00  0.00     0.168 HD
ATOM     13  C4  <0> d           1.184  -0.664  -0.013  0.00  0.00     0.116 A 
ENDBRANCH   3   6
ENDBRANCH   1   3
BRANCH   1  14
ATOM     14  C6  <0> d          -1.457  -1.403  -2.647  0.00  0.00     0.125 C 
ATOM     15  C9  <0> d          -1.698  -0.596  -3.934  0.00  0.00     0.211 C 
ATOM     16  N3  <0> d          -1.408  -1.599  -4.993  0.00  0.00    -0.065 N 
ATOM     17  C10 <0> d          -0.726   0.560  -4.122  0.00  0.00     0.035 C 
ATOM     18  C8  <0> d          -2.076  -2.826  -4.556  0.00  0.00     0.237 C 
ATOM     19  C13 <0> d          -1.845  -1.055  -6.271  0.00  0.00     0.235 C 
ATOM     20  H20 <0> d          -0.412  -1.756  -5.021  0.00  0.00     0.280 HD
ATOM     21  C7  <0> d          -2.076  -2.781  -3.009  0.00  0.00     0.055 C 
ATOM     22  C12 <0> d          -0.950   0.152  -6.598  0.00  0.00     0.028 C 
ATOM     23  C11 <0> d          -1.026   1.199  -5.487  0.00  0.00     0.004 C 
ENDBRANCH   1  14
TORSDOF 3
