REMARK  7 active torsions:
REMARK  status: ('A' for Active; 'I' for Inactive)
REMARK    1  A    between atoms: C4_4  and  O6_30 
REMARK    2  A    between atoms: C5_5  and  C8_10 
REMARK    3  A    between atoms: C8_10  and  C9_11 
REMARK    4  A    between atoms: C8_10  and  C16_20 
REMARK    5  A    between atoms: C12_14  and  O3_19 
REMARK    6  A    between atoms: C13_15  and  O2_17 
REMARK    7  A    between atoms: C17_21  and  O5_29 
ROOT
ATOM      1  C8  <0> d          -2.390   0.101   4.237  0.00  0.00     0.101 C 
ENDROOT
BRANCH   1   2
ATOM      2  C5  <0> d          -1.692   0.937   3.196  0.00  0.00     0.056 A 
ATOM      3  C4  <0> d          -1.919   0.713   1.850  0.00  0.00     0.080 A 
ATOM      4  C3  <0> d          -1.249   1.513   0.903  0.00  0.00     0.062 A 
ATOM      5  C2  <0> d          -0.406   2.482   1.318  0.00  0.00     0.013 A 
ATOM      6  C1  <0> d           0.303   3.338   0.300  0.00  0.00     0.068 C 
ATOM      7  N1  <0> d          -0.183   2.693   2.642  0.00  0.00    -0.322 N 
ATOM      8  C6  <0> d          -0.804   1.950   3.578  0.00  0.00     0.257 A 
ATOM      9  C7  <0> d           0.742   3.749   3.058  0.00  0.00     0.159 C 
ATOM     10  O1  <0> d          -0.593   2.160   4.762  0.00  0.00    -0.267 OA
BRANCH   3  11
ATOM     11  O6  <0> d          -2.772  -0.259   1.450  0.00  0.00    -0.360 OA
ATOM     12  H24 <0> d          -2.860  -0.334   0.489  0.00  0.00     0.217 HD
ENDBRANCH   3  11
ENDBRANCH   1   2
BRANCH   1  13
ATOM     13  C9  <0> d          -3.620  -0.526   3.635  0.00  0.00    -0.042 A 
ATOM     14  C14 <0> d          -3.739  -1.903   3.587  0.00  0.00     0.047 A 
ATOM     15  C13 <0> d          -4.870  -2.482   3.034  0.00  0.00     0.101 A 
ATOM     16  C12 <0> d          -5.884  -1.675   2.527  0.00  0.00     0.099 A 
ATOM     17  C11 <0> d          -5.759  -0.296   2.578  0.00  0.00     0.040 A 
ATOM     18  C10 <0> d          -4.631   0.275   3.137  0.00  0.00     0.011 A 
BRANCH  15  19
ATOM     19  O2  <0> d          -4.988  -3.836   2.985  0.00  0.00    -0.353 OA
ATOM     20  C15 <0> d          -3.908  -4.601   3.524  0.00  0.00     0.210 C 
ENDBRANCH  15  19
BRANCH  16  21
ATOM     21  O3  <0> d          -6.996  -2.238   1.983  0.00  0.00    -0.358 OA
ATOM     22  H15 <0> d          -7.708  -2.395   2.619  0.00  0.00     0.217 HD
ENDBRANCH  16  21
ENDBRANCH   1  13
BRANCH   1  23
ATOM     23  C16 <0> d          -1.459  -0.981   4.720  0.00  0.00     0.056 A 
ATOM     24  C20 <0> d          -0.812  -1.820   3.806  0.00  0.00     0.257 A 
ATOM     25  N2  <0> d           0.019  -2.784   4.244  0.00  0.00    -0.322 N 
ATOM     26  O4  <0> d          -1.001  -1.676   2.608  0.00  0.00    -0.267 OA
ATOM     27  C19 <0> d           0.247  -2.963   5.571  0.00  0.00     0.013 A 
ATOM     28  C21 <0> d           0.689  -3.654   3.273  0.00  0.00     0.159 C 
ATOM     29  C18 <0> d          -0.355  -2.178   6.490  0.00  0.00     0.062 A 
ATOM     30  C22 <0> d           1.184  -4.053   6.024  0.00  0.00     0.068 C 
ATOM     31  C17 <0> d          -1.228  -1.154   6.072  0.00  0.00     0.080 A 
BRANCH  31  32
ATOM     32  O5  <0> d          -1.836  -0.355   6.982  0.00  0.00    -0.360 OA
ATOM     33  H23 <0> d          -1.607  -0.559   7.899  0.00  0.00     0.217 HD
ENDBRANCH  31  32
ENDBRANCH   1  23
TORSDOF 7
