REMARK  11 active torsions:
REMARK  status: ('A' for Active; 'I' for Inactive)
REMARK    1  A    between atoms: C2_2  and  C3_4 
REMARK    2  A    between atoms: C3_4  and  C4_6 
REMARK    3  A    between atoms: C4_6  and  C5_7 
REMARK    4  A    between atoms: C4_6  and  O7_15 
REMARK    5  A    between atoms: C5_7  and  C6_8 
REMARK    6  A    between atoms: C5_7  and  O6_14 
REMARK    7  A    between atoms: C6_8  and  C7_9 
REMARK    8  A    between atoms: C6_8  and  O5_13 
REMARK    9  A    between atoms: C7_9  and  C8_10 
REMARK   10  A    between atoms: C7_9  and  O4_12 
REMARK   11  A    between atoms: C8_10  and  O3_11 
ROOT
ATOM      1  C5  <0> d          -0.984  -2.786   1.417  0.00  0.00     0.186 C 
ENDROOT
BRANCH   1   2
ATOM      2  C4  <0> d          -1.254  -2.272   0.002  0.00  0.00     0.227 C 
BRANCH   2   3
ATOM      3  C3  <0> d          -1.275  -0.765   0.010  0.00  0.00     0.225 C 
ATOM      4  O2  <0> d          -2.329  -0.175   0.023  0.00  0.00    -0.286 OA
BRANCH   3   5
ATOM      5  C2  <0> d           0.002  -0.004   0.002  0.00  0.00     0.193 C 
ATOM      6  C1  <0> d          -0.018   1.503   0.010  0.00  0.00     0.100 C 
ATOM      7  O1  <0> d           1.056  -0.594  -0.011  0.00  0.00    -0.290 OA
ENDBRANCH   3   5
ENDBRANCH   2   3
BRANCH   2   8
ATOM      8  O7  <0> d          -2.518  -2.763  -0.450  0.00  0.00    -0.385 OA
ATOM      9  H14 <0> d          -3.265  -2.490   0.101  0.00  0.00     0.210 HD
ENDBRANCH   2   8
ENDBRANCH   1   2
BRANCH   1  10
ATOM     10  C6  <0> d          -1.086  -4.312   1.434  0.00  0.00     0.180 C 
BRANCH  10  11
ATOM     11  C7  <0> d          -0.939  -4.818   2.870  0.00  0.00     0.173 C 
BRANCH  11  12
ATOM     12  C8  <0> d          -1.042  -6.344   2.886  0.00  0.00     0.198 C 
BRANCH  12  13
ATOM     13  O3  <0> d          -1.021  -6.809   4.238  0.00  0.00    -0.398 OA
ATOM     14  H10 <0> d          -1.083  -7.770   4.324  0.00  0.00     0.209 HD
ENDBRANCH  12  13
ENDBRANCH  11  12
BRANCH  11  15
ATOM     15  O4  <0> d           0.333  -4.420   3.387  0.00  0.00    -0.391 OA
ATOM     16  H11 <0> d           1.085  -4.762   2.886  0.00  0.00     0.210 HD
ENDBRANCH  11  15
ENDBRANCH  10  11
BRANCH  10  17
ATOM     17  O5  <0> d          -2.358  -4.710   0.917  0.00  0.00    -0.390 OA
ATOM     18  H12 <0> d          -3.111  -4.368   1.418  0.00  0.00     0.210 HD
ENDBRANCH  10  17
ENDBRANCH   1  10
BRANCH   1  19
ATOM     19  O6  <0> d          -1.947  -2.234   2.317  0.00  0.00    -0.390 OA
ATOM     20  H13 <0> d          -2.862  -2.461   2.101  0.00  0.00     0.210 HD
ENDBRANCH   1  19
TORSDOF 11
