REMARK  7 active torsions:
REMARK  status: ('A' for Active; 'I' for Inactive)
REMARK    1  A    between atoms: C2_2  and  N1_3 
REMARK    2  A    between atoms: N1_3  and  C3_4 
REMARK    3  A    between atoms: N1_3  and  S1_6 
REMARK    4  A    between atoms: S1_6  and  C5_9 
REMARK    5  A    between atoms: C8_12  and  C11_15 
REMARK       I    between atoms: C11_15  and  N2_17 
REMARK    6  A    between atoms: N2_17  and  C12_18 
REMARK    7  A    between atoms: C13_19  and  C20_27 
REMARK       I    between atoms: C20_27  and  N3_29 
ROOT
ATOM      1  C11 <0> d          -2.066   1.840   5.837  0.00  0.00     0.256 C 
ATOM      2  O3  <0> d          -2.761   2.763   5.461  0.00  0.00    -0.267 OA
ATOM      3  N2  <0> d          -1.289   1.179   4.956  0.00  0.00    -0.316 N 
ATOM      4  H15 <0> d          -0.735   0.442   5.256  0.00  0.00     0.169 HD
ENDROOT
BRANCH   1   5
ATOM      5  C8  <0> d          -2.073   1.442   7.261  0.00  0.00     0.032 A 
ATOM      6  C7  <0> d          -2.876   2.125   8.175  0.00  0.00     0.018 A 
ATOM      7  C6  <0> d          -2.878   1.749   9.503  0.00  0.00     0.026 A 
ATOM      8  C5  <0> d          -2.085   0.697   9.928  0.00  0.00     0.079 A 
ATOM      9  C10 <0> d          -1.287   0.016   9.026  0.00  0.00     0.026 A 
ATOM     10  C9  <0> d          -1.280   0.379   7.695  0.00  0.00     0.018 A 
BRANCH   8  11
ATOM     11  S1  <0> d          -2.092   0.223  11.625  0.00  0.00     0.260 S 
ATOM     12  O1  <0> d          -0.856  -0.434  11.868  0.00  0.00    -0.200 OA
ATOM     13  O2  <0> d          -2.507   1.365  12.363  0.00  0.00    -0.200 OA
BRANCH  11  14
ATOM     14  N1  <0> d          -3.279  -0.917  11.810  0.00  0.00    -0.307 N 
BRANCH  14  15
ATOM     15  C2  <0> d          -2.963  -2.337  11.639  0.00  0.00     0.131 C 
ATOM     16  C1  <0> d          -2.660  -2.959  13.004  0.00  0.00     0.027 C 
ENDBRANCH  14  15
BRANCH  14  17
ATOM     17  C3  <0> d          -4.645  -0.505  12.143  0.00  0.00     0.131 C 
ATOM     18  C4  <0> d          -5.469  -0.384  10.860  0.00  0.00     0.027 C 
ENDBRANCH  14  17
ENDBRANCH  11  14
ENDBRANCH   8  11
ENDBRANCH   1   5
BRANCH   3  19
ATOM     19  C12 <0> d          -1.283   1.551   3.622  0.00  0.00     0.093 A 
ATOM     20  S2  <0> d          -2.179   2.821   2.854  0.00  0.00    -0.075 SA
ATOM     21  C15 <0> d          -1.601   2.615   1.194  0.00  0.00    -0.008 A 
ATOM     22  C14 <0> d          -0.732   1.580   1.257  0.00  0.00    -0.026 A 
ATOM     23  C16 <0> d          -1.979   3.405  -0.021  0.00  0.00     0.047 C 
ATOM     24  C13 <0> d          -0.559   0.998   2.575  0.00  0.00     0.073 A 
ATOM     25  C19 <0> d          -0.013   1.086   0.008  0.00  0.00     0.041 C 
ATOM     26  C18 <0> d          -0.758   1.595  -1.227  0.00  0.00     0.005 C 
ATOM     27  C17 <0> d          -0.956   3.111  -1.127  0.00  0.00     0.005 C 
BRANCH  24  28
ATOM     28  C20 <0> d           0.351  -0.131   2.793  0.00  0.00     0.252 C 
ATOM     29  O4  <0> d          -0.061  -1.272   2.693  0.00  0.00    -0.268 OA
ATOM     30  N3  <0> d           1.643   0.095   3.104  0.00  0.00    -0.366 N 
ATOM     31  H24 <0> d           1.971   1.004   3.184  0.00  0.00     0.159 HD
ATOM     32  H25 <0> d           2.244  -0.652   3.249  0.00  0.00     0.159 HD
ENDBRANCH  24  28
ENDBRANCH   3  19
TORSDOF 7
