REMARK  5 active torsions:
REMARK  status: ('A' for Active; 'I' for Inactive)
REMARK    1  A    between atoms: C3_4  and  C5_7 
REMARK    2  A    between atoms: C7_9  and  C9_13 
REMARK       I    between atoms: C9_13  and  N3_15 
REMARK    3  A    between atoms: N3_15  and  C11_17 
REMARK    4  A    between atoms: C11_17  and  C12_18 
REMARK    5  A    between atoms: C12_18  and  O2_20 
ROOT
ATOM      1  C5  <0> d          -2.149  -3.116   1.027  0.00  0.00     0.011 A 
ATOM      2  C6  <0> d          -3.444  -2.765   0.601  0.00  0.00     0.050 A 
ATOM      3  C7  <0> d          -4.165  -3.922   0.503  0.00  0.00     0.101 A 
ATOM      4  N2  <0> d          -3.342  -4.967   0.858  0.00  0.00    -0.361 N 
ATOM      5  H1  <0> d          -3.595  -5.903   0.878  0.00  0.00     0.165 HD
ATOM      6  C8  <0> d          -2.118  -4.474   1.170  0.00  0.00     0.102 A 
ENDROOT
BRANCH   3   7
ATOM      7  C9  <0> d          -5.569  -4.031   0.093  0.00  0.00     0.270 C 
ATOM      8  O1  <0> d          -6.257  -3.031   0.006  0.00  0.00    -0.266 OA
ATOM      9  N3  <0> d          -6.097  -5.239  -0.189  0.00  0.00    -0.349 N 
ATOM     10  C10 <0> d          -5.274  -6.445  -0.065  0.00  0.00     0.153 C 
BRANCH   9  11
ATOM     11  C11 <0> d          -7.493  -5.346  -0.619  0.00  0.00     0.157 C 
BRANCH  11  12
ATOM     12  C12 <0> d          -7.566  -5.243  -2.144  0.00  0.00     0.132 C 
ATOM     13  C13 <0> d          -9.024  -5.354  -2.594  0.00  0.00     0.041 C 
BRANCH  12  14
ATOM     14  O2  <0> d          -7.034  -3.985  -2.563  0.00  0.00    -0.394 OA
ATOM     15  H17 <0> d          -7.048  -3.850  -3.520  0.00  0.00     0.210 HD
ENDBRANCH  12  14
ENDBRANCH  11  12
ENDBRANCH   9  11
ENDBRANCH   3   7
BRANCH   1  16
ATOM     16  C3  <0> d          -1.020  -2.182   1.270  0.00  0.00     0.075 A 
ATOM     17  N1  <0> d          -1.175  -0.868   1.197  0.00  0.00    -0.245 NA
ATOM     18  C2  <0> d          -0.176  -0.052   1.413  0.00  0.00     0.071 A 
ATOM     19  C1  <0> d          -0.176   1.455   1.372  0.00  0.00     0.078 C 
ATOM     20  S1  <0> d           1.110  -1.086   1.739  0.00  0.00    -0.085 SA
ATOM     21  C4  <0> d           0.233  -2.633   1.580  0.00  0.00     0.084 A 
ENDBRANCH   1  16
TORSDOF 5
