REMARK  4 active torsions:
REMARK  status: ('A' for Active; 'I' for Inactive)
REMARK    1  A    between atoms: C2_2  and  N1_3 
REMARK    2  A    between atoms: C4_7  and  C5_8 
REMARK    3  A    between atoms: C5_8  and  N4_9 
REMARK       I    between atoms: N4_9  and  C6_10 
REMARK    4  A    between atoms: C6_10  and  C7_12 
ROOT
ATOM      1  N4  <0> d          -1.243  -1.624  -3.098  0.00  0.00    -0.349 N 
ATOM      2  C6  <0> d          -0.853  -1.611  -4.388  0.00  0.00     0.259 C 
ATOM      3  O1  <0> d          -0.988  -0.602  -5.056  0.00  0.00    -0.267 OA
ATOM      4  H9  <0> d          -1.135  -2.428  -2.566  0.00  0.00     0.163 HD
ENDROOT
BRANCH   2   5
ATOM      5  C7  <0> d          -0.283  -2.773  -4.967  0.00  0.00     0.077 A 
ATOM      6  S1  <0> d           0.023  -4.363  -4.215  0.00  0.00    -0.063 SA
ATOM      7  C10 <0> d           0.728  -5.179  -5.626  0.00  0.00     0.128 A 
ATOM      8  C9  <0> d           0.705  -4.191  -6.616  0.00  0.00     0.078 A 
ATOM      9  N5  <0> d           1.255  -6.288  -6.126  0.00  0.00    -0.214 NA
ATOM     10  C8  <0> d           0.181  -2.960  -6.256  0.00  0.00     0.057 A 
ATOM     11  N6  <0> d           1.271  -4.811  -7.764  0.00  0.00    -0.298 N 
ATOM     12  C11 <0> d           1.577  -6.086  -7.377  0.00  0.00     0.178 A 
ATOM     13  C12 <0> d           1.559  -4.464  -9.065  0.00  0.00     0.107 A 
ATOM     14  S2  <0> d           2.272  -6.787  -8.857  0.00  0.00    -0.062 SA
ATOM     15  C13 <0> d           2.112  -5.344  -9.898  0.00  0.00     0.071 A 
ENDBRANCH   2   5
BRANCH   1  16
ATOM     16  C5  <0> d          -1.832  -0.423  -2.499  0.00  0.00     0.203 C 
BRANCH  16  17
ATOM     17  C4  <0> d          -2.180  -0.699  -1.059  0.00  0.00     0.147 A 
ATOM     18  N1  <0> d          -1.372  -0.511   0.012  0.00  0.00    -0.326 N 
ATOM     19  C3  <0> d          -2.096  -0.882   1.096  0.00  0.00     0.235 A 
ATOM     20  N2  <0> d          -3.266  -1.271   0.667  0.00  0.00    -0.143 NA
ATOM     21  N3  <0> d          -3.314  -1.166  -0.613  0.00  0.00    -0.134 NA
BRANCH  18  22
ATOM     22  C2  <0> d           0.002  -0.004   0.002  0.00  0.00     0.127 C 
ATOM     23  C1  <0> d          -0.019   1.526   0.010  0.00  0.00     0.027 C 
ENDBRANCH  18  22
ENDBRANCH  16  17
ENDBRANCH   1  16
TORSDOF 4
