REMARK  4 active torsions:
REMARK  status: ('A' for Active; 'I' for Inactive)
REMARK    1  A    between atoms: C2_2  and  C3_3 
REMARK    2  A    between atoms: C2_2  and  N2_8 
REMARK       I    between atoms: C3_3  and  N1_5 
REMARK       I    between atoms: N2_8  and  C6_9 
REMARK    3  A    between atoms: C6_9  and  C7_11 
REMARK    4  A    between atoms: C9_13  and  N3_19 
ROOT
ATOM      1  C7  <0> d           2.954  -1.119   2.140  0.00  0.00     0.051 A 
ATOM      2  C8  <0> d           2.335  -1.452   3.346  0.00  0.00     0.050 A 
ATOM      3  C9  <0> d           3.097  -1.906   4.409  0.00  0.00     0.065 A 
ATOM      4  C10 <0> d           4.478  -2.029   4.273  0.00  0.00     0.143 A 
ATOM      5  C11 <0> d           5.092  -1.699   3.077  0.00  0.00     0.064 A 
ATOM      6  C12 <0> d           4.339  -1.251   2.010  0.00  0.00     0.029 A 
ATOM      7 Br1  <0> d           5.183  -0.809   0.377  0.00  0.00    -0.050 Br
ATOM      8  F1  <0> d           5.220  -2.472   5.311  0.00  0.00    -0.204 F 
ENDROOT
BRANCH   1   9
ATOM      9  C6  <0> d           2.147  -0.635   1.002  0.00  0.00     0.253 C 
ATOM     10  N2  <0> d           0.811  -0.509   1.129  0.00  0.00    -0.344 N 
ATOM     11  H11 <0> d           0.380  -0.736   1.967  0.00  0.00     0.163 HD
ATOM     12  O2  <0> d           2.687  -0.350  -0.050  0.00  0.00    -0.268 OA
BRANCH  10  13
ATOM     13  C2  <0> d           0.010  -0.029  -0.000  0.00  0.00     0.173 C 
ATOM     14  C1  <0> d           0.007   1.502  -0.009  0.00  0.00     0.042 C 
BRANCH  13  15
ATOM     15  C3  <0> d          -1.403  -0.533   0.136  0.00  0.00     0.241 C 
ATOM     16  O1  <0> d          -1.840  -0.826   1.229  0.00  0.00    -0.271 OA
ATOM     17  N1  <0> d          -2.182  -0.659  -0.957  0.00  0.00    -0.359 N 
ATOM     18  C4  <0> d          -3.585  -1.054  -0.815  0.00  0.00     0.152 C 
ATOM     19  C5  <0> d          -1.625  -0.402  -2.287  0.00  0.00     0.152 C 
ENDBRANCH  13  15
ENDBRANCH  10  13
ENDBRANCH   1   9
BRANCH   3  20
ATOM     20  N3  <0> d           2.481  -2.240   5.620  0.00  0.00    -0.397 N 
ATOM     21  H14 <0> d           1.520  -2.154   5.714  0.00  0.00     0.156 HD
ATOM     22  H15 <0> d           3.015  -2.558   6.364  0.00  0.00     0.156 HD
ENDBRANCH   3  20
TORSDOF 4
