REMARK  4 active torsions:
REMARK  status: ('A' for Active; 'I' for Inactive)
REMARK    1  A    between atoms: C5_5  and  N1_9 
REMARK       I    between atoms: N1_9  and  C9_10 
REMARK    2  A    between atoms: C9_10  and  C10_12 
REMARK    3  A    between atoms: C10_12  and  N2_13 
REMARK    4  A    between atoms: C14_18  and  C15_20 
REMARK       I    between atoms: C15_20  and  N4_22 
ROOT
ATOM      1  N2  <0> d           0.699  -5.529   1.956  0.00  0.00    -0.225 N 
ATOM      2  C11 <0> d          -0.276  -5.797   2.845  0.00  0.00     0.264 A 
ATOM      3  O2  <0> d          -1.414  -5.407   2.644  0.00  0.00    -0.267 OA
ATOM      4  C12 <0> d           0.028  -6.534   4.011  0.00  0.00     0.078 A 
ATOM      5  C13 <0> d           1.315  -6.947   4.189  0.00  0.00     0.044 A 
ATOM      6  C14 <0> d           2.268  -6.614   3.196  0.00  0.00     0.145 A 
ATOM      7  N3  <0> d           1.906  -5.929   2.134  0.00  0.00    -0.164 NA
ENDROOT
BRANCH   1   8
ATOM      8  C10 <0> d           0.373  -4.765   0.750  0.00  0.00     0.257 C 
BRANCH   8   9
ATOM      9  C9  <0> d           0.460  -3.290   1.050  0.00  0.00     0.242 C 
ATOM     10  N1  <0> d           0.199  -2.389   0.083  0.00  0.00    -0.325 N 
ATOM     11  H10 <0> d          -0.102  -2.687  -0.790  0.00  0.00     0.169 HD
ATOM     12  O1  <0> d           0.764  -2.915   2.163  0.00  0.00    -0.271 OA
BRANCH  10  13
ATOM     13  C5  <0> d           0.363  -1.023   0.337  0.00  0.00     0.046 A 
ATOM     14  C4  <0> d           1.293  -0.287  -0.386  0.00  0.00    -0.034 A 
ATOM     15  C3  <0> d           1.452   1.061  -0.133  0.00  0.00     0.015 A 
ATOM     16  C25 <0> d           2.127  -0.959  -1.446  0.00  0.00     0.050 C 
ATOM     17  C2  <0> d           0.686   1.679   0.839  0.00  0.00    -0.061 A 
ATOM     18  C1  <0> d           0.862   3.151   1.112  0.00  0.00     0.048 C 
ATOM     19  C7  <0> d          -0.237   0.948   1.564  0.00  0.00     0.015 A 
ATOM     20  C6  <0> d          -0.405  -0.400   1.313  0.00  0.00    -0.034 A 
ATOM     21  C8  <0> d          -1.415  -1.194   2.099  0.00  0.00     0.050 C 
ENDBRANCH  10  13
ENDBRANCH   8   9
ENDBRANCH   1   8
BRANCH   6  22
ATOM     22  C15 <0> d           3.675  -7.043   3.351  0.00  0.00     0.279 C 
ATOM     23  O3  <0> d           4.043  -7.556   4.389  0.00  0.00    -0.265 OA
ATOM     24  N4  <0> d           4.549  -6.865   2.340  0.00  0.00    -0.307 N 
ATOM     25  C23 <0> d           4.222  -6.270   1.042  0.00  0.00     0.093 A 
ATOM     26  C16 <0> d           5.898  -7.228   2.376  0.00  0.00     0.044 A 
ATOM     27  C22 <0> d           5.538  -6.287   0.248  0.00  0.00     0.066 A 
ATOM     28  C24 <0> d           3.158  -7.105   0.328  0.00  0.00     0.033 C 
ATOM     29  C21 <0> d           6.541  -6.920   1.187  0.00  0.00    -0.029 A 
ATOM     30  C20 <0> d           7.884  -7.201   1.024  0.00  0.00     0.009 A 
ATOM     31  C19 <0> d           8.599  -7.792   2.048  0.00  0.00     0.001 A 
ATOM     32  C18 <0> d           7.967  -8.104   3.238  0.00  0.00     0.002 A 
ATOM     33  C17 <0> d           6.627  -7.826   3.405  0.00  0.00     0.030 A 
ENDBRANCH   6  22
TORSDOF 4
