REMARK  4 active torsions:
REMARK  status: ('A' for Active; 'I' for Inactive)
REMARK    1  A    between atoms: N1_6  and  C7_8 
REMARK    2  A    between atoms: C7_8  and  C8_9 
REMARK    3  A    between atoms: C9_10  and  C15_18 
REMARK    4  A    between atoms: C19_22  and  N4_24 
ROOT
ATOM      1  C8  <0> d           0.782   6.135   0.735  0.00  0.00     0.073 A 
ATOM      2  C9  <0> d          -0.014   5.336  -0.029  0.00  0.00     0.094 A 
ATOM      3  N2  <0> d          -0.877   6.117  -0.699  0.00  0.00    -0.228 NA
ATOM      4  C10 <0> d          -0.657   7.383  -0.376  0.00  0.00     0.135 A 
ATOM      5  N3  <0> d           0.381   7.424   0.520  0.00  0.00    -0.307 N 
ATOM      6  C11 <0> d           0.819   8.619   1.015  0.00  0.00     0.099 A 
ATOM      7  C12 <0> d           0.239   9.776   0.632  0.00  0.00     0.018 A 
ATOM      8  C13 <0> d          -0.826   9.766  -0.284  0.00  0.00     0.005 A 
ATOM      9  C14 <0> d          -1.272   8.583  -0.785  0.00  0.00     0.051 A 
ENDROOT
BRANCH   1  10
ATOM     10  C7  <0> d           1.895   5.684   1.645  0.00  0.00     0.294 C 
BRANCH  10  11
ATOM     11  N1  <0> d           1.353   5.409   2.982  0.00  0.00    -0.065 N 
ATOM     12  C5  <0> d           2.352   4.745   3.829  0.00  0.00     0.239 C 
ATOM     13  C4  <0> d           1.711   4.345   5.159  0.00  0.00     0.008 C 
ATOM     14  C3  <0> d           1.174   5.596   5.858  0.00  0.00     0.011 C 
ATOM     15  C21 <0> d           0.559   3.371   4.899  0.00  0.00     0.011 C 
ATOM     16  C2  <0> d           0.171   6.296   4.936  0.00  0.00     0.008 C 
ATOM     17  C1  <0> d          -0.326   7.580   5.602  0.00  0.00     0.011 C 
ATOM     18  C6  <0> d           0.858   6.640   3.612  0.00  0.00     0.239 C 
ATOM     19  H27 <0> d           0.500   4.724   2.869  0.00  0.00     0.280 HD
ENDBRANCH  10  11
ENDBRANCH   1  10
BRANCH   2  20
ATOM     20  C15 <0> d           0.064   3.856  -0.112  0.00  0.00    -0.003 A 
ATOM     21  C20 <0> d          -0.043   3.220  -1.345  0.00  0.00     0.042 A 
ATOM     22  C19 <0> d           0.036   1.837  -1.417  0.00  0.00     0.026 A 
ATOM     23  C18 <0> d           0.211   1.091  -0.257  0.00  0.00     0.029 A 
ATOM     24  C17 <0> d           0.318   1.724   0.967  0.00  0.00     0.003 A 
ATOM     25  C16 <0> d           0.245   3.100   1.045  0.00  0.00     0.014 A 
BRANCH  22  26
ATOM     26  N4  <0> d          -0.065   1.194  -2.652  0.00  0.00    -0.399 N 
ATOM     27  H22 <0> d          -0.204   1.784  -3.570  0.00  0.00     0.156 HD
ATOM     28  H23 <0> d          -0.007   0.097  -2.708  0.00  0.00     0.156 HD
ENDBRANCH  22  26
ENDBRANCH   2  20
TORSDOF 4
