REMARK  4 active torsions:
REMARK  status: ('A' for Active; 'I' for Inactive)
REMARK    1  A    between atoms: N1_6  and  C7_8 
REMARK    2  A    between atoms: C7_8  and  C8_9 
REMARK    3  A    between atoms: C11_12  and  N2_15 
REMARK    4  A    between atoms: N2_15  and  C14_16 
ROOT
ATOM      1  C8  <0> d           1.671  -3.962   2.353  0.00  0.00    -0.032 A 
ATOM      2  C9  <0> d           0.827  -4.773   3.090  0.00  0.00     0.011 A 
ATOM      3  C10 <0> d           0.944  -6.147   3.010  0.00  0.00     0.030 A 
ATOM      4  C11 <0> d           1.910  -6.714   2.189  0.00  0.00     0.049 A 
ATOM      5  C12 <0> d           2.756  -5.896   1.451  0.00  0.00     0.030 A 
ATOM      6  C13 <0> d           2.631  -4.523   1.531  0.00  0.00     0.011 A 
ENDROOT
BRANCH   4   7
ATOM      7  N2  <0> d           2.032  -8.104   2.107  0.00  0.00    -0.190 N 
ATOM      8  H20 <0> d           2.904  -8.508   1.978  0.00  0.00     0.184 HD
BRANCH   7   9
ATOM      9  C14 <0> d           0.918  -8.897   2.208  0.00  0.00     0.708 A 
ATOM     10  N4  <0> d          -0.271  -8.338   2.271  0.00  0.00    -0.068 NA
ATOM     11  C17 <0> d          -1.390  -9.066   2.364  0.00  0.00     0.065 A 
ATOM     12  C16 <0> d          -1.309 -10.421   2.399  0.00  0.00     0.036 A 
ATOM     13  C18 <0> d          -2.702  -8.329   2.440  0.00  0.00     0.060 C 
ATOM     14  C15 <0> d          -0.036 -11.029   2.342  0.00  0.00     0.268 A 
ATOM     15  C21 <0> d          -2.517 -11.312   2.489  0.00  0.00     0.046 C 
ATOM     16  N3  <0> d           1.060 -10.250   2.248  0.00  0.00    -0.154 N 
ATOM     17  O1  <0> d           0.070 -12.244   2.378  0.00  0.00    -0.267 OA
ATOM     18  H2  <0> d           1.942 -10.651   2.209  0.00  0.00     0.187 HD
ATOM     19  C20 <0> d          -3.732 -10.523   2.973  0.00  0.00     0.005 C 
ATOM     20  C19 <0> d          -3.864  -9.263   2.109  0.00  0.00     0.006 C 
ENDBRANCH   7   9
ENDBRANCH   4   7
BRANCH   1  21
ATOM     21  C7  <0> d           1.540  -2.463   2.443  0.00  0.00     0.273 C 
BRANCH  21  22
ATOM     22  N1  <0> d           0.591  -1.993   1.425  0.00  0.00    -0.067 N 
ATOM     23  C5  <0> d          -0.746  -2.519   1.724  0.00  0.00     0.235 C 
ATOM     24  C4  <0> d          -1.722  -2.099   0.623  0.00  0.00     0.028 C 
ATOM     25  C3  <0> d          -1.777  -0.570   0.553  0.00  0.00     0.007 C 
ATOM     26  C2  <0> d          -0.364  -0.029   0.313  0.00  0.00     0.007 C 
ATOM     27  C1  <0> d          -0.395   1.500   0.319  0.00  0.00     0.011 C 
ATOM     28  C6  <0> d           0.562  -0.526   1.425  0.00  0.00     0.239 C 
ATOM     29  H29 <0> d           0.885  -2.322   0.517  0.00  0.00     0.280 HD
ENDBRANCH  21  22
ENDBRANCH   1  21
TORSDOF 4
