REMARK  4 active torsions:
REMARK  status: ('A' for Active; 'I' for Inactive)
REMARK    1  A    between atoms: N1_2  and  C2_3 
REMARK    2  A    between atoms: N1_2  and  S1_12 
REMARK    3  A    between atoms: C7_8  and  C8_9 
REMARK       I    between atoms: C8_9  and  N2_11 
REMARK    4  A    between atoms: S1_12  and  C9_15 
ROOT
ATOM      1  C1  <0> d          -0.111  -0.731  -1.265  0.00  0.00     0.170 C 
ATOM      2  N1  <0> d           0.002  -0.004   0.002  0.00  0.00    -0.275 N 
ENDROOT
BRANCH   2   3
ATOM      3  C2  <0> d          -0.017   1.385   0.010  0.00  0.00     0.060 A 
ATOM      4  C7  <0> d           1.187   2.106   0.002  0.00  0.00     0.059 A 
ATOM      5  C6  <0> d           1.153   3.503   0.009  0.00  0.00     0.019 A 
ATOM      6  C5  <0> d          -0.056   4.162   0.024  0.00  0.00     0.001 A 
ATOM      7  C4  <0> d          -1.243   3.446   0.031  0.00  0.00     0.002 A 
ATOM      8  C3  <0> d          -1.227   2.067   0.019  0.00  0.00     0.031 A 
BRANCH   4   9
ATOM      9  C8  <0> d           2.478   1.395  -0.014  0.00  0.00     0.251 C 
ATOM     10  O1  <0> d           2.503   0.179  -0.021  0.00  0.00    -0.268 OA
ATOM     11  N2  <0> d           3.631   2.093  -0.021  0.00  0.00    -0.366 N 
ATOM     12  H8  <0> d           4.595   1.562  -0.033  0.00  0.00     0.159 HD
ATOM     13  H9  <0> d           3.609   3.192  -0.015  0.00  0.00     0.159 HD
ENDBRANCH   4   9
ENDBRANCH   2   3
BRANCH   2  14
ATOM     14  S1  <0> d           0.152  -0.838   1.425  0.00  0.00     0.261 S 
ATOM     15  O2  <0> d           0.691  -2.111   1.095  0.00  0.00    -0.200 OA
ATOM     16  O3  <0> d           0.782   0.041   2.346  0.00  0.00    -0.200 OA
BRANCH  14  17
ATOM     17  C9  <0> d          -1.476  -1.124   2.035  0.00  0.00     0.059 C 
ATOM     18  C18 <0> d          -2.336  -2.171   1.382  0.00  0.00     0.057 C 
ATOM     19  C17 <0> d          -3.207  -2.880   2.421  0.00  0.00     0.044 C 
ATOM     20  C16 <0> d          -3.918  -1.861   3.273  0.00  0.00    -0.048 A 
ATOM     21  C11 <0> d          -3.272  -0.668   3.597  0.00  0.00    -0.029 A 
ATOM     22  C15 <0> d          -5.187  -2.107   3.751  0.00  0.00     0.008 A 
ATOM     23  C10 <0> d          -1.922  -0.409   3.056  0.00  0.00     0.033 C 
ATOM     24  C12 <0> d          -3.903   0.263   4.420  0.00  0.00     0.012 A 
ATOM     25  C13 <0> d          -5.171   0.002   4.899  0.00  0.00     0.001 A 
ATOM     26  C14 <0> d          -5.812  -1.177   4.564  0.00  0.00     0.001 A 
ENDBRANCH  14  17
ENDBRANCH   2  14
TORSDOF 4
