REMARK  5 active torsions:
REMARK  status: ('A' for Active; 'I' for Inactive)
REMARK    1  A    between atoms: C2_2  and  N1_3 
REMARK    2  A    between atoms: C4_6  and  C5_7 
REMARK    3  A    between atoms: N2_8  and  C6_9 
REMARK    4  A    between atoms: C9_12  and  C12_15 
REMARK    5  A    between atoms: N3_20  and  C16_23 
ROOT
ATOM      1  N1  <0> d           0.690  -0.438  -1.214  0.00  0.00    -0.290 N 
ATOM      2  C3  <0> d          -0.026  -0.666  -2.335  0.00  0.00     0.267 A 
ATOM      3  O1  <0> d          -1.226  -0.468  -2.361  0.00  0.00    -0.267 OA
ATOM      4  C4  <0> d           0.685  -1.161  -3.528  0.00  0.00     0.116 A 
ATOM      5  C14 <0> d           2.139  -1.371  -3.402  0.00  0.00     0.267 A 
ATOM      6  O3  <0> d           2.796  -1.777  -4.343  0.00  0.00    -0.267 OA
ATOM      7  N3  <0> d           2.723  -1.100  -2.216  0.00  0.00    -0.290 N 
ATOM      8  C15 <0> d           2.013  -0.647  -1.174  0.00  0.00     0.186 A 
ATOM      9  S1  <0> d           2.840  -0.324   0.290  0.00  0.00    -0.040 SA
ENDROOT
BRANCH   4  10
ATOM     10  C5  <0> d           0.019  -1.416  -4.711  0.00  0.00     0.111 C 
ATOM     11  N2  <0> d           0.716  -1.746  -5.820  0.00  0.00    -0.365 N 
ATOM     12  H7  <0> d           1.675  -1.881  -5.769  0.00  0.00     0.165 HD
BRANCH  11  13
ATOM     13  C6  <0> d           0.057  -1.891  -7.038  0.00  0.00     0.031 A 
ATOM     14  C11 <0> d           0.753  -2.346  -8.154  0.00  0.00     0.030 A 
ATOM     15  C10 <0> d           0.110  -2.496  -9.350  0.00  0.00     0.017 A 
ATOM     16  C9  <0> d          -1.251  -2.180  -9.454  0.00  0.00     0.009 A 
ATOM     17  C8  <0> d          -1.947  -1.718  -8.330  0.00  0.00     0.017 A 
ATOM     18  C7  <0> d          -1.296  -1.576  -7.137  0.00  0.00     0.030 A 
BRANCH  16  19
ATOM     19  C12 <0> d          -1.946  -2.334 -10.738  0.00  0.00     0.155 C 
ATOM     20  O2  <0> d          -3.144  -2.154 -10.805  0.00  0.00    -0.293 OA
ATOM     21  C13 <0> d          -1.172  -2.716 -11.973  0.00  0.00     0.096 C 
ENDBRANCH  16  19
ENDBRANCH  11  13
ENDBRANCH   4  10
BRANCH   1  22
ATOM     22  C2  <0> d           0.006   0.054  -0.016  0.00  0.00     0.130 C 
ATOM     23  C1  <0> d          -0.005   1.584  -0.028  0.00  0.00     0.027 C 
ENDBRANCH   1  22
BRANCH   7  24
ATOM     24  C16 <0> d           4.166  -1.300  -2.067  0.00  0.00     0.130 C 
ATOM     25  C17 <0> d           4.902  -0.011  -2.439  0.00  0.00     0.027 C 
ENDBRANCH   7  24
TORSDOF 5
