REMARK  5 active torsions:
REMARK  status: ('A' for Active; 'I' for Inactive)
REMARK    1  A    between atoms: C2_2  and  N1_3 
REMARK    2  A    between atoms: N2_6  and  C20_25 
REMARK    3  A    between atoms: C10_14  and  C11_15 
REMARK    4  A    between atoms: C10_14  and  N5_31 
REMARK    5  A    between atoms: C20_25  and  C21_26 
REMARK       I    between atoms: C21_26  and  N4_28 
ROOT
ATOM      1  N1  <0> d          -2.139   1.541   2.919  0.00  0.00    -0.316 N 
ATOM      2  C3  <0> d          -1.656   0.876   1.851  0.00  0.00     0.328 A 
ATOM      3  O1  <0> d          -2.058  -0.214   1.495  0.00  0.00    -0.246 OA
ATOM      4  N2  <0> d          -0.684   1.552   1.226  0.00  0.00    -0.259 N 
ATOM      5  C4  <0> d          -0.430   2.731   1.831  0.00  0.00     0.257 A 
ATOM      6  O2  <0> d           0.392   3.561   1.506  0.00  0.00    -0.270 OA
ATOM      7  C5  <0> d          -1.389   2.800   2.997  0.00  0.00     0.121 A 
ATOM      8  C6  <0> d          -0.619   2.886   4.311  0.00  0.00     0.069 C 
ATOM      9  C7  <0> d          -1.611   2.980   5.474  0.00  0.00     0.238 C 
ATOM     10  C8  <0> d          -3.265   4.052   4.061  0.00  0.00     0.238 C 
ATOM     11  C9  <0> d          -2.329   3.993   2.850  0.00  0.00     0.069 C 
ATOM     12  N5  <0> d          -2.452   4.183   5.289  0.00  0.00    -0.067 N 
ATOM     13  H28 <0> d          -1.842   5.004   5.198  0.00  0.00     0.280 HD
ENDROOT
BRANCH   1  14
ATOM     14  C2  <0> d          -3.200   1.094   3.825  0.00  0.00     0.124 C 
ATOM     15  C1  <0> d          -4.528   1.040   3.066  0.00  0.00     0.026 C 
ENDBRANCH   1  14
BRANCH   4  16
ATOM     16  C20 <0> d           0.020   1.069   0.036  0.00  0.00     0.239 C 
BRANCH  16  17
ATOM     17  C21 <0> d          -0.707   1.530  -1.201  0.00  0.00     0.233 C 
ATOM     18  O3  <0> d          -1.714   2.198  -1.098  0.00  0.00    -0.272 OA
ATOM     19  N4  <0> d          -0.237   1.202  -2.421  0.00  0.00    -0.369 N 
ATOM     20  H26 <0> d           0.569   0.668  -2.503  0.00  0.00     0.159 HD
ATOM     21  H27 <0> d          -0.705   1.499  -3.217  0.00  0.00     0.159 HD
ENDBRANCH  16  17
ENDBRANCH   4  16
BRANCH  12  22
ATOM     22  C10 <0> d          -3.333   4.367   6.460  0.00  0.00     0.275 C 
BRANCH  22  23
ATOM     23  C11 <0> d          -2.484   4.715   7.655  0.00  0.00    -0.004 A 
ATOM     24  C14 <0> d          -1.907   6.026   7.963  0.00  0.00     0.000 A 
ATOM     25  C13 <0> d          -1.203   5.867   9.171  0.00  0.00     0.044 A 
ATOM     26  C15 <0> d          -1.946   7.274   7.338  0.00  0.00     0.014 A 
ATOM     27  N3  <0> d          -1.343   4.551   9.552  0.00  0.00    -0.360 N 
ATOM     28  C18 <0> d          -0.542   6.959   9.723  0.00  0.00     0.030 A 
ATOM     29  C12 <0> d          -2.109   3.881   8.638  0.00  0.00     0.100 A 
ATOM     30  C19 <0> d          -0.758   3.958  10.757  0.00  0.00     0.155 C 
ATOM     31  C17 <0> d          -0.589   8.181   9.086  0.00  0.00     0.002 A 
ATOM     32  C16 <0> d          -1.289   8.333   7.898  0.00  0.00     0.001 A 
ENDBRANCH  22  23
ENDBRANCH  12  22
TORSDOF 5
