REMARK  4 active torsions:
REMARK  status: ('A' for Active; 'I' for Inactive)
REMARK    1  A    between atoms: N1_11  and  C10_13 
REMARK    2  A    between atoms: C10_13  and  C11_14 
REMARK       I    between atoms: C11_14  and  N3_16 
REMARK    3  A    between atoms: N3_16  and  C12_17 
REMARK    4  A    between atoms: C12_17  and  C13_18 
ROOT
ATOM      1  C10 <0> d           2.542  -2.665  -0.025  0.00  0.00     0.257 C 
ENDROOT
BRANCH   1   2
ATOM      2  N1  <0> d           1.221  -2.031  -0.015  0.00  0.00    -0.225 N 
ATOM      3  C9  <0> d           0.119  -2.809  -0.014  0.00  0.00     0.275 A 
ATOM      4  C8  <0> d          -1.200  -2.165  -0.004  0.00  0.00     0.046 A 
ATOM      5  O1  <0> d           0.216  -4.024  -0.021  0.00  0.00    -0.266 OA
ATOM      6  C3  <0> d          -1.255  -0.753   0.004  0.00  0.00     0.006 A 
ATOM      7  C7  <0> d          -2.383  -2.903  -0.002  0.00  0.00     0.018 A 
ATOM      8  C2  <0> d           0.002  -0.004   0.002  0.00  0.00     0.062 A 
ATOM      9  C4  <0> d          -2.495  -0.111   0.013  0.00  0.00     0.014 A 
ATOM     10  C1  <0> d          -0.018   1.503   0.010  0.00  0.00     0.073 C 
ATOM     11  N2  <0> d           1.136  -0.638  -0.012  0.00  0.00    -0.173 NA
ATOM     12  C5  <0> d          -3.642  -0.854   0.014  0.00  0.00     0.001 A 
ATOM     13  C6  <0> d          -3.592  -2.242   0.007  0.00  0.00     0.001 A 
ENDBRANCH   1   2
BRANCH   1  14
ATOM     14  C11 <0> d           2.988  -2.875  -1.449  0.00  0.00     0.237 C 
ATOM     15  O2  <0> d           2.273  -2.529  -2.365  0.00  0.00    -0.272 OA
ATOM     16  N3  <0> d           4.181  -3.447  -1.704  0.00  0.00    -0.359 N 
ATOM     17  H11 <0> d           4.753  -3.724  -0.971  0.00  0.00     0.162 HD
BRANCH  16  18
ATOM     18  C12 <0> d           4.615  -3.651  -3.088  0.00  0.00     0.129 C 
BRANCH  18  19
ATOM     19  C13 <0> d           5.994  -4.313  -3.099  0.00  0.00     0.031 C 
ATOM     20  C16 <0> d           6.467  -4.587  -4.548  0.00  0.00     0.240 C 
ATOM     21  N4  <0> d           7.943  -4.625  -4.462  0.00  0.00    -0.074 N 
ATOM     22  C15 <0> d           8.365  -3.852  -3.280  0.00  0.00     0.234 C 
ATOM     23  C17 <0> d           8.524  -4.033  -5.674  0.00  0.00     0.269 C 
ATOM     24  H23 <0> d           8.252  -5.581  -4.371  0.00  0.00     0.279 HD
ATOM     25  C14 <0> d           7.085  -3.333  -2.592  0.00  0.00     0.035 C 
ENDBRANCH  18  19
ENDBRANCH  16  18
ENDBRANCH   1  14
TORSDOF 4
