REMARK  5 active torsions:
REMARK  status: ('A' for Active; 'I' for Inactive)
REMARK    1  A    between atoms: N1_2  and  C2_3 
REMARK       I    between atoms: N1_2  and  C9_14 
REMARK    2  A    between atoms: C2_3  and  C3_4 
REMARK       I    between atoms: C9_14  and  N4_16 
REMARK    3  A    between atoms: N4_16  and  C10_17 
REMARK    4  A    between atoms: C10_17  and  C11_18 
REMARK    5  A    between atoms: C14_21  and  N6_24 
ROOT
ATOM      1  C1  <0> d          -0.018   1.461   0.010  0.00  0.00     0.155 C 
ATOM      2  N1  <0> d           0.002  -0.004   0.002  0.00  0.00    -0.331 N 
ATOM      3  C9  <0> d           0.000  -0.672  -1.169  0.00  0.00     0.318 C 
ATOM      4  O2  <0> d           0.017  -1.887  -1.175  0.00  0.00    -0.247 OA
ATOM      5  N4  <0> d          -0.020   0.009  -2.332  0.00  0.00    -0.339 N 
ATOM      6  H9  <0> d          -0.033   0.978  -2.327  0.00  0.00     0.164 HD
ENDROOT
BRANCH   2   7
ATOM      7  C2  <0> d           0.024  -0.743   1.267  0.00  0.00     0.207 C 
BRANCH   7   8
ATOM      8  C3  <0> d          -1.389  -1.016   1.714  0.00  0.00     0.147 C 
ATOM      9  N3  <0> d          -1.576  -1.681   2.848  0.00  0.00    -0.234 NA
ATOM     10  C6  <0> d          -2.824  -1.783   3.309  0.00  0.00     0.060 C 
ATOM     11  C5  <0> d          -3.905  -0.827   2.821  0.00  0.00     0.197 C 
ATOM     12  C7  <0> d          -3.358  -2.820   4.032  0.00  0.00     0.036 C 
ATOM     13  C4  <0> d          -3.654  -0.563   1.369  0.00  0.00     0.265 C 
ATOM     14  S1  <0> d          -5.414  -1.797   3.144  0.00  0.00    -0.121 SA
ATOM     15  N2  <0> d          -2.379  -0.589   0.959  0.00  0.00    -0.196 NA
ATOM     16  O1  <0> d          -4.566  -0.337   0.598  0.00  0.00    -0.269 OA
ATOM     17  C8  <0> d          -4.700  -3.030   4.078  0.00  0.00     0.048 C 
ENDBRANCH   7   8
ENDBRANCH   2   7
BRANCH   5  18
ATOM     18  C10 <0> d          -0.022  -0.717  -3.605  0.00  0.00     0.164 C 
BRANCH  18  19
ATOM     19  C11 <0> d          -0.047   0.268  -4.745  0.00  0.00    -0.023 A 
ATOM     20  C15 <0> d           1.134   0.741  -5.284  0.00  0.00     0.128 A 
ATOM     21  N5  <0> d           1.124   1.600  -6.285  0.00  0.00    -0.241 NA
ATOM     22  C14 <0> d          -0.007   2.049  -6.803  0.00  0.00     0.149 A 
ATOM     23  C13 <0> d          -1.233   1.620  -6.307  0.00  0.00     0.053 A 
ATOM     24  C12 <0> d          -1.256   0.715  -5.260  0.00  0.00     0.014 A 
BRANCH  22  25
ATOM     25  N6  <0> d           0.030   2.963  -7.861  0.00  0.00    -0.227 N 
ATOM     26  N7  <0> d          -1.080   3.522  -8.508  0.00  0.00    -0.179 NA
ATOM     27  C18 <0> d          -0.646   4.332  -9.439  0.00  0.00     0.141 A 
ATOM     28  C17 <0> d           0.754   4.310  -9.425  0.00  0.00     0.040 A 
ATOM     29  C16 <0> d           1.148   3.462  -8.448  0.00  0.00     0.122 A 
ENDBRANCH  22  25
ENDBRANCH  18  19
ENDBRANCH   5  18
TORSDOF 5
