REMARK  6 active torsions:
REMARK  status: ('A' for Active; 'I' for Inactive)
REMARK    1  A    between atoms: C5_5  and  C8_8 
REMARK    2  A    between atoms: C9_9  and  C20_25 
REMARK    3  A    between atoms: C10_10  and  C12_15 
REMARK    4  A    between atoms: C12_15  and  N3_16 
REMARK    5  A    between atoms: N4_19  and  C17_22 
REMARK    6  A    between atoms: C20_25  and  O3_27 
ROOT
ATOM      1  C8  <0> d           0.033  -4.303  -0.030  0.00  0.00     0.161 A 
ATOM      2  C9  <0> d           1.496  -4.641   0.167  0.00  0.00     0.069 A 
ATOM      3  C10 <0> d           1.825  -5.424   1.217  0.00  0.00     0.056 A 
ATOM      4  N1  <0> d           0.869  -5.895   2.071  0.00  0.00    -0.310 N 
ATOM      5  C11 <0> d          -0.437  -5.629   1.944  0.00  0.00     0.321 A 
ATOM      6  O1  <0> d          -1.214  -6.093   2.755  0.00  0.00    -0.247 OA
ATOM      7  N2  <0> d          -0.918  -4.861   0.947  0.00  0.00    -0.330 N 
ATOM      8  H9  <0> d           1.152  -6.455   2.811  0.00  0.00     0.170 HD
ATOM      9  H10 <0> d          -1.868  -4.680   0.874  0.00  0.00     0.165 HD
ENDROOT
BRANCH   3  10
ATOM     10  C12 <0> d           3.269  -5.785   1.449  0.00  0.00     0.330 C 
BRANCH  10  11
ATOM     11  N3  <0> d           3.720  -5.206   2.722  0.00  0.00     0.097 N 
ATOM     12  C16 <0> d           5.041  -5.728   3.100  0.00  0.00     0.300 C 
ATOM     13  C15 <0> d           5.447  -5.147   4.456  0.00  0.00     0.265 C 
ATOM     14  N4  <0> d           5.486  -3.682   4.370  0.00  0.00    -0.064 N 
ATOM     15  C14 <0> d           4.154  -3.174   4.016  0.00  0.00     0.265 C 
ATOM     16  H31 <0> d           6.150  -3.404   3.663  0.00  0.00     0.280 HD
ATOM     17  C13 <0> d           3.738  -3.738   2.656  0.00  0.00     0.300 C 
BRANCH  14  18
ATOM     18  C17 <0> d           5.893  -3.126   5.668  0.00  0.00     0.180 C 
ATOM     19  C18 <0> d           7.281  -3.654   6.036  0.00  0.00     0.039 C 
ATOM     20  C19 <0> d           5.936  -1.599   5.577  0.00  0.00     0.039 C 
ENDBRANCH  14  18
ENDBRANCH  10  11
ENDBRANCH   3  10
BRANCH   2  21
ATOM     21  C20 <0> d           2.486  -4.153  -0.719  0.00  0.00     0.293 C 
ATOM     22  O2  <0> d           2.900  -3.015  -0.600  0.00  0.00    -0.259 OA
BRANCH  21  23
ATOM     23  O3  <0> d           2.969  -4.949  -1.695  0.00  0.00    -0.323 OA
ATOM     24  C21 <0> d           3.966  -4.390  -2.553  0.00  0.00     0.213 C 
ENDBRANCH  21  23
ENDBRANCH   2  21
BRANCH   1  25
ATOM     25  C5  <0> d          -0.105  -2.803  -0.008  0.00  0.00    -0.031 A 
ATOM     26  C4  <0> d          -0.133  -2.093  -1.194  0.00  0.00     0.010 A 
ATOM     27  C3  <0> d          -0.260  -0.717  -1.173  0.00  0.00     0.007 A 
ATOM     28  C2  <0> d          -0.360  -0.050   0.033  0.00  0.00    -0.062 A 
ATOM     29  C1  <0> d          -0.499   1.450   0.056  0.00  0.00     0.048 C 
ATOM     30  C7  <0> d          -0.327  -0.759   1.220  0.00  0.00     0.007 A 
ATOM     31  C6  <0> d          -0.204  -2.136   1.199  0.00  0.00     0.010 A 
ENDBRANCH   1  25
TORSDOF 6
