REMARK  4 active torsions:
REMARK  status: ('A' for Active; 'I' for Inactive)
REMARK    1  A    between atoms: C7_7  and  C9_9 
REMARK    2  A    between atoms: C7_7  and  N3_27 
REMARK       I    between atoms: C9_9  and  N1_11 
REMARK    3  A    between atoms: N1_11  and  C10_12 
REMARK    4  A    between atoms: C11_13  and  C17_20 
REMARK       I    between atoms: C17_20  and  N2_22 
ROOT
ATOM      1  C9  <0> d           2.807   3.970   0.255  0.00  0.00     0.253 C 
ATOM      2  O1  <0> d           3.719   3.181   0.123  0.00  0.00    -0.271 OA
ATOM      3  N1  <0> d           3.070   5.269   0.499  0.00  0.00    -0.319 N 
ATOM      4  H16 <0> d           2.341   5.900   0.605  0.00  0.00     0.169 HD
ENDROOT
BRANCH   3   5
ATOM      5  C10 <0> d           4.383   5.704   0.599  0.00  0.00     0.093 A 
ATOM      6  S1  <0> d           5.837   4.778   0.449  0.00  0.00    -0.075 SA
ATOM      7  C13 <0> d           7.030   6.069   0.704  0.00  0.00    -0.008 A 
ATOM      8  C12 <0> d           6.297   7.179   0.898  0.00  0.00    -0.026 A 
ATOM      9  C14 <0> d           8.507   6.347   0.780  0.00  0.00     0.047 C 
ATOM     10  C11 <0> d           4.848   6.986   0.836  0.00  0.00     0.072 A 
ATOM     11  C16 <0> d           7.248   8.355   1.126  0.00  0.00     0.041 C 
ATOM     12  C15 <0> d           8.608   7.721   1.480  0.00  0.00     0.010 C 
BRANCH  10  13
ATOM     13  C17 <0> d           3.924   8.108   1.023  0.00  0.00     0.252 C 
ATOM     14  O2  <0> d           3.523   8.388   2.138  0.00  0.00    -0.268 OA
ATOM     15  N2  <0> d           3.516   8.830  -0.040  0.00  0.00    -0.366 N 
ATOM     16  H23 <0> d           3.835   8.607  -0.929  0.00  0.00     0.159 HD
ATOM     17  H24 <0> d           2.904   9.572   0.083  0.00  0.00     0.159 HD
ENDBRANCH  10  13
ENDBRANCH   3   5
BRANCH   1  18
ATOM     18  C7  <0> d           1.380   3.497   0.147  0.00  0.00     0.275 C 
ATOM     19  C8  <0> d           0.745   3.470   1.539  0.00  0.00     0.050 C 
BRANCH  18  20
ATOM     20  N3  <0> d           1.373   2.147  -0.453  0.00  0.00    -0.058 N 
ATOM     21  C5  <0> d           1.840   1.153   0.537  0.00  0.00     0.240 C 
ATOM     22  C4  <0> d           1.937  -0.216  -0.141  0.00  0.00     0.008 C 
ATOM     23  C3  <0> d           0.556  -0.619  -0.666  0.00  0.00     0.011 C 
ATOM     24  C18 <0> d           2.423  -1.255   0.871  0.00  0.00     0.011 C 
ATOM     25  C2  <0> d           0.052   0.456  -1.633  0.00  0.00     0.008 C 
ATOM     26  C1  <0> d          -1.353   0.091  -2.115  0.00  0.00     0.011 C 
ATOM     27  C6  <0> d           0.010   1.805  -0.911  0.00  0.00     0.240 C 
ATOM     28  H28 <0> d           2.008   2.137  -1.259  0.00  0.00     0.281 HD
ENDBRANCH  18  20
ENDBRANCH   1  18
TORSDOF 4
