REMARK  6 active torsions:
REMARK  status: ('A' for Active; 'I' for Inactive)
REMARK    1  A    between atoms: C5_5  and  S1_8 
REMARK    2  A    between atoms: C6_6  and  N1_7 
REMARK    3  A    between atoms: S1_8  and  N2_11 
REMARK    4  A    between atoms: N2_11  and  C7_12 
REMARK    5  A    between atoms: C7_12  and  C8_13 
REMARK    6  A    between atoms: C8_13  and  C9_14 
ROOT
ATOM      1  C1  <0> d           0.058   1.364   0.444  0.00  0.00     0.049 A 
ATOM      2  C2  <0> d           1.268   2.031   0.389  0.00  0.00     0.014 A 
ATOM      3  C3  <0> d           2.400   1.376  -0.060  0.00  0.00     0.040 A 
ATOM      4  C4  <0> d           2.326   0.052  -0.455  0.00  0.00     0.037 A 
ATOM      5  C5  <0> d           1.120  -0.620  -0.401  0.00  0.00     0.122 A 
ATOM      6  C6  <0> d          -0.019   0.035   0.049  0.00  0.00     0.051 A 
ATOM      7 Br1  <0> d           3.877  -0.839  -1.069  0.00  0.00    -0.049 Br
ATOM      8 Br2  <0> d           1.374   3.841   0.927  0.00  0.00    -0.051 Br
ENDROOT
BRANCH   5   9
ATOM      9  S1  <0> d           1.026  -2.306  -0.904  0.00  0.00     0.262 S 
ATOM     10  O1  <0> d          -0.338  -2.565  -1.206  0.00  0.00    -0.200 OA
ATOM     11  O2  <0> d           2.067  -2.506  -1.851  0.00  0.00    -0.200 OA
BRANCH   9  12
ATOM     12  N2  <0> d           1.403  -3.233   0.416  0.00  0.00    -0.315 N 
ATOM     13  H5  <0> d           2.204  -3.780   0.412  0.00  0.00     0.172 HD
BRANCH  12  14
ATOM     14  C7  <0> d           0.527  -3.225   1.590  0.00  0.00     0.141 C 
BRANCH  14  15
ATOM     15  C8  <0> d           0.875  -4.411   2.493  0.00  0.00     0.137 C 
BRANCH  15  16
ATOM     16  C9  <0> d          -0.040  -4.403   3.719  0.00  0.00     0.389 C 
ATOM     17  F1  <0> d          -1.373  -4.506   3.307  0.00  0.00    -0.171 F 
ATOM     18  F2  <0> d           0.278  -5.487   4.545  0.00  0.00    -0.171 F 
ATOM     19  F3  <0> d           0.139  -3.210   4.427  0.00  0.00    -0.171 F 
ENDBRANCH  15  16
ENDBRANCH  14  15
ENDBRANCH  12  14
ENDBRANCH   9  12
ENDBRANCH   5   9
BRANCH   6  20
ATOM     20  N1  <0> d          -1.240  -0.641   0.104  0.00  0.00    -0.398 N 
ATOM     21  H3  <0> d          -2.072  -0.145   0.060  0.00  0.00     0.156 HD
ATOM     22  H4  <0> d          -1.256  -1.608   0.188  0.00  0.00     0.156 HD
ENDBRANCH   6  20
TORSDOF 6
