REMARK  5 active torsions:
REMARK  status: ('A' for Active; 'I' for Inactive)
REMARK    1  A    between atoms: C2_3  and  C10_17 
REMARK    2  A    between atoms: C3_4  and  S1_7 
REMARK    3  A    between atoms: S1_7  and  N2_10 
REMARK    4  A    between atoms: N2_10  and  C5_11 
REMARK    5  A    between atoms: C5_11  and  C6_12 
ROOT
ATOM      1  C1  <0> d          -0.018   1.465   0.010  0.00  0.00     0.144 C 
ATOM      2  N1  <0> d           0.002  -0.004   0.002  0.00  0.00    -0.191 NA
ATOM      3  C2  <0> d          -1.371  -0.554   0.091  0.00  0.00     0.141 C 
ATOM      4  C3  <0> d          -1.587  -0.853   1.590  0.00  0.00     0.179 C 
ATOM      5  C4  <0> d          -0.254  -0.449   2.258  0.00  0.00     0.217 C 
ATOM      6  O1  <0> d           0.713  -0.530   1.185  0.00  0.00    -0.302 OA
ENDROOT
BRANCH   3   7
ATOM      7  C10 <0> d          -1.481  -1.821  -0.718  0.00  0.00    -0.023 A 
ATOM      8  C14 <0> d          -2.726  -2.264  -1.202  0.00  0.00    -0.001 A 
ATOM      9  C13 <0> d          -2.782  -3.457  -1.964  0.00  0.00     0.042 A 
ATOM     10  C15 <0> d          -3.907  -1.546  -0.950  0.00  0.00     0.014 A 
ATOM     11  N3  <0> d          -1.662  -4.147  -2.203  0.00  0.00    -0.365 N 
ATOM     12  C18 <0> d          -4.024  -3.898  -2.454  0.00  0.00     0.030 A 
ATOM     13  C12 <0> d          -0.501  -3.740  -1.749  0.00  0.00     0.089 A 
ATOM     14  H24 <0> d          -1.709  -4.965  -2.722  0.00  0.00     0.165 HD
ATOM     15  C11 <0> d          -0.376  -2.573  -0.998  0.00  0.00     0.027 A 
ATOM     16  C17 <0> d          -5.149  -3.184  -2.181  0.00  0.00     0.002 A 
ATOM     17  C16 <0> d          -5.092  -2.008  -1.436  0.00  0.00     0.001 A 
ENDBRANCH   3   7
BRANCH   4  18
ATOM     18  S1  <0> d          -2.955   0.142   2.244  0.00  0.00     0.234 S 
ATOM     19  O2  <0> d          -2.641   1.525   2.151  0.00  0.00    -0.205 OA
ATOM     20  O3  <0> d          -4.196  -0.353   1.761  0.00  0.00    -0.205 OA
BRANCH  18  21
ATOM     21  N2  <0> d          -2.975  -0.178   3.869  0.00  0.00    -0.317 N 
ATOM     22  H9  <0> d          -3.736  -0.631   4.264  0.00  0.00     0.172 HD
BRANCH  21  23
ATOM     23  C5  <0> d          -1.844   0.222   4.709  0.00  0.00     0.163 C 
BRANCH  23  24
ATOM     24  C6  <0> d          -2.255   0.160   6.181  0.00  0.00     0.140 C 
ATOM     25  O4  <0> d          -2.499  -1.200   6.560  0.00  0.00    -0.384 OA
ATOM     26  C9  <0> d          -1.575  -1.593   7.590  0.00  0.00     0.168 C 
ATOM     27  C8  <0> d          -1.153  -0.273   8.282  0.00  0.00     0.029 C 
ATOM     28  C7  <0> d          -1.110   0.695   7.068  0.00  0.00     0.035 C 
ENDBRANCH  23  24
ENDBRANCH  21  23
ENDBRANCH  18  21
ENDBRANCH   4  18
TORSDOF 5
