REMARK  6 active torsions:
REMARK  status: ('A' for Active; 'I' for Inactive)
REMARK    1  A    between atoms: C3_3  and  N1_9 
REMARK       I    between atoms: N1_9  and  C7_10 
REMARK    2  A    between atoms: C7_10  and  C8_12 
REMARK       I    between atoms: C8_12  and  N2_14 
REMARK    3  A    between atoms: N2_14  and  C9_15 
REMARK    4  A    between atoms: C9_15  and  C10_16 
REMARK    5  A    between atoms: C10_16  and  C11_17 
REMARK    6  A    between atoms: C10_16  and  N3_22 
ROOT
ATOM      1  C8  <0> d           6.722   4.609   1.639  0.00  0.00     0.309 C 
ATOM      2  O2  <0> d           6.637   3.782   0.755  0.00  0.00    -0.262 OA
ATOM      3  N2  <0> d           6.288   5.867   1.429  0.00  0.00    -0.351 N 
ATOM      4  H6  <0> d           6.356   6.529   2.136  0.00  0.00     0.162 HD
ENDROOT
BRANCH   3   5
ATOM      5  C9  <0> d           5.713   6.237   0.134  0.00  0.00     0.163 C 
BRANCH   5   6
ATOM      6  C10 <0> d           5.417   7.738   0.116  0.00  0.00     0.262 C 
BRANCH   6   7
ATOM      7  C11 <0> d           6.710   8.506   0.220  0.00  0.00     0.085 A 
ATOM      8  O3  <0> d           7.397   8.739   1.350  0.00  0.00    -0.325 OA
ATOM      9  C14 <0> d           8.500   9.450   1.065  0.00  0.00     0.142 A 
ATOM     10  C13 <0> d           8.523   9.686  -0.259  0.00  0.00     0.027 A 
ATOM     11  C12 <0> d           7.369   9.078  -0.804  0.00  0.00     0.037 A 
ENDBRANCH   6   7
BRANCH   6  12
ATOM     12  N3  <0> d           4.553   8.081   1.254  0.00  0.00    -0.059 N 
ATOM     13  C19 <0> d           4.185   9.500   1.177  0.00  0.00     0.236 C 
ATOM     14  C18 <0> d           3.352   9.881   2.402  0.00  0.00     0.028 C 
ATOM     15  C17 <0> d           2.083   9.025   2.436  0.00  0.00     0.003 C 
ATOM     16  C16 <0> d           2.477   7.545   2.441  0.00  0.00     0.028 C 
ATOM     17  C15 <0> d           3.343   7.250   1.214  0.00  0.00     0.236 C 
ATOM     18  H22 <0> d           5.048   7.909   2.115  0.00  0.00     0.280 HD
ENDBRANCH   6  12
ENDBRANCH   5   6
ENDBRANCH   3   5
BRANCH   1  19
ATOM     19  C7  <0> d           7.309   4.232   2.960  0.00  0.00     0.314 C 
ATOM     20  N1  <0> d           7.744   2.974   3.170  0.00  0.00    -0.316 N 
ATOM     21  H5  <0> d           7.747   2.334   2.441  0.00  0.00     0.169 HD
ATOM     22  O1  <0> d           7.395   5.059   3.844  0.00  0.00    -0.262 OA
BRANCH  20  23
ATOM     23  C3  <0> d           8.189   2.591   4.439  0.00  0.00     0.075 A 
ATOM     24  C2  <0> d           7.745   3.269   5.566  0.00  0.00     0.033 A 
ATOM     25  C1  <0> d           8.187   2.888   6.819  0.00  0.00     0.004 A 
ATOM     26  C6  <0> d           9.070   1.833   6.953  0.00  0.00     0.027 A 
ATOM     27  C5  <0> d           9.516   1.153   5.832  0.00  0.00     0.074 A 
ATOM     28  C4  <0> d           9.078   1.529   4.575  0.00  0.00     0.164 A 
ATOM     29 Cl1  <0> d          10.624  -0.171   6.005  0.00  0.00    -0.081 Cl
ATOM     30  F1  <0> d           9.512   0.866   3.481  0.00  0.00    -0.202 F 
ENDBRANCH  20  23
ENDBRANCH   1  19
TORSDOF 6
