REMARK  4 active torsions:
REMARK  status: ('A' for Active; 'I' for Inactive)
REMARK    1  A    between atoms: C2_2  and  C3_3 
REMARK    2  A    between atoms: C3_3  and  O1_4 
REMARK    3  A    between atoms: O1_4  and  C4_5 
REMARK    4  A    between atoms: C9_10  and  C10_11 
ROOT
ATOM      1  C10 <0> d           0.786  -4.750  -1.300  0.00  0.00     0.223 C 
ATOM      2  N1  <0> d          -0.415  -4.080  -0.788  0.00  0.00    -0.364 N 
ATOM      3  C11 <0> d          -1.576  -4.124  -1.551  0.00  0.00     0.045 A 
ATOM      4  C12 <0> d          -2.516  -3.109  -1.514  0.00  0.00     0.030 A 
ATOM      5  C13 <0> d          -3.652  -3.200  -2.296  0.00  0.00     0.002 A 
ATOM      6  C14 <0> d          -3.856  -4.298  -3.117  0.00  0.00     0.001 A 
ATOM      7  C15 <0> d          -2.929  -5.319  -3.165  0.00  0.00     0.019 A 
ATOM      8  C16 <0> d          -1.782  -5.241  -2.380  0.00  0.00     0.058 A 
ATOM      9  C17 <0> d          -0.763  -6.307  -2.386  0.00  0.00     0.257 C 
ATOM     10  O2  <0> d          -1.009  -7.389  -2.885  0.00  0.00    -0.267 OA
ATOM     11  N2  <0> d           0.440  -6.068  -1.833  0.00  0.00    -0.327 N 
ATOM     12  C18 <0> d           1.423  -7.152  -1.767  0.00  0.00     0.155 C 
ATOM     13  H13 <0> d          -0.399  -3.617   0.064  0.00  0.00     0.162 HD
ENDROOT
BRANCH   1  14
ATOM     14  C9  <0> d           1.396  -3.913  -2.394  0.00  0.00     0.017 A 
ATOM     15  C4  <0> d           1.341  -2.529  -2.322  0.00  0.00     0.078 A 
ATOM     16  C5  <0> d           1.909  -1.762  -3.329  0.00  0.00     0.037 A 
ATOM     17  C6  <0> d           2.522  -2.377  -4.403  0.00  0.00     0.003 A 
ATOM     18  C7  <0> d           2.571  -3.757  -4.475  0.00  0.00     0.001 A 
ATOM     19  C8  <0> d           2.006  -4.524  -3.473  0.00  0.00     0.014 A 
BRANCH  15  20
ATOM     20  O1  <0> d           0.738  -1.926  -1.265  0.00  0.00    -0.350 OA
BRANCH  20  21
ATOM     21  C3  <0> d           0.718  -0.497  -1.257  0.00  0.00     0.175 C 
BRANCH  21  22
ATOM     22  C2  <0> d           0.002  -0.004   0.002  0.00  0.00     0.022 C 
ATOM     23  C1  <0> d          -0.019   1.526   0.010  0.00  0.00     0.007 C 
ENDBRANCH  21  22
ENDBRANCH  20  21
ENDBRANCH  15  20
ENDBRANCH   1  14
TORSDOF 4
