REMARK  9 active torsions:
REMARK  status: ('A' for Active; 'I' for Inactive)
REMARK    1  A    between atoms: C2_2  and  C3_3 
REMARK    2  A    between atoms: C3_3  and  C4_4 
REMARK    3  A    between atoms: C3_3  and  N6_38 
REMARK    4  A    between atoms: N4_8  and  C5_9 
REMARK    5  A    between atoms: C5_9  and  C6_10 
REMARK    6  A    between atoms: C12_17  and  C13_18 
REMARK    7  A    between atoms: C12_17  and  N6_38 
REMARK    8  A    between atoms: C17_23  and  C18_24 
REMARK    9  A    between atoms: C17_23  and  N6_38 
ROOT
ATOM      1  N6  <0> d          -2.036  -0.305   1.609  0.00  0.00    -0.051 N 
ATOM      2  H30 <0> d          -1.535  -0.592   2.458  0.00  0.00     0.281 HD
ENDROOT
BRANCH   1   3
ATOM      3  C3  <0> d          -1.943   1.163   1.469  0.00  0.00     0.261 C 
BRANCH   3   4
ATOM      4  C2  <0> d          -0.468   1.569   1.474  0.00  0.00     0.037 C 
ATOM      5  C1  <0> d          -0.354   3.080   1.266  0.00  0.00     0.007 C 
ENDBRANCH   3   4
BRANCH   3   6
ATOM      6  C4  <0> d          -2.646   1.812   2.634  0.00  0.00     0.179 A 
ATOM      7  N4  <0> d          -3.481   2.867   2.582  0.00  0.00    -0.228 N 
ATOM      8  N3  <0> d          -3.866   3.106   3.790  0.00  0.00    -0.044 NA
ATOM      9  N2  <0> d          -3.304   2.259   4.580  0.00  0.00    -0.023 NA
ATOM     10  N1  <0> d          -2.558   1.464   3.894  0.00  0.00    -0.112 NA
BRANCH   7  11
ATOM     11  C5  <0> d          -3.881   3.602   1.380  0.00  0.00     0.193 C 
BRANCH  11  12
ATOM     12  C6  <0> d          -5.119   2.973   0.795  0.00  0.00    -0.038 A 
ATOM     13  C11 <0> d          -6.369   3.407   1.196  0.00  0.00     0.012 A 
ATOM     14  C10 <0> d          -7.506   2.831   0.659  0.00  0.00     0.043 A 
ATOM     15  C9  <0> d          -7.392   1.819  -0.279  0.00  0.00     0.116 A 
ATOM     16  C8  <0> d          -6.139   1.386  -0.679  0.00  0.00     0.043 A 
ATOM     17  F1  <0> d          -8.502   1.256  -0.803  0.00  0.00    -0.206 F 
ATOM     18  C7  <0> d          -5.004   1.967  -0.146  0.00  0.00     0.012 A 
ENDBRANCH  11  12
ENDBRANCH   7  11
ENDBRANCH   3   6
ENDBRANCH   1   3
BRANCH   1  19
ATOM     19  C12 <0> d          -3.452  -0.713   1.727  0.00  0.00     0.282 C 
BRANCH  19  20
ATOM     20  C13 <0> d          -3.507  -2.143   2.198  0.00  0.00     0.008 A 
ATOM     21  S1  <0> d          -3.431  -3.647   1.239  0.00  0.00    -0.105 SA
ATOM     22  C16 <0> d          -3.562  -4.812   2.586  0.00  0.00     0.050 A 
ATOM     23  C15 <0> d          -3.661  -3.989   3.659  0.00  0.00     0.008 A 
ATOM     24  C14 <0> d          -3.632  -2.622   3.460  0.00  0.00     0.017 A 
ENDBRANCH  19  20
ENDBRANCH   1  19
BRANCH   1  25
ATOM     25  C17 <0> d          -1.416  -0.964   0.440  0.00  0.00     0.280 C 
BRANCH  25  26
ATOM     26  C18 <0> d          -2.001  -0.427  -0.841  0.00  0.00     0.036 A 
ATOM     27  C26 <0> d          -3.187  -0.987  -1.362  0.00  0.00     0.253 A 
ATOM     28  N5  <0> d          -3.739  -0.535  -2.501  0.00  0.00    -0.322 N 
ATOM     29  O1  <0> d          -3.723  -1.905  -0.764  0.00  0.00    -0.268 OA
ATOM     30  C25 <0> d          -3.164   0.500  -3.207  0.00  0.00     0.051 A 
ATOM     31  H2  <0> d          -4.555  -0.944  -2.831  0.00  0.00     0.169 HD
ATOM     32  C20 <0> d          -1.980   1.094  -2.729  0.00  0.00    -0.008 A 
ATOM     33  C24 <0> d          -3.736   0.968  -4.385  0.00  0.00    -0.028 A 
ATOM     34  C19 <0> d          -1.389   0.597  -1.485  0.00  0.00     0.028 A 
ATOM     35  C21 <0> d          -1.392   2.143  -3.442  0.00  0.00     0.014 A 
ATOM     36  C22 <0> d          -1.971   2.587  -4.597  0.00  0.00     0.008 A 
ATOM     37  C23 <0> d          -3.139   2.004  -5.071  0.00  0.00    -0.054 A 
ATOM     38  C28 <0> d          -3.760   2.509  -6.347  0.00  0.00     0.049 C 
ATOM     39  C27 <0> d          -5.002   0.343  -4.912  0.00  0.00     0.051 C 
ENDBRANCH  25  26
ENDBRANCH   1  25
TORSDOF 9
