REMARK  6 active torsions:
REMARK  status: ('A' for Active; 'I' for Inactive)
REMARK    1  A    between atoms: C6_6  and  N1_8 
REMARK    2  A    between atoms: N2_11  and  C13_15 
REMARK    3  A    between atoms: C13_15  and  C14_16 
REMARK       I    between atoms: C14_16  and  N3_18 
REMARK    4  A    between atoms: N3_18  and  C15_19 
REMARK    5  A    between atoms: C22_27  and  C23_28 
REMARK    6  A    between atoms: C23_28  and  O3_30 
ROOT
ATOM      1  C14 <0> d           1.888  -5.298   7.551  0.00  0.00     0.247 C 
ATOM      2  O1  <0> d           1.346  -4.249   7.277  0.00  0.00    -0.271 OA
ATOM      3  N3  <0> d           2.304  -5.532   8.811  0.00  0.00    -0.326 N 
ATOM      4  H21 <0> d           2.802  -6.339   9.016  0.00  0.00     0.168 HD
ENDROOT
BRANCH   1   5
ATOM      5  C13 <0> d           2.095  -6.341   6.483  0.00  0.00     0.337 C 
BRANCH   5   6
ATOM      6  N2  <0> d           1.558  -5.848   5.207  0.00  0.00    -0.059 N 
ATOM      7  C9  <0> d           2.335  -4.682   4.769  0.00  0.00     0.255 C 
ATOM      8  C8  <0> d           1.706  -4.099   3.499  0.00  0.00     0.151 C 
ATOM      9  N1  <0> d           1.601  -5.170   2.497  0.00  0.00    -0.373 N 
ATOM     10  C11 <0> d           0.975  -6.438   2.900  0.00  0.00     0.106 C 
ATOM     11  C10 <0> d           1.643  -6.913   4.200  0.00  0.00     0.260 C 
ATOM     12  C12 <0> d           1.179  -7.485   1.803  0.00  0.00     0.034 C 
ATOM     13  H29 <0> d           0.594  -5.581   5.332  0.00  0.00     0.280 HD
BRANCH   9  14
ATOM     14  C6  <0> d           2.076  -4.986   1.196  0.00  0.00     0.031 A 
ATOM     15  C5  <0> d           1.238  -4.473   0.214  0.00  0.00     0.029 A 
ATOM     16  C4  <0> d           1.712  -4.292  -1.070  0.00  0.00     0.003 A 
ATOM     17  C3  <0> d           3.019  -4.621  -1.379  0.00  0.00     0.007 A 
ATOM     18  C2  <0> d           3.857  -5.131  -0.404  0.00  0.00    -0.060 A 
ATOM     19  C1  <0> d           5.280  -5.487  -0.746  0.00  0.00     0.048 C 
ATOM     20  C7  <0> d           3.388  -5.320   0.881  0.00  0.00     0.036 A 
ENDBRANCH   9  14
ENDBRANCH   5   6
ENDBRANCH   1   5
BRANCH   3  21
ATOM     21  C15 <0> d           2.026  -4.635   9.799  0.00  0.00     0.057 A 
ATOM     22  C22 <0> d           1.185  -3.383   9.684  0.00  0.00     0.233 A 
ATOM     23  N4  <0> d           1.190  -2.769  11.016  0.00  0.00    -0.371 N 
ATOM     24  C21 <0> d           1.921  -3.507  11.827  0.00  0.00     0.041 A 
ATOM     25  H28 <0> d           0.732  -1.950  11.259  0.00  0.00     0.161 HD
ATOM     26  C16 <0> d           2.460  -4.677  11.112  0.00  0.00     0.017 A 
ATOM     27  C20 <0> d           2.245  -3.354  13.200  0.00  0.00     0.031 A 
ATOM     28  C17 <0> d           3.274  -5.593  11.820  0.00  0.00     0.034 A 
ATOM     29  C18 <0> d           3.541  -5.380  13.133  0.00  0.00     0.011 A 
ATOM     30  C19 <0> d           3.030  -4.271  13.814  0.00  0.00     0.021 A 
ATOM     31 Br1  <0> d           4.630  -6.614  14.065  0.00  0.00    -0.051 Br
BRANCH  22  32
ATOM     32  C23 <0> d          -0.224  -3.739   9.285  0.00  0.00     0.287 C 
ATOM     33  O2  <0> d          -1.008  -4.128  10.119  0.00  0.00    -0.262 OA
BRANCH  32  34
ATOM     34  O3  <0> d          -0.608  -3.625   8.004  0.00  0.00    -0.325 OA
ATOM     35  C24 <0> d          -1.958  -3.980   7.698  0.00  0.00     0.213 C 
ENDBRANCH  32  34
ENDBRANCH  22  32
ENDBRANCH   3  21
TORSDOF 6
