REMARK  4 active torsions:
REMARK  status: ('A' for Active; 'I' for Inactive)
REMARK    1  A    between atoms: C3_3  and  S1_9 
REMARK    2  A    between atoms: S1_9  and  N3_12 
REMARK    3  A    between atoms: N3_12  and  C7_13 
REMARK    4  A    between atoms: C7_13  and  C12_18 
ROOT
ATOM      1  N3  <0> d           1.882  -0.368  -2.753  0.00  0.00    -0.299 N 
ATOM      2  H10 <0> d           2.246   0.512  -2.940  0.00  0.00     0.173 HD
ENDROOT
BRANCH   1   3
ATOM      3  S1  <0> d           0.288  -0.534  -2.339  0.00  0.00     0.263 S 
ATOM      4  O1  <0> d          -0.305  -1.363  -3.329  0.00  0.00    -0.200 OA
ATOM      5  O2  <0> d          -0.195   0.771  -2.049  0.00  0.00    -0.200 OA
BRANCH   3   6
ATOM      6  C3  <0> d           0.234  -1.438  -0.827  0.00  0.00     0.129 A 
ATOM      7  C2  <0> d           0.516  -0.930   0.446  0.00  0.00     0.076 A 
ATOM      8  C1  <0> d           0.921   0.486   0.762  0.00  0.00     0.074 C 
ATOM      9  N2  <0> d           0.374  -1.900   1.313  0.00  0.00    -0.176 NA
ATOM     10  N1  <0> d          -0.013  -3.054   0.620  0.00  0.00    -0.277 N 
ATOM     11  C4  <0> d          -0.089  -2.745  -0.692  0.00  0.00     0.051 A 
ATOM     12  C5  <0> d          -0.283  -4.366   1.213  0.00  0.00     0.179 C 
ATOM     13  C6  <0> d          -0.465  -3.687  -1.806  0.00  0.00     0.072 C 
ENDBRANCH   3   6
ENDBRANCH   1   3
BRANCH   1  14
ATOM     14  C7  <0> d           2.744  -1.550  -2.837  0.00  0.00     0.093 C 
ATOM     15  C11 <0> d           1.948  -2.763  -3.362  0.00  0.00     0.039 C 
ATOM     16  C10 <0> d           2.187  -2.822  -4.881  0.00  0.00     0.003 C 
ATOM     17  C9  <0> d           3.120  -1.643  -5.226  0.00  0.00     0.003 C 
ATOM     18  C8  <0> d           3.854  -1.337  -3.897  0.00  0.00     0.039 C 
BRANCH  14  19
ATOM     19  C12 <0> d           3.348  -1.857  -1.492  0.00  0.00     0.100 C 
ATOM     20  S2  <0> d           3.292  -3.346  -0.912  0.00  0.00    -0.063 SA
ATOM     21  N4  <0> d           3.936  -0.877  -0.777  0.00  0.00    -0.391 N 
ATOM     22  H19 <0> d           3.903   0.039  -1.092  0.00  0.00     0.156 HD
ATOM     23  H20 <0> d           4.392  -1.089   0.053  0.00  0.00     0.156 HD
ENDBRANCH  14  19
ENDBRANCH   1  14
TORSDOF 4
