REMARK  4 active torsions:
REMARK  status: ('A' for Active; 'I' for Inactive)
REMARK    1  A    between atoms: C4_4  and  S1_7 
REMARK    2  A    between atoms: S1_7  and  O3_10 
REMARK    3  A    between atoms: O3_10  and  C7_11 
REMARK    4  A    between atoms: C11_15  and  C13_17 
ROOT
ATOM      1  C7  <0> d           3.278  -2.242   1.381  0.00  0.00     0.090 A 
ATOM      2  C8  <0> d           2.409  -1.753   2.349  0.00  0.00     0.038 A 
ATOM      3  C9  <0> d           2.009  -2.559   3.400  0.00  0.00     0.004 A 
ATOM      4  C10 <0> d           2.468  -3.855   3.495  0.00  0.00     0.011 A 
ATOM      5  C11 <0> d           3.344  -4.360   2.525  0.00  0.00    -0.032 A 
ATOM      6  C12 <0> d           3.743  -3.542   1.459  0.00  0.00     0.049 A 
ENDROOT
BRANCH   5   7
ATOM      7  C13 <0> d           3.836  -5.737   2.620  0.00  0.00     0.033 C 
ATOM      8  C14 <0> d           5.180  -6.005   2.440  0.00  0.00     0.089 A 
ATOM      9  C17 <0> d           5.680  -7.388   2.298  0.00  0.00     0.262 A 
ATOM     10  C15 <0> d           6.180  -4.925   2.388  0.00  0.00     0.218 A 
ATOM     11  N2  <0> d           7.007  -7.562   2.120  0.00  0.00    -0.298 N 
ATOM     12  O5  <0> d           4.921  -8.338   2.335  0.00  0.00    -0.267 OA
ATOM     13  C16 <0> d           7.844  -6.514   2.085  0.00  0.00     0.203 A 
ATOM     14  H11 <0> d           7.362  -8.459   2.019  0.00  0.00     0.171 HD
ATOM     15  N1  <0> d           7.448  -5.250   2.213  0.00  0.00    -0.192 NA
ATOM     16  S2  <0> d           9.513  -6.820   1.863  0.00  0.00    -0.038 SA
ATOM     17  O4  <0> d           5.810  -3.633   2.516  0.00  0.00    -0.169 OA
ENDBRANCH   5   7
BRANCH   1  18
ATOM     18  O3  <0> d           3.666  -1.443   0.352  0.00  0.00    -0.229 OA
BRANCH  18  19
ATOM     19  S1  <0> d           2.755  -1.514  -0.865  0.00  0.00     0.303 S 
ATOM     20  O1  <0> d           2.370  -2.874  -1.006  0.00  0.00    -0.193 OA
ATOM     21  O2  <0> d           3.407  -0.795  -1.903  0.00  0.00    -0.193 OA
BRANCH  19  22
ATOM     22  C4  <0> d           1.292  -0.614  -0.473  0.00  0.00     0.086 A 
ATOM     23  C3  <0> d           1.216   0.738  -0.751  0.00  0.00     0.026 A 
ATOM     24  C2  <0> d           0.068   1.444  -0.444  0.00  0.00     0.002 A 
ATOM     25  C1  <0> d          -1.006   0.797   0.140  0.00  0.00     0.000 A 
ATOM     26  C6  <0> d          -0.930  -0.555   0.417  0.00  0.00     0.002 A 
ATOM     27  C5  <0> d           0.219  -1.260   0.112  0.00  0.00     0.026 A 
ENDBRANCH  19  22
ENDBRANCH  18  19
ENDBRANCH   1  18
TORSDOF 4
