REMARK  5 active torsions:
REMARK  status: ('A' for Active; 'I' for Inactive)
REMARK    1  A    between atoms: C3_4  and  C5_7 
REMARK    2  A    between atoms: C5_7  and  N3_8 
REMARK       I    between atoms: N3_8  and  C6_9 
REMARK    3  A    between atoms: C6_9  and  C7_11 
REMARK    4  A    between atoms: C12_16  and  N4_17 
REMARK    5  A    between atoms: N4_17  and  S1_19 
ROOT
ATOM      1  C7  <0> d           3.074  -5.123  -2.931  0.00  0.00     0.059 A 
ATOM      2  C8  <0> d           4.133  -4.380  -2.401  0.00  0.00     0.019 A 
ATOM      3  C9  <0> d           5.432  -4.740  -2.681  0.00  0.00     0.001 A 
ATOM      4  C10 <0> d           5.698  -5.835  -3.488  0.00  0.00     0.002 A 
ATOM      5  C11 <0> d           4.664  -6.578  -4.019  0.00  0.00     0.031 A 
ATOM      6  C12 <0> d           3.346  -6.235  -3.743  0.00  0.00     0.060 A 
ENDROOT
BRANCH   1   7
ATOM      7  C6  <0> d           1.681  -4.744  -2.635  0.00  0.00     0.254 C 
ATOM      8  N3  <0> d           1.424  -3.675  -1.855  0.00  0.00    -0.352 N 
ATOM      9  H8  <0> d           2.156  -3.155  -1.489  0.00  0.00     0.163 HD
ATOM     10  O1  <0> d           0.762  -5.396  -3.095  0.00  0.00    -0.268 OA
BRANCH   8  11
ATOM     11  C5  <0> d           0.039  -3.298  -1.561  0.00  0.00     0.164 C 
BRANCH  11  12
ATOM     12  C3  <0> d           0.027  -2.079  -0.676  0.00  0.00    -0.004 A 
ATOM     13  C2  <0> d           0.008  -0.792  -1.094  0.00  0.00     0.122 A 
ATOM     14  N1  <0> d           0.002  -0.004   0.002  0.00  0.00    -0.285 N 
ATOM     15  C1  <0> d          -0.018   1.461   0.010  0.00  0.00     0.179 C 
ATOM     16  N2  <0> d           0.025  -0.834   1.130  0.00  0.00    -0.185 NA
ATOM     17  C4  <0> d           0.034  -2.078   0.723  0.00  0.00     0.149 A 
ENDBRANCH  11  12
ENDBRANCH   8  11
ENDBRANCH   1   7
BRANCH   6  18
ATOM     18  N4  <0> d           2.304  -6.985  -4.271  0.00  0.00    -0.280 N 
ATOM     19  C13 <0> d           1.843  -8.190  -3.577  0.00  0.00     0.169 C 
BRANCH  18  20
ATOM     20  S1  <0> d           1.583  -6.518  -5.687  0.00  0.00     0.228 S 
ATOM     21  O2  <0> d           0.269  -7.055  -5.620  0.00  0.00    -0.206 OA
ATOM     22  O3  <0> d           1.788  -5.113  -5.752  0.00  0.00    -0.206 OA
ATOM     23  C14 <0> d           2.532  -7.349  -6.990  0.00  0.00     0.186 C 
ENDBRANCH  18  20
ENDBRANCH   6  18
TORSDOF 5
