REMARK  4 active torsions:
REMARK  status: ('A' for Active; 'I' for Inactive)
REMARK    1  A    between atoms: C5_6  and  N1_23 
REMARK    2  A    between atoms: C9_10  and  C13_15 
REMARK    3  A    between atoms: C11_12  and  C12_14 
REMARK    4  A    between atoms: C11_12  and  N2_25 
ROOT
ATOM      1  C5  <0> d          -0.105   4.103  -1.460  0.00  0.00     0.239 C 
ATOM      2  C6  <0> d          -1.060   3.212  -0.606  0.00  0.00     0.063 C 
ATOM      3  C7  <0> d          -0.431   3.237   0.817  0.00  0.00     0.000 C 
ATOM      4  C8  <0> d          -0.689   1.765   1.251  0.00  0.00     0.011 C 
ATOM      5  C9  <0> d          -0.013   1.086   0.008  0.00  0.00     0.000 C 
ATOM      6  C10 <0> d          -0.761   1.768  -1.174  0.00  0.00     0.063 C 
ATOM      7  C11 <0> d           0.272   2.010  -2.242  0.00  0.00     0.239 C 
ATOM      8  O2  <0> d          -0.106   3.346  -2.724  0.00  0.00    -0.314 OA
ATOM      9  C12 <0> d           1.598   2.306  -1.418  0.00  0.00     0.064 A 
ATOM     10  C13 <0> d           1.377   1.791  -0.002  0.00  0.00     0.004 A 
ATOM     11  C14 <0> d           1.093   3.218   0.520  0.00  0.00     0.004 A 
ATOM     12  C15 <0> d           1.345   3.758  -0.884  0.00  0.00     0.064 A 
ENDROOT
BRANCH   1  13
ATOM     13  N1  <0> d          -0.437   5.540  -1.569  0.00  0.00    -0.034 N 
ATOM     14  C1  <0> d          -0.295   6.193  -0.251  0.00  0.00     0.265 C 
ATOM     15  C2  <0> d          -0.609   7.683  -0.404  0.00  0.00     0.195 C 
ATOM     16  O1  <0> d          -1.930   7.835  -0.932  0.00  0.00    -0.388 OA
ATOM     17  C3  <0> d          -2.119   7.199  -2.199  0.00  0.00     0.195 C 
ATOM     18  C4  <0> d          -1.820   5.704  -2.064  0.00  0.00     0.265 C 
ATOM     19  H27 <0> d           0.209   5.982  -2.233  0.00  0.00     0.283 HD
ENDBRANCH   1  13
BRANCH   7  20
ATOM     20  N2  <0> d           0.377   0.940  -3.257  0.00  0.00    -0.034 N 
ATOM     21  C16 <0> d           1.464   1.252  -4.209  0.00  0.00     0.265 C 
ATOM     22  C17 <0> d           1.570   0.110  -5.224  0.00  0.00     0.195 C 
ATOM     23  O3  <0> d           0.313  -0.050  -5.887  0.00  0.00    -0.388 OA
ATOM     24  C18 <0> d          -0.774  -0.331  -5.001  0.00  0.00     0.195 C 
ATOM     25  C19 <0> d          -0.903   0.806  -3.984  0.00  0.00     0.265 C 
ATOM     26  H28 <0> d           0.589   0.053  -2.787  0.00  0.00     0.283 HD
ENDBRANCH   7  20
TORSDOF 4
