REMARK  7 active torsions:
REMARK  status: ('A' for Active; 'I' for Inactive)
REMARK    1  A    between atoms: C7_7  and  N1_8 
REMARK       I    between atoms: N1_8  and  C8_9 
REMARK    2  A    between atoms: C8_9  and  C9_11 
REMARK    3  A    between atoms: C9_11  and  N2_17 
REMARK    4  A    between atoms: N2_17  and  C15_18 
REMARK       I    between atoms: N2_17  and  C25_29 
REMARK    5  A    between atoms: C15_18  and  C16_19 
REMARK    6  A    between atoms: C16_19  and  C17_20 
REMARK    7  A    between atoms: C25_29  and  C26_31 
ROOT
ATOM      1  N2  <0> d           0.692   1.155   4.074  0.00  0.00    -0.329 N 
ATOM      2  C25 <0> d           0.306   2.244   3.380  0.00  0.00     0.256 C 
ATOM      3  O2  <0> d           1.051   3.200   3.285  0.00  0.00    -0.267 OA
ENDROOT
BRANCH   1   4
ATOM      4  C9  <0> d          -0.102   0.694   5.214  0.00  0.00     0.116 C 
ATOM      5  C14 <0> d           0.790   0.602   6.454  0.00  0.00     0.041 C 
ATOM      6  C13 <0> d           1.375   1.981   6.764  0.00  0.00     0.003 C 
ATOM      7  C12 <0> d           0.238   2.970   7.027  0.00  0.00     0.000 C 
ATOM      8  C11 <0> d          -0.655   3.062   5.788  0.00  0.00     0.003 C 
ATOM      9  C10 <0> d          -1.240   1.683   5.477  0.00  0.00     0.041 C 
BRANCH   4  10
ATOM     10  C8  <0> d          -0.678  -0.665   4.909  0.00  0.00     0.250 C 
ATOM     11  N1  <0> d          -1.047  -0.973   3.649  0.00  0.00    -0.324 N 
ATOM     12  H7  <0> d          -0.889  -0.341   2.930  0.00  0.00     0.169 HD
ATOM     13  O1  <0> d          -0.810  -1.481   5.796  0.00  0.00    -0.270 OA
BRANCH  11  14
ATOM     14  C7  <0> d          -1.657  -2.203   3.380  0.00  0.00     0.046 A 
ATOM     15  C2  <0> d          -1.102  -3.064   2.442  0.00  0.00    -0.035 A 
ATOM     16  C1  <0> d           0.158  -2.674   1.712  0.00  0.00     0.050 C 
ATOM     17  C3  <0> d          -1.703  -4.280   2.182  0.00  0.00     0.009 A 
ATOM     18  C4  <0> d          -2.859  -4.638   2.851  0.00  0.00     0.001 A 
ATOM     19  C5  <0> d          -3.417  -3.781   3.781  0.00  0.00     0.009 A 
ATOM     20  C6  <0> d          -2.821  -2.563   4.045  0.00  0.00    -0.035 A 
ATOM     21  C32 <0> d          -3.430  -1.629   5.059  0.00  0.00     0.050 C 
ENDBRANCH  11  14
ENDBRANCH   4  10
ENDBRANCH   1   4
BRANCH   1  22
ATOM     22  C15 <0> d           1.907   0.433   3.687  0.00  0.00     0.132 C 
BRANCH  22  23
ATOM     23  C16 <0> d           1.586  -0.527   2.539  0.00  0.00     0.057 C 
BRANCH  23  24
ATOM     24  C17 <0> d           2.835  -1.270   2.141  0.00  0.00    -0.048 A 
ATOM     25  C24 <0> d           3.903  -0.802   1.178  0.00  0.00     0.155 A 
ATOM     26  N3  <0> d           4.903  -1.875   1.134  0.00  0.00    -0.385 N 
ATOM     27  C23 <0> d           4.512  -2.844   1.927  0.00  0.00     0.038 A 
ATOM     28  H35 <0> d           5.715  -1.871   0.604  0.00  0.00     0.160 HD
ATOM     29  C18 <0> d           3.225  -2.493   2.569  0.00  0.00    -0.006 A 
ATOM     30  C22 <0> d           5.097  -4.100   2.248  0.00  0.00     0.030 A 
ATOM     31  C19 <0> d           2.626  -3.459   3.497  0.00  0.00     0.014 A 
ATOM     32  C20 <0> d           3.267  -4.627   3.732  0.00  0.00     0.001 A 
ATOM     33  C21 <0> d           4.486  -4.936   3.112  0.00  0.00     0.002 A 
ENDBRANCH  23  24
ENDBRANCH  22  23
ENDBRANCH   1  22
BRANCH   2  34
ATOM     34  C26 <0> d          -1.023   2.276   2.735  0.00  0.00     0.053 A 
ATOM     35  C31 <0> d          -1.300   3.222   1.744  0.00  0.00     0.049 A 
ATOM     36  C30 <0> d          -2.543   3.242   1.142  0.00  0.00     0.025 A 
ATOM     37 Cl1  <0> d          -0.083   4.364   1.267  0.00  0.00    -0.083 Cl
ATOM     38  C29 <0> d          -3.515   2.337   1.526  0.00  0.00     0.002 A 
ATOM     39  C28 <0> d          -3.249   1.401   2.511  0.00  0.00     0.001 A 
ATOM     40  C27 <0> d          -2.010   1.366   3.117  0.00  0.00     0.019 A 
ENDBRANCH   2  34
TORSDOF 7
