REMARK  7 active torsions:
REMARK  status: ('A' for Active; 'I' for Inactive)
REMARK    1  A    between atoms: C2_2  and  C3_3 
REMARK    2  A    between atoms: C2_2  and  N3_19 
REMARK    3  A    between atoms: C8_8  and  O1_9 
REMARK    4  A    between atoms: O1_9  and  C9_10 
REMARK    5  A    between atoms: C9_10  and  C10_11 
REMARK    6  A    between atoms: C10_11  and  C11_12 
REMARK    7  A    between atoms: C11_12  and  N1_13 
ROOT
ATOM      1  C3  <0> d           0.731  -0.503   1.223  0.00  0.00     0.006 A 
ATOM      2  C4  <0> d           0.018  -0.951   2.319  0.00  0.00     0.031 A 
ATOM      3  C5  <0> d           0.687  -1.409   3.440  0.00  0.00     0.011 A 
ATOM      4  C6  <0> d           2.070  -1.421   3.466  0.00  0.00     0.022 A 
ATOM      5  C7  <0> d           2.786  -0.975   2.372  0.00  0.00     0.039 A 
ATOM      6  C8  <0> d           2.118  -0.519   1.245  0.00  0.00     0.077 A 
ATOM      7 Br1  <0> d          -0.291  -2.020   4.938  0.00  0.00    -0.051 Br
ENDROOT
BRANCH   6   8
ATOM      8  O1  <0> d           2.821  -0.085   0.166  0.00  0.00    -0.350 OA
BRANCH   8   9
ATOM      9  C9  <0> d           4.246  -0.130   0.259  0.00  0.00     0.177 C 
BRANCH   9  10
ATOM     10  C10 <0> d           4.859   0.396  -1.040  0.00  0.00     0.047 C 
BRANCH  10  11
ATOM     11  C11 <0> d           6.385   0.347  -0.941  0.00  0.00     0.131 C 
BRANCH  11  12
ATOM     12  N1  <0> d           6.972   0.850  -2.185  0.00  0.00    -0.352 N 
ATOM     13  C14 <0> d           7.298   2.132  -2.457  0.00  0.00     0.182 A 
ATOM     14  N2  <0> d           7.796   2.191  -3.662  0.00  0.00    -0.361 N 
ATOM     15  C13 <0> d           7.798   0.962  -4.200  0.00  0.00     0.106 A 
ATOM     16  H20 <0> d           8.112   2.996  -4.100  0.00  0.00     0.166 HD
ATOM     17  C12 <0> d           7.286   0.109  -3.292  0.00  0.00     0.108 A 
ENDBRANCH  11  12
ENDBRANCH  10  11
ENDBRANCH   9  10
ENDBRANCH   8   9
ENDBRANCH   6   8
BRANCH   1  18
ATOM     18  C2  <0> d           0.002  -0.004   0.002  0.00  0.00     0.215 C 
ATOM     19  C1  <0> d          -0.019   1.526   0.010  0.00  0.00     0.045 C 
BRANCH  18  20
ATOM     20  N3  <0> d          -1.376  -0.512   0.012  0.00  0.00    -0.071 N 
ATOM     21  H17 <0> d          -1.864  -0.178  -0.805  0.00  0.00     0.275 HD
ATOM     22  H18 <0> d          -1.362  -1.521   0.007  0.00  0.00     0.275 HD
ATOM     23  H19 <0> d          -1.848  -0.187   0.843  0.00  0.00     0.275 HD
ENDBRANCH  18  20
ENDBRANCH   1  18
TORSDOF 7
