REMARK  5 active torsions:
REMARK  status: ('A' for Active; 'I' for Inactive)
REMARK       I    between atoms: N1_2  and  C2_3 
REMARK    1  A    between atoms: C2_3  and  C3_5 
REMARK    2  A    between atoms: C3_5  and  N2_6 
REMARK    3  A    between atoms: C6_9  and  N3_12 
REMARK       I    between atoms: N3_12  and  C9_13 
REMARK    4  A    between atoms: C9_13  and  C10_15 
REMARK    5  A    between atoms: C11_16  and  C12_17 
ROOT
ATOM      1  N3  <0> d          -5.771  -5.527   0.294  0.00  0.00    -0.353 N 
ATOM      2  C9  <0> d          -6.186  -6.693  -0.240  0.00  0.00     0.241 C 
ATOM      3  O2  <0> d          -5.371  -7.490  -0.668  0.00  0.00    -0.269 OA
ATOM      4  H16 <0> d          -6.420  -4.891   0.635  0.00  0.00     0.163 HD
ENDROOT
BRANCH   1   5
ATOM      5  C6  <0> d          -4.340  -5.218   0.358  0.00  0.00     0.087 C 
ATOM      6  C5  <0> d          -4.145  -3.700   0.395  0.00  0.00     0.053 C 
ATOM      7  C4  <0> d          -2.654  -3.386   0.542  0.00  0.00     0.237 C 
ATOM      8  N2  <0> d          -2.147  -3.977   1.786  0.00  0.00    -0.063 N 
ATOM      9  C8  <0> d          -2.265  -5.439   1.728  0.00  0.00     0.237 C 
ATOM     10  H31 <0> d          -2.684  -3.628   2.566  0.00  0.00     0.280 HD
ATOM     11  C7  <0> d          -3.740  -5.832   1.627  0.00  0.00     0.053 C 
BRANCH   8  12
ATOM     12  C3  <0> d          -0.736  -3.608   1.962  0.00  0.00     0.337 C 
BRANCH  12  13
ATOM     13  C2  <0> d          -0.626  -2.116   2.145  0.00  0.00     0.243 C 
ATOM     14  N1  <0> d           0.583  -1.547   2.325  0.00  0.00    -0.364 N 
ATOM     15  C1  <0> d           0.690  -0.097   2.503  0.00  0.00     0.149 C 
ATOM     16  H4  <0> d           1.381  -2.097   2.336  0.00  0.00     0.161 HD
ATOM     17  O1  <0> d          -1.624  -1.428   2.131  0.00  0.00    -0.272 OA
ENDBRANCH  12  13
ENDBRANCH   8  12
ENDBRANCH   1   5
BRANCH   2  18
ATOM     18  C10 <0> d          -7.613  -7.001  -0.304  0.00  0.00     0.075 C 
ATOM     19  C11 <0> d          -8.029  -8.169  -0.838  0.00  0.00     0.017 C 
BRANCH  19  20
ATOM     20  C12 <0> d          -9.464  -8.479  -0.902  0.00  0.00    -0.035 A 
ATOM     21  C17 <0> d          -9.897  -9.688  -1.455  0.00  0.00     0.021 A 
ATOM     22  C16 <0> d         -11.245  -9.979  -1.511  0.00  0.00    -0.031 A 
ATOM     23  C15 <0> d         -12.167  -9.062  -1.022  0.00  0.00     0.036 A 
ATOM     24  C18 <0> d         -11.681 -11.288  -2.115  0.00  0.00     0.042 C 
ATOM     25  C14 <0> d         -11.734  -7.853  -0.477  0.00  0.00     0.031 A 
ATOM     26  N4  <0> d         -13.534  -9.332  -1.065  0.00  0.00    -0.385 N 
ATOM     27  C13 <0> d         -10.403  -7.561  -0.416  0.00  0.00     0.013 A 
ATOM     28  C20 <0> d         -14.014 -10.443  -1.897  0.00  0.00     0.123 C 
ATOM     29  C21 <0> d         -14.477  -8.521  -0.290  0.00  0.00     0.149 C 
ATOM     30  C19 <0> d         -13.093 -11.646  -1.652  0.00  0.00     0.024 C 
ENDBRANCH  19  20
ENDBRANCH   2  18
TORSDOF 5
