REMARK  7 active torsions:
REMARK  status: ('A' for Active; 'I' for Inactive)
REMARK    1  A    between atoms: O1_2  and  C2_3 
REMARK    2  A    between atoms: C7_9  and  C13_16 
REMARK    3  A    between atoms: C14_17  and  O6_34 
REMARK    4  A    between atoms: C15_19  and  O5_33 
REMARK    5  A    between atoms: N4_20  and  C17_23 
REMARK    6  A    between atoms: C19_25  and  O4_31 
REMARK    7  A    between atoms: C22_28  and  O3_29 
ROOT
ATOM      1  C13 <0> d          -6.390  -5.153  -0.846  0.00  0.00     0.190 C 
ATOM      2  C14 <0> d          -6.629  -5.848   0.462  0.00  0.00     0.152 C 
ATOM      3  N3  <0> d          -6.844  -7.104   0.551  0.00  0.00    -0.218 NA
ATOM      4  C15 <0> d          -6.880  -8.009  -0.586  0.00  0.00     0.361 C 
ATOM      5  N4  <0> d          -7.117  -7.307  -1.839  0.00  0.00    -0.268 N 
ATOM      6  C16 <0> d          -6.890  -5.999  -1.983  0.00  0.00     0.242 C 
ATOM      7  O2  <0> d          -7.093  -5.482  -3.061  0.00  0.00    -0.272 OA
ENDROOT
BRANCH   1   8
ATOM      8  C7  <0> d          -4.890  -4.905  -1.021  0.00  0.00     0.268 C 
ATOM      9  C6  <0> d          -4.374  -4.036   0.129  0.00  0.00     0.146 C 
ATOM     10  N1  <0> d          -4.814  -2.649   0.026  0.00  0.00    -0.379 N 
ATOM     11  C10 <0> d          -2.859  -3.987   0.008  0.00  0.00    -0.041 C 
ATOM     12  C5  <0> d          -3.753  -1.875   0.037  0.00  0.00     0.039 A 
ATOM     13  H27 <0> d          -5.734  -2.349  -0.039  0.00  0.00     0.160 HD
ATOM     14  C4  <0> d          -3.606  -0.417   0.033  0.00  0.00     0.033 A 
ATOM     15  C11 <0> d          -2.514  -2.694   0.017  0.00  0.00    -0.003 A 
ATOM     16  C3  <0> d          -2.375   0.136   0.020  0.00  0.00     0.039 A 
ATOM     17  C2  <0> d          -1.200  -0.637   0.010  0.00  0.00     0.069 A 
ATOM     18  C12 <0> d          -1.226  -1.991   0.003  0.00  0.00     0.050 A 
ATOM     19  C9  <0> d          -2.035  -5.237  -0.210  0.00  0.00     0.067 C 
ATOM     20  C8  <0> d          -2.743  -6.055  -1.306  0.00  0.00     0.274 C 
ATOM     21  N2  <0> d          -4.169  -6.187  -0.992  0.00  0.00     0.092 N 
ATOM     22  H10 <0> d          -4.303  -6.658  -0.110  0.00  0.00     0.316 HD
BRANCH  17  23
ATOM     23  O1  <0> d           0.002  -0.004   0.002  0.00  0.00    -0.356 OA
ATOM     24  C1  <0> d          -0.017   1.425   0.010  0.00  0.00     0.210 C 
ENDBRANCH  17  23
ENDBRANCH   1   8
BRANCH   2  25
ATOM     25  O6  <0> d          -6.617  -5.115   1.594  0.00  0.00    -0.347 OA
ATOM     26  H26 <0> d          -6.778  -5.628   2.397  0.00  0.00     0.219 HD
ENDBRANCH   2  25
BRANCH   5  27
ATOM     27  C17 <0> d          -7.602  -8.033  -2.935  0.00  0.00     0.077 A 
ATOM     28  C22 <0> d          -6.712  -8.627  -3.826  0.00  0.00     0.095 A 
ATOM     29  C21 <0> d          -7.194  -9.349  -4.906  0.00  0.00     0.042 A 
ATOM     30  C20 <0> d          -8.556  -9.470  -5.106  0.00  0.00     0.039 A 
ATOM     31  C19 <0> d          -9.445  -8.874  -4.223  0.00  0.00     0.070 A 
ATOM     32  C18 <0> d          -8.968  -8.155  -3.138  0.00  0.00     0.069 A 
BRANCH  28  33
ATOM     33  O3  <0> d          -5.371  -8.504  -3.633  0.00  0.00    -0.354 OA
ATOM     34  C23 <0> d          -4.517  -9.140  -4.586  0.00  0.00     0.210 C 
ENDBRANCH  28  33
BRANCH  31  35
ATOM     35  O4  <0> d         -10.784  -8.995  -4.423  0.00  0.00    -0.356 OA
ATOM     36  C24 <0> d         -11.205  -9.749  -5.562  0.00  0.00     0.210 C 
ENDBRANCH  31  35
ENDBRANCH   5  27
BRANCH   4  37
ATOM     37  O5  <0> d          -5.630  -8.697  -0.671  0.00  0.00    -0.358 OA
ATOM     38  H25 <0> d          -5.416  -9.223   0.112  0.00  0.00     0.214 HD
ENDBRANCH   4  37
TORSDOF 7
