REMARK  4 active torsions:
REMARK  status: ('A' for Active; 'I' for Inactive)
REMARK    1  A    between atoms: C2_4  and  C16_23 
REMARK    2  A    between atoms: C5_8  and  C6_9 
REMARK    3  A    between atoms: N5_17  and  C13_18 
REMARK    4  A    between atoms: C13_18  and  C14_19 
ROOT
ATOM      1  C1  <0> d          -0.018   1.461   0.010  0.00  0.00     0.182 C 
ATOM      2  N1  <0> d           0.002  -0.004   0.002  0.00  0.00    -0.254 N 
ATOM      3  N2  <0> d           0.007  -0.730  -1.058  0.00  0.00    -0.168 NA
ATOM      4  C2  <0> d           0.026  -2.027  -0.748  0.00  0.00     0.119 A 
ATOM      5  C3  <0> d           0.033  -2.112   0.645  0.00  0.00     0.113 A 
ATOM      6  C4  <0> d           0.023  -0.773   1.099  0.00  0.00     0.177 A 
ATOM      7  N3  <0> d           0.036  -0.807   2.437  0.00  0.00    -0.206 NA
ATOM      8  C5  <0> d           0.057  -2.052   2.857  0.00  0.00     0.175 A 
ATOM      9  N6  <0> d           0.049  -2.901   1.773  0.00  0.00    -0.333 N 
ATOM     10  H1  <0> d           0.063  -3.871   1.800  0.00  0.00     0.168 HD
ENDROOT
BRANCH   8  11
ATOM     11  C6  <0> d           0.075  -2.471   4.261  0.00  0.00     0.156 A 
ATOM     12  N5  <0> d           0.074  -1.639   5.319  0.00  0.00    -0.325 N 
ATOM     13  C12 <0> d           0.091  -2.403   6.475  0.00  0.00     0.063 A 
ATOM     14  C7  <0> d           0.113  -3.743   6.075  0.00  0.00     0.061 A 
ATOM     15  C11 <0> d           0.095  -2.086   7.828  0.00  0.00     0.032 A 
ATOM     16  N4  <0> d           0.102  -3.747   4.689  0.00  0.00    -0.337 N 
ATOM     17  C8  <0> d           0.138  -4.749   7.032  0.00  0.00     0.032 A 
ATOM     18  H5  <0> d           0.112  -4.535   4.124  0.00  0.00     0.167 HD
ATOM     19  C9  <0> d           0.142  -4.422   8.372  0.00  0.00     0.002 A 
ATOM     20  C10 <0> d           0.120  -3.095   8.768  0.00  0.00     0.002 A 
BRANCH  12  21
ATOM     21  C13 <0> d           0.054  -0.175   5.258  0.00  0.00     0.157 C 
BRANCH  21  22
ATOM     22  C14 <0> d          -1.373   0.308   5.251  0.00  0.00    -0.017 C 
ATOM     23  C15 <0> d          -1.777   1.172   6.149  0.00  0.00     0.008 C 
ENDBRANCH  21  22
ENDBRANCH  12  21
ENDBRANCH   8  11
BRANCH   4  24
ATOM     24  C16 <0> d           0.038  -3.161  -1.700  0.00  0.00     0.014 A 
ATOM     25  C20 <0> d           0.057  -4.476  -1.236  0.00  0.00     0.130 A 
ATOM     26  N7  <0> d           0.061  -5.485  -2.083  0.00  0.00    -0.272 NA
ATOM     27  C19 <0> d           0.059  -5.299  -3.389  0.00  0.00     0.116 A 
ATOM     28  C18 <0> d           0.046  -4.025  -3.928  0.00  0.00     0.020 A 
ATOM     29  C17 <0> d           0.035  -2.931  -3.080  0.00  0.00     0.017 A 
ENDBRANCH   4  24
TORSDOF 4
