REMARK  4 active torsions:
REMARK  status: ('A' for Active; 'I' for Inactive)
REMARK    1  A    between atoms: C6_6  and  C11_15 
REMARK    2  A    between atoms: N1_10  and  S1_11 
REMARK       I    between atoms: C11_15  and  N2_17 
REMARK    3  A    between atoms: C14_20  and  C17_23 
REMARK    4  A    between atoms: C17_23  and  N3_24 
REMARK       I    between atoms: N3_24  and  C18_25 
ROOT
ATOM      1  C1  <0> d           0.675   1.975   1.662  0.00  0.00     0.034 C 
ATOM      2  C2  <0> d           0.008   0.796   0.952  0.00  0.00     0.102 A 
ATOM      3  C3  <0> d          -1.434   0.616   1.456  0.00  0.00     0.067 A 
ATOM      4  C4  <0> d          -1.452  -0.770   2.060  0.00  0.00    -0.028 A 
ATOM      5  C5  <0> d          -2.466  -1.476   2.666  0.00  0.00     0.026 A 
ATOM      6  C6  <0> d          -2.229  -2.764   3.152  0.00  0.00     0.032 A 
ATOM      7  C7  <0> d          -0.956  -3.327   3.019  0.00  0.00     0.019 A 
ATOM      8  C8  <0> d           0.051  -2.616   2.414  0.00  0.00     0.032 A 
ATOM      9  C9  <0> d          -0.185  -1.325   1.925  0.00  0.00     0.051 A 
ATOM     10  N1  <0> d           0.693  -0.454   1.288  0.00  0.00    -0.271 N 
ENDROOT
BRANCH   6  11
ATOM     11  C11 <0> d          -3.313  -3.525   3.802  0.00  0.00     0.253 C 
ATOM     12  O3  <0> d          -4.436  -3.500   3.337  0.00  0.00    -0.267 OA
ATOM     13  N2  <0> d          -3.058  -4.248   4.910  0.00  0.00    -0.348 N 
ATOM     14  C16 <0> d          -1.740  -4.188   5.557  0.00  0.00     0.126 C 
ATOM     15  C12 <0> d          -4.092  -5.116   5.492  0.00  0.00     0.126 C 
ATOM     16  C15 <0> d          -1.938  -3.835   7.039  0.00  0.00     0.026 C 
ATOM     17  C14 <0> d          -2.904  -4.840   7.672  0.00  0.00     0.006 C 
ATOM     18  C13 <0> d          -4.262  -4.756   6.971  0.00  0.00     0.026 C 
BRANCH  17  19
ATOM     19  C17 <0> d          -3.075  -4.515   9.157  0.00  0.00     0.127 C 
BRANCH  19  20
ATOM     20  N3  <0> d          -1.800  -4.711   9.851  0.00  0.00    -0.361 N 
ATOM     21  C18 <0> d          -1.711  -4.483  11.176  0.00  0.00     0.213 C 
ATOM     22  O4  <0> d          -2.688  -4.116  11.795  0.00  0.00    -0.274 OA
ATOM     23  C19 <0> d          -0.399  -4.684  11.889  0.00  0.00     0.117 C 
ATOM     24  H24 <0> d          -1.019  -5.004   9.356  0.00  0.00     0.162 HD
ENDBRANCH  19  20
ENDBRANCH  17  19
ENDBRANCH   6  11
BRANCH  10  25
ATOM     25  S1  <0> d           2.283  -0.781   0.956  0.00  0.00     0.229 S 
ATOM     26  O1  <0> d           2.350  -2.198   0.867  0.00  0.00    -0.206 OA
ATOM     27  O2  <0> d           2.593   0.031  -0.168  0.00  0.00    -0.206 OA
ATOM     28  C10 <0> d           3.192  -0.203   2.415  0.00  0.00     0.186 C 
ENDBRANCH  10  25
TORSDOF 4
