REMARK  8 active torsions:
REMARK  status: ('A' for Active; 'I' for Inactive)
REMARK    1  A    between atoms: C2_2  and  C3_3 
REMARK    2  A    between atoms: C3_3  and  N1_5 
REMARK       I    between atoms: N1_5  and  C5_6 
REMARK       I    between atoms: C5_6  and  N2_8 
REMARK       I    between atoms: N2_8  and  C6_9 
REMARK    3  A    between atoms: C6_9  and  C7_11 
REMARK    4  A    between atoms: C7_11  and  S1_12 
REMARK    5  A    between atoms: S1_12  and  C8_13 
REMARK    6  A    between atoms: C9_16  and  C12_21 
REMARK    7  A    between atoms: N5_17  and  C10_18 
REMARK    8  A    between atoms: C10_18  and  C11_19 
ROOT
ATOM      1  C8  <0> d           2.172   6.906  -0.144  0.00  0.00     0.192 A 
ATOM      2  N3  <0> d           0.953   7.247   0.208  0.00  0.00    -0.122 NA
ATOM      3  N4  <0> d           0.212   6.201   0.304  0.00  0.00    -0.128 NA
ATOM      4  C9  <0> d           0.914   5.126   0.019  0.00  0.00     0.171 A 
ATOM      5  N5  <0> d           2.193   5.545  -0.272  0.00  0.00    -0.297 N 
ENDROOT
BRANCH   1   6
ATOM      6  S1  <0> d           3.530   8.000  -0.397  0.00  0.00    -0.081 SA
BRANCH   6   7
ATOM      7  C7  <0> d           2.730   9.583  -0.038  0.00  0.00     0.185 C 
BRANCH   7   8
ATOM      8  C6  <0> d           3.730  10.699  -0.195  0.00  0.00     0.235 C 
ATOM      9  N2  <0> d           3.356  11.976   0.023  0.00  0.00    -0.279 N 
ATOM     10  C5  <0> d           4.251  12.974  -0.117  0.00  0.00     0.323 C 
ATOM     11  H11 <0> d           2.443  12.176   0.282  0.00  0.00     0.173 HD
ATOM     12  N1  <0> d           3.877  14.250   0.101  0.00  0.00    -0.339 N 
ATOM     13  O1  <0> d           5.395  12.723  -0.441  0.00  0.00    -0.247 OA
ATOM     14  H10 <0> d           2.963  14.450   0.359  0.00  0.00     0.164 HD
ATOM     15  O2  <0> d           4.872  10.449  -0.518  0.00  0.00    -0.272 OA
BRANCH  12  16
ATOM     16  C3  <0> d           4.849  15.335  -0.052  0.00  0.00     0.081 C 
ATOM     17  C4  <0> d           5.639  15.498   1.248  0.00  0.00     0.032 C 
BRANCH  16  18
ATOM     18  C2  <0> d           4.114  16.638  -0.369  0.00  0.00     0.020 C 
ATOM     19  C1  <0> d           3.425  16.517  -1.730  0.00  0.00     0.007 C 
ENDBRANCH  16  18
ENDBRANCH  12  16
ENDBRANCH   7   8
ENDBRANCH   6   7
ENDBRANCH   1   6
BRANCH   5  20
ATOM     20  C10 <0> d           3.337   4.708  -0.643  0.00  0.00     0.246 C 
BRANCH  20  21
ATOM     21  C11 <0> d           3.376   4.546  -2.141  0.00  0.00     0.192 C 
ATOM     22  O3  <0> d           2.535   5.076  -2.828  0.00  0.00    -0.647 OA
ATOM     23  O4  <0> d           4.345   3.814  -2.711  0.00  0.00    -0.647 OA
ENDBRANCH  20  21
ENDBRANCH   5  20
BRANCH   4  24
ATOM     24  C12 <0> d           0.426   3.737   0.017  0.00  0.00     0.052 A 
ATOM     25  S2  <0> d           1.361   2.216   0.001  0.00  0.00    -0.098 SA
ATOM     26  C15 <0> d          -0.013   1.076   0.008  0.00  0.00     0.050 A 
ATOM     27  C14 <0> d          -1.081   1.915   0.017  0.00  0.00     0.009 A 
ATOM     28  C13 <0> d          -0.866   3.275   0.026  0.00  0.00     0.023 A 
ENDBRANCH   4  24
TORSDOF 8
