REMARK  6 active torsions:
REMARK  status: ('A' for Active; 'I' for Inactive)
REMARK    1  A    between atoms: C2_2  and  C3_3 
REMARK    2  A    between atoms: C3_3  and  N1_4 
REMARK    3  A    between atoms: C6_7  and  C8_9 
REMARK    4  A    between atoms: C8_9  and  N2_10 
REMARK       I    between atoms: N2_10  and  C9_11 
REMARK       I    between atoms: C9_11  and  N3_13 
REMARK    5  A    between atoms: N3_13  and  C10_14 
REMARK    6  A    between atoms: C10_14  and  C11_15 
ROOT
ATOM      1  N2  <0> d          -4.135  -5.420  -1.944  0.00  0.00    -0.343 N 
ATOM      2  C9  <0> d          -4.831  -6.571  -1.858  0.00  0.00     0.316 C 
ATOM      3  O1  <0> d          -5.245  -6.952  -0.780  0.00  0.00    -0.247 OA
ATOM      4  N3  <0> d          -5.068  -7.300  -2.966  0.00  0.00    -0.337 N 
ATOM      5  H17 <0> d          -3.805  -5.116  -2.804  0.00  0.00     0.164 HD
ATOM      6  H18 <0> d          -4.737  -6.997  -3.826  0.00  0.00     0.164 HD
ENDROOT
BRANCH   1   7
ATOM      7  C8  <0> d          -3.878  -4.628  -0.739  0.00  0.00     0.130 C 
BRANCH   7   8
ATOM      8  C6  <0> d          -3.075  -3.380  -1.112  0.00  0.00     0.031 C 
ATOM      9  C5  <0> d          -1.655  -3.767  -1.602  0.00  0.00     0.035 C 
ATOM     10  C4  <0> d          -0.850  -2.485  -1.274  0.00  0.00     0.235 C 
ATOM     11  N1  <0> d          -1.413  -2.002   0.005  0.00  0.00    -0.071 N 
ATOM     12  C7  <0> d          -2.788  -2.518   0.136  0.00  0.00     0.241 C 
ATOM     13  H25 <0> d          -0.850  -2.339   0.771  0.00  0.00     0.279 HD
BRANCH  11  14
ATOM     14  C3  <0> d          -1.433  -0.534   0.013  0.00  0.00     0.234 C 
BRANCH  14  15
ATOM     15  C2  <0> d           0.002  -0.004   0.002  0.00  0.00     0.023 C 
ATOM     16  C1  <0> d          -0.019   1.526   0.010  0.00  0.00     0.007 C 
ENDBRANCH  14  15
ENDBRANCH  11  14
ENDBRANCH   7   8
ENDBRANCH   1   7
BRANCH   4  17
ATOM     17  C10 <0> d          -5.824  -8.551  -2.873  0.00  0.00     0.184 C 
BRANCH  17  18
ATOM     18  C11 <0> d          -5.948  -9.167  -4.242  0.00  0.00     0.059 A 
ATOM     19  N4  <0> d          -6.907  -8.812  -5.074  0.00  0.00    -0.249 NA
ATOM     20  C13 <0> d          -7.009  -9.346  -6.265  0.00  0.00     0.071 A 
ATOM     21  S1  <0> d          -5.728 -10.437  -6.308  0.00  0.00    -0.085 SA
ATOM     22  C14 <0> d          -8.029  -9.058  -7.336  0.00  0.00     0.078 C 
ATOM     23  C12 <0> d          -5.081 -10.118  -4.674  0.00  0.00     0.080 A 
ENDBRANCH  17  18
ENDBRANCH   4  17
TORSDOF 6
