REMARK  5 active torsions:
REMARK  status: ('A' for Active; 'I' for Inactive)
REMARK    1  A    between atoms: C6_6  and  N1_8 
REMARK    2  A    between atoms: C8_9  and  N2_10 
REMARK    3  A    between atoms: C12_18  and  S1_19 
REMARK    4  A    between atoms: S1_19  and  C13_20 
REMARK    5  A    between atoms: C13_20  and  C14_21 
REMARK       I    between atoms: C14_21  and  N6_23 
ROOT
ATOM      1  N1  <0> d           0.052  -2.792   2.372  0.00  0.00    -0.276 N 
ATOM      2  C8  <0> d          -0.990  -3.563   2.683  0.00  0.00     0.124 A 
ATOM      3  C9  <0> d          -0.940  -4.290   3.949  0.00  0.00     0.081 A 
ATOM      4  C10 <0> d          -1.769  -5.158   4.625  0.00  0.00     0.042 A 
ATOM      5  N3  <0> d          -1.160  -5.497   5.769  0.00  0.00    -0.280 N 
ATOM      6  N4  <0> d           0.080  -4.854   5.859  0.00  0.00    -0.153 NA
ATOM      7  H1  <0> d          -1.525  -6.099   6.437  0.00  0.00     0.189 HD
ATOM      8  C11 <0> d           0.260  -4.115   4.787  0.00  0.00     0.187 A 
ATOM      9  N5  <0> d           1.231  -3.298   4.333  0.00  0.00    -0.202 NA
ATOM     10  C12 <0> d           1.114  -2.683   3.178  0.00  0.00     0.177 A 
ATOM     11  C22 <0> d          -3.119  -5.639   4.161  0.00  0.00     0.071 C 
ENDROOT
BRANCH  10  12
ATOM     12  S1  <0> d           2.437  -1.640   2.662  0.00  0.00    -0.082 SA
BRANCH  12  13
ATOM     13  C13 <0> d           3.648  -1.768   4.006  0.00  0.00     0.185 C 
BRANCH  13  14
ATOM     14  C14 <0> d           4.846  -0.912   3.686  0.00  0.00     0.229 C 
ATOM     15  O1  <0> d           4.880  -0.278   2.653  0.00  0.00    -0.273 OA
ATOM     16  N6  <0> d           5.880  -0.852   4.548  0.00  0.00    -0.351 N 
ATOM     17  C19 <0> d           7.055  -0.021   4.251  0.00  0.00     0.130 C 
ATOM     18  C15 <0> d           5.857  -1.619   5.801  0.00  0.00     0.130 C 
ATOM     19  C18 <0> d           8.312  -0.882   4.354  0.00  0.00    -0.000 C 
ATOM     20  C17 <0> d           8.353  -1.561   5.725  0.00  0.00     0.011 C 
ATOM     21  C20 <0> d           9.553  -0.003   4.182  0.00  0.00     0.011 C 
ATOM     22  C16 <0> d           7.130  -2.467   5.884  0.00  0.00    -0.000 C 
ATOM     23  C21 <0> d           7.188  -3.170   7.241  0.00  0.00     0.011 C 
ENDBRANCH  13  14
ENDBRANCH  12  13
ENDBRANCH  10  12
BRANCH   1  24
ATOM     24  C6  <0> d           0.037  -2.093   1.185  0.00  0.00     0.043 A 
ATOM     25  C5  <0> d           0.040  -2.776  -0.030  0.00  0.00     0.030 A 
ATOM     26  C4  <0> d           0.025  -2.071  -1.216  0.00  0.00     0.003 A 
ATOM     27  C3  <0> d           0.006  -0.688  -1.201  0.00  0.00     0.007 A 
ATOM     28  C2  <0> d           0.002  -0.004   0.002  0.00  0.00    -0.060 A 
ATOM     29  C1  <0> d          -0.018   1.503   0.010  0.00  0.00     0.048 C 
ATOM     30  C7  <0> d           0.023  -0.699   1.194  0.00  0.00     0.037 A 
ENDBRANCH   1  24
BRANCH   2  31
ATOM     31  N2  <0> d          -2.073  -3.671   1.842  0.00  0.00    -0.384 N 
ATOM     32  H11 <0> d          -2.087  -3.181   1.005  0.00  0.00     0.157 HD
ATOM     33  H29 <0> d          -2.822  -4.238   2.085  0.00  0.00     0.157 HD
ENDBRANCH   2  31
TORSDOF 5
