REMARK  6 active torsions:
REMARK  status: ('A' for Active; 'I' for Inactive)
REMARK    1  A    between atoms: O1_2  and  C2_3 
REMARK    2  A    between atoms: C6_7  and  C8_9 
REMARK    3  A    between atoms: C8_9  and  C9_10 
REMARK    4  A    between atoms: C8_9  and  N2_16 
REMARK    5  A    between atoms: N2_16  and  C14_17 
REMARK    6  A    between atoms: C14_17  and  C15_18 
ROOT
ATOM      1  C8  <0> d          -2.540  -4.171   0.015  0.00  0.00     0.288 C 
ENDROOT
BRANCH   1   2
ATOM      2  C6  <0> d          -2.479  -2.665   0.017  0.00  0.00    -0.018 A 
ATOM      3  C5  <0> d          -3.648  -1.927   0.026  0.00  0.00     0.010 A 
ATOM      4  C4  <0> d          -3.596  -0.545   0.027  0.00  0.00     0.003 A 
ATOM      5  C3  <0> d          -2.375   0.101   0.019  0.00  0.00     0.037 A 
ATOM      6  C2  <0> d          -1.200  -0.637   0.010  0.00  0.00     0.068 A 
ATOM      7  C7  <0> d          -1.255  -2.023   0.003  0.00  0.00     0.046 A 
BRANCH   6   8
ATOM      8  O1  <0> d           0.002  -0.004   0.002  0.00  0.00    -0.356 OA
ATOM      9  C1  <0> d          -0.017   1.425   0.010  0.00  0.00     0.210 C 
ENDBRANCH   6   8
ENDBRANCH   1   2
BRANCH   1  10
ATOM     10  C9  <0> d          -2.797  -4.664   1.416  0.00  0.00    -0.003 A 
ATOM     11  C13 <0> d          -4.076  -4.652   1.939  0.00  0.00     0.126 A 
ATOM     12  N1  <0> d          -4.309  -5.088   3.161  0.00  0.00    -0.272 NA
ATOM     13  C12 <0> d          -3.341  -5.538   3.933  0.00  0.00     0.116 A 
ATOM     14  C11 <0> d          -2.035  -5.576   3.481  0.00  0.00     0.020 A 
ATOM     15  C10 <0> d          -1.752  -5.132   2.199  0.00  0.00     0.012 A 
ENDBRANCH   1  10
BRANCH   1  16
ATOM     16  N2  <0> d          -3.626  -4.617  -0.868  0.00  0.00     0.103 N 
ATOM     17  H14 <0> d          -4.518  -4.563  -0.399  0.00  0.00     0.317 HD
BRANCH  16  18
ATOM     18  C14 <0> d          -3.374  -5.975  -1.368  0.00  0.00     0.346 C 
BRANCH  18  19
ATOM     19  C15 <0> d          -4.506  -6.396  -2.268  0.00  0.00     0.109 A 
ATOM     20  N4  <0> d          -4.454  -7.364  -3.170  0.00  0.00    -0.353 N 
ATOM     21  C17 <0> d          -5.658  -7.445  -3.773  0.00  0.00     0.106 A 
ATOM     22  H19 <0> d          -3.683  -7.920  -3.362  0.00  0.00     0.166 HD
ATOM     23  C16 <0> d          -6.446  -6.499  -3.224  0.00  0.00     0.106 A 
ATOM     24  N3  <0> d          -5.714  -5.856  -2.291  0.00  0.00    -0.353 N 
ATOM     25  H2  <0> d          -6.020  -5.125  -1.732  0.00  0.00     0.166 HD
ENDBRANCH  18  19
ENDBRANCH  16  18
ENDBRANCH   1  16
TORSDOF 6
