REMARK  6 active torsions:
REMARK  status: ('A' for Active; 'I' for Inactive)
REMARK    1  A    between atoms: C2_2  and  N1_4 
REMARK    2  A    between atoms: N3_7  and  C6_10 
REMARK    3  A    between atoms: C6_10  and  N4_11 
REMARK    4  A    between atoms: C10_15  and  C12_17 
REMARK    5  A    between atoms: C12_17  and  C13_18 
REMARK    6  A    between atoms: C13_18  and  C14_19 
REMARK       I    between atoms: C14_19  and  N5_21 
ROOT
ATOM      1  N4  <0> d          -5.162  -1.469  -1.927  0.00  0.00    -0.053 N 
ATOM      2  C7  <0> d          -4.485  -0.661  -2.949  0.00  0.00     0.237 C 
ATOM      3  C8  <0> d          -5.481   0.317  -3.575  0.00  0.00     0.028 C 
ATOM      4  C9  <0> d          -6.624  -0.472  -4.221  0.00  0.00     0.008 C 
ATOM      5  C10 <0> d          -7.276  -1.367  -3.163  0.00  0.00     0.012 C 
ATOM      6  C11 <0> d          -6.213  -2.282  -2.552  0.00  0.00     0.241 C 
ATOM      7  H26 <0> d          -5.576  -0.859  -1.238  0.00  0.00     0.281 HD
ENDROOT
BRANCH   1   8
ATOM      8  C6  <0> d          -4.185  -2.350  -1.275  0.00  0.00     0.388 C 
BRANCH   8   9
ATOM      9  N3  <0> d          -3.203  -1.540  -0.551  0.00  0.00    -0.217 N 
ATOM     10  N2  <0> d          -3.410  -0.873   0.665  0.00  0.00    -0.164 NA
ATOM     11  C4  <0> d          -2.312  -0.267   0.984  0.00  0.00     0.234 A 
ATOM     12  N1  <0> d          -1.372  -0.511   0.012  0.00  0.00    -0.311 N 
ATOM     13  C5  <0> d          -1.933  -1.292  -0.933  0.00  0.00     0.199 A 
ATOM     14  S1  <0> d          -1.171  -1.867  -2.355  0.00  0.00    -0.039 SA
BRANCH  12  15
ATOM     15  C2  <0> d           0.002  -0.004   0.002  0.00  0.00     0.085 C 
ATOM     16  C1  <0> d          -0.019   1.526   0.010  0.00  0.00     0.032 C 
ATOM     17  C3  <0> d           0.742  -0.511   1.242  0.00  0.00     0.032 C 
ENDBRANCH  12  15
ENDBRANCH   8   9
ENDBRANCH   1   8
BRANCH   5  18
ATOM     18  C12 <0> d          -8.368  -2.216  -3.815  0.00  0.00     0.015 C 
BRANCH  18  19
ATOM     19  C13 <0> d          -9.489  -1.306  -4.320  0.00  0.00     0.103 C 
BRANCH  19  20
ATOM     20  C14 <0> d         -10.566  -2.142  -4.963  0.00  0.00     0.215 C 
ATOM     21  O1  <0> d         -10.448  -3.348  -5.011  0.00  0.00    -0.274 OA
ATOM     22  N5  <0> d         -11.659  -1.550  -5.482  0.00  0.00    -0.370 N 
ATOM     23  H24 <0> d         -11.753  -0.586  -5.443  0.00  0.00     0.159 HD
ATOM     24  H25 <0> d         -12.352  -2.089  -5.896  0.00  0.00     0.159 HD
ENDBRANCH  19  20
ENDBRANCH  18  19
ENDBRANCH   5  18
TORSDOF 6
