REMARK  6 active torsions:
REMARK  status: ('A' for Active; 'I' for Inactive)
REMARK    1  A    between atoms: C6_6  and  C8_9 
REMARK    2  A    between atoms: C7_7  and  O1_8 
REMARK    3  A    between atoms: C8_9  and  O3_11 
REMARK    4  A    between atoms: O3_11  and  C9_12 
REMARK    5  A    between atoms: C9_12  and  C10_13 
REMARK       I    between atoms: C10_13  and  N1_15 
REMARK       I    between atoms: N1_15  and  C11_16 
REMARK    6  A    between atoms: C11_16  and  C12_18 
ROOT
ATOM      1  C9  <0> d          -5.247   4.193  -0.262  0.00  0.00     0.282 C 
ENDROOT
BRANCH   1   2
ATOM      2  O3  <0> d          -6.049   5.401  -0.348  0.00  0.00    -0.308 OA
BRANCH   2   3
ATOM      3  C8  <0> d          -7.384   5.242  -0.443  0.00  0.00     0.296 C 
ATOM      4  O2  <0> d          -7.864   4.126  -0.453  0.00  0.00    -0.259 OA
BRANCH   3   5
ATOM      5  C6  <0> d          -8.261   6.423  -0.534  0.00  0.00     0.073 A 
ATOM      6  C5  <0> d          -7.713   7.709  -0.523  0.00  0.00     0.020 A 
ATOM      7  C4  <0> d          -8.539   8.809  -0.609  0.00  0.00     0.002 A 
ATOM      8  C3  <0> d          -9.911   8.646  -0.706  0.00  0.00     0.009 A 
ATOM      9  C2  <0> d         -10.466   7.382  -0.719  0.00  0.00    -0.028 A 
ATOM     10  C1  <0> d         -11.960   7.217  -0.825  0.00  0.00     0.051 C 
ATOM     11  C7  <0> d          -9.650   6.264  -0.638  0.00  0.00     0.087 A 
BRANCH  11  12
ATOM     12  O1  <0> d         -10.194   5.021  -0.655  0.00  0.00    -0.359 OA
ATOM     13  H7  <0> d         -10.419   4.678   0.220  0.00  0.00     0.217 HD
ENDBRANCH  11  12
ENDBRANCH   3   5
ENDBRANCH   2   3
ENDBRANCH   1   2
BRANCH   1  14
ATOM     14  C10 <0> d          -3.789   4.565  -0.164  0.00  0.00     0.248 C 
ATOM     15  O4  <0> d          -3.459   5.731  -0.166  0.00  0.00    -0.271 OA
ATOM     16  N1  <0> d          -2.853   3.600  -0.073  0.00  0.00    -0.290 N 
ATOM     17  C11 <0> d          -1.549   3.932   0.015  0.00  0.00     0.275 C 
ATOM     18  H10 <0> d          -3.116   2.666  -0.071  0.00  0.00     0.172 HD
ATOM     19  O5  <0> d          -1.224   5.101   0.108  0.00  0.00    -0.266 OA
BRANCH  17  20
ATOM     20  C12 <0> d          -0.524   2.885  -0.000  0.00  0.00     0.102 A 
ATOM     21  N2  <0> d           0.839   3.080  -0.011  0.00  0.00    -0.357 N 
ATOM     22  C15 <0> d           1.449   1.877  -0.027  0.00  0.00     0.091 A 
ATOM     23  C16 <0> d           1.515   4.380  -0.007  0.00  0.00     0.156 C 
ATOM     24  C14 <0> d           0.506   0.904  -0.020  0.00  0.00     0.020 A 
ATOM     25  C13 <0> d          -0.748   1.524  -0.003  0.00  0.00     0.037 A 
ENDBRANCH  17  20
ENDBRANCH   1  14
TORSDOF 6
