REMARK  1 active torsions:
REMARK  status: ('A' for Active; 'I' for Inactive)
REMARK    1  A    between atoms: C9_11  and  C10_13 
ROOT
ATOM      1  C1  <0> d          -0.018   1.503   0.010  0.00  0.00     0.050 C 
ATOM      2  C2  <0> d           0.002  -0.004   0.002  0.00  0.00    -0.037 A 
ATOM      3  C3  <0> d           0.006  -0.682  -1.199  0.00  0.00     0.048 A 
ATOM      4  C4  <0> d           0.024  -2.068  -1.210  0.00  0.00     0.107 A 
ATOM      5  C5  <0> d           0.040  -2.776   0.002  0.00  0.00     0.101 A 
ATOM      6  C6  <0> d           0.036  -2.078   1.210  0.00  0.00    -0.008 A 
ATOM      7  C7  <0> d           0.023  -0.700   1.203  0.00  0.00     0.048 A 
ATOM      8 Cl1  <0> d           0.025   0.172   2.704  0.00  0.00    -0.083 Cl
ATOM      9  C8  <0> d           0.052  -2.827   2.518  0.00  0.00     0.052 C 
ATOM     10  N1  <0> d           0.056  -4.098  -0.322  0.00  0.00    -0.223 NA
ATOM     11  C9  <0> d           0.052  -4.212  -1.616  0.00  0.00     0.177 A 
ATOM     12  O1  <0> d           0.032  -2.998  -2.190  0.00  0.00    -0.291 OA
ENDROOT
BRANCH  11  13
ATOM     13  C10 <0> d           0.067  -5.519  -2.365  0.00  0.00     0.262 C 
ATOM     14  N2  <0> d           1.013  -5.452  -3.499  0.00  0.00    -0.064 N 
ATOM     15  C13 <0> d           0.439  -6.202  -4.633  0.00  0.00     0.233 C 
ATOM     16  H15 <0> d           1.156  -4.489  -3.765  0.00  0.00     0.278 HD
ATOM     17  H16 <0> d           1.895  -5.862  -3.229  0.00  0.00     0.278 HD
ATOM     18  C12 <0> d          -0.935  -6.737  -4.179  0.00  0.00     0.030 C 
ATOM     19  C11 <0> d          -1.314  -5.784  -3.015  0.00  0.00     0.043 C 
ENDBRANCH  11  13
TORSDOF 1
