REMARK  6 active torsions:
REMARK  status: ('A' for Active; 'I' for Inactive)
REMARK    1  A    between atoms: C2_2  and  O1_3 
REMARK    2  A    between atoms: O1_3  and  C3_4 
REMARK    3  A    between atoms: C3_4  and  C4_6 
REMARK    4  A    between atoms: C7_10  and  N1_11 
REMARK       I    between atoms: N1_11  and  C8_12 
REMARK    5  A    between atoms: C8_12  and  C9_14 
REMARK    6  A    between atoms: C10_15  and  C11_16 
REMARK       I    between atoms: N2_19  and  C15_22 
ROOT
ATOM      1  C4  <0> d           4.653   1.158   1.752  0.00  0.00     0.080 A 
ATOM      2  C5  <0> d           5.618   2.026   2.406  0.00  0.00    -0.023 A 
ATOM      3  C6  <0> d           5.166   3.266   2.698  0.00  0.00     0.010 A 
ATOM      4  S1  <0> d           3.495   3.292   2.118  0.00  0.00    -0.074 SA
ATOM      5  C7  <0> d           3.389   1.677   1.500  0.00  0.00     0.094 A 
ATOM      6  C12 <0> d           5.934   4.368   3.363  0.00  0.00     0.172 C 
ATOM      7  N2  <0> d           7.198   3.784   3.854  0.00  0.00    -0.347 N 
ATOM      8  C13 <0> d           7.901   2.844   2.968  0.00  0.00     0.131 C 
ATOM      9  C14 <0> d           7.038   1.599   2.755  0.00  0.00     0.060 C 
ATOM     10  C15 <0> d           7.689   4.100   5.069  0.00  0.00     0.216 C 
ATOM     11  O5  <0> d           8.730   3.606   5.449  0.00  0.00    -0.274 OA
ATOM     12  C16 <0> d           6.946   5.067   5.954  0.00  0.00     0.117 C 
ENDROOT
BRANCH   5  13
ATOM     13  N1  <0> d           2.310   1.056   0.896  0.00  0.00    -0.317 N 
ATOM     14  C8  <0> d           1.151   1.725   0.736  0.00  0.00     0.246 C 
ATOM     15  O3  <0> d           1.054   2.873   1.122  0.00  0.00    -0.268 OA
ATOM     16  H6  <0> d           2.387   0.139   0.588  0.00  0.00     0.169 HD
BRANCH  14  17
ATOM     17  C9  <0> d          -0.000   1.063   0.092  0.00  0.00     0.081 C 
ATOM     18  C10 <0> d          -1.116   1.763  -0.172  0.00  0.00     0.090 C 
BRANCH  18  19
ATOM     19  C11 <0> d          -1.028   3.203  -0.479  0.00  0.00     0.198 C 
ATOM     20  O4  <0> d           0.057   3.723  -0.647  0.00  0.00    -0.645 OA
ATOM     21  O6  <0> d          -2.151   3.942  -0.573  0.00  0.00    -0.645 OA
ENDBRANCH  18  19
ENDBRANCH  14  17
ENDBRANCH   5  13
BRANCH   1  22
ATOM     22  C3  <0> d           5.001  -0.213   1.371  0.00  0.00     0.296 C 
ATOM     23  O2  <0> d           5.474  -0.438   0.273  0.00  0.00    -0.259 OA
BRANCH  22  24
ATOM     24  O1  <0> d           4.798  -1.226   2.239  0.00  0.00    -0.318 OA
BRANCH  24  25
ATOM     25  C2  <0> d           5.166  -2.558   1.794  0.00  0.00     0.174 C 
ATOM     26  C1  <0> d           4.865  -3.567   2.904  0.00  0.00     0.034 C 
ENDBRANCH  24  25
ENDBRANCH  22  24
ENDBRANCH   1  22
TORSDOF 6
