REMARK  4 active torsions:
REMARK  status: ('A' for Active; 'I' for Inactive)
REMARK    1  A    between atoms: C2_2  and  C3_3 
REMARK    2  A    between atoms: C2_2  and  N2_6 
REMARK    3  A    between atoms: N2_6  and  S2_8 
REMARK    4  A    between atoms: S2_8  and  C5_11 
ROOT
ATOM      1  N2  <0> d           0.759  -0.242   1.300  0.00  0.00    -0.300 N 
ATOM      2  C4  <0> d           2.001   0.473   1.608  0.00  0.00     0.163 C 
ENDROOT
BRANCH   1   3
ATOM      3  C2  <0> d           0.061   0.013   0.038  0.00  0.00     0.152 C 
ATOM      4  C1  <0> d          -0.202   1.514  -0.105  0.00  0.00     0.040 C 
BRANCH   3   5
ATOM      5  C3  <0> d           0.913  -0.459  -1.112  0.00  0.00     0.094 C 
ATOM      6  S1  <0> d           2.345  -1.113  -0.831  0.00  0.00    -0.064 SA
ATOM      7  N1  <0> d           0.468  -0.331  -2.378  0.00  0.00    -0.392 N 
ATOM      8  H5  <0> d          -0.401   0.066  -2.549  0.00  0.00     0.156 HD
ATOM      9  H6  <0> d           1.016  -0.635  -3.118  0.00  0.00     0.156 HD
ENDBRANCH   3   5
ENDBRANCH   1   3
BRANCH   1  10
ATOM     10  S2  <0> d           0.146  -1.339   2.378  0.00  0.00     0.267 S 
ATOM     11  O1  <0> d           0.656  -0.982   3.655  0.00  0.00    -0.200 OA
ATOM     12  O2  <0> d          -1.247  -1.433   2.114  0.00  0.00    -0.200 OA
BRANCH  10  13
ATOM     13  C5  <0> d           0.841  -2.908   1.979  0.00  0.00     0.121 A 
ATOM     14  S3  <0> d           0.224  -4.160   0.866  0.00  0.00    -0.069 SA
ATOM     15  C8  <0> d           1.531  -5.356   1.083  0.00  0.00     0.052 A 
ATOM     16  C7  <0> d           2.334  -4.734   1.982  0.00  0.00     0.028 A 
ATOM     17 Br1  <0> d           1.738  -7.054   0.276  0.00  0.00    -0.043 Br
ATOM     18  C6  <0> d           1.980  -3.479   2.441  0.00  0.00     0.035 A 
ENDBRANCH  10  13
ENDBRANCH   1  10
TORSDOF 4
