REMARK  7 active torsions:
REMARK  status: ('A' for Active; 'I' for Inactive)
REMARK    1  A    between atoms: C5_6  and  S1_10 
REMARK    2  A    between atoms: C6_7  and  C7_8 
REMARK    3  A    between atoms: S1_10  and  C8_11 
REMARK    4  A    between atoms: C8_11  and  C9_12 
REMARK       I    between atoms: C9_12  and  N2_14 
REMARK    5  A    between atoms: N2_14  and  N3_15 
REMARK    6  A    between atoms: C11_18  and  C14_23 
REMARK    7  A    between atoms: C17_26  and  O5_29 
ROOT
ATOM      1  N3  <0> d          -0.016   1.343   0.009  0.00  0.00    -0.167 N 
ATOM      2  C10 <0> d           0.002  -0.004   0.002  0.00  0.00     0.279 A 
ATOM      3  O3  <0> d          -0.954  -0.749   0.008  0.00  0.00    -0.268 OA
ATOM      4  C11 <0> d           1.467  -0.394  -0.014  0.00  0.00     0.141 A 
ATOM      5  N4  <0> d           2.170   0.901  -0.014  0.00  0.00    -0.319 N 
ATOM      6  C12 <0> d           1.220   1.854   0.000  0.00  0.00     0.345 A 
ATOM      7  O4  <0> d           1.460   3.045   0.004  0.00  0.00    -0.245 OA
ATOM      8  C13 <0> d           1.822  -1.203   1.235  0.00  0.00     0.055 C 
ATOM      9  H8  <0> d           3.130   1.039  -0.022  0.00  0.00     0.166 HD
ENDROOT
BRANCH   1  10
ATOM     10  N2  <0> d          -1.186   2.115   0.019  0.00  0.00    -0.256 N 
ATOM     11  C9  <0> d          -1.577   2.732   1.152  0.00  0.00     0.246 C 
ATOM     12  O2  <0> d          -0.916   2.619   2.163  0.00  0.00    -0.271 OA
ATOM     13  H7  <0> d          -1.714   2.204  -0.789  0.00  0.00     0.191 HD
BRANCH  11  14
ATOM     14  C8  <0> d          -2.835   3.561   1.163  0.00  0.00     0.185 C 
BRANCH  14  15
ATOM     15  S1  <0> d          -3.087   4.253   2.816  0.00  0.00    -0.100 SA
BRANCH  15  16
ATOM     16  C5  <0> d          -4.581   5.149   2.548  0.00  0.00     0.111 A 
ATOM     17  N1  <0> d          -5.149   5.141   1.351  0.00  0.00    -0.246 NA
ATOM     18  C4  <0> d          -6.266   5.797   1.108  0.00  0.00     0.032 A 
ATOM     19  C3  <0> d          -6.899   6.528   2.099  0.00  0.00     0.034 A 
ATOM     20  C21 <0> d          -6.865   5.751  -0.274  0.00  0.00     0.070 C 
ATOM     21  C2  <0> d          -6.351   6.572   3.368  0.00  0.00    -0.040 A 
ATOM     22  C1  <0> d          -7.016   7.359   4.468  0.00  0.00     0.049 C 
ATOM     23  C6  <0> d          -5.168   5.864   3.608  0.00  0.00     0.082 A 
BRANCH  23  24
ATOM     24  C7  <0> d          -4.546   5.873   4.942  0.00  0.00     0.212 C 
ATOM     25  O1  <0> d          -3.731   6.728   5.227  0.00  0.00    -0.644 OA
ATOM     26  O6  <0> d          -4.880   4.932   5.848  0.00  0.00    -0.644 OA
ENDBRANCH  23  24
ENDBRANCH  15  16
ENDBRANCH  14  15
ENDBRANCH  11  14
ENDBRANCH   1  10
BRANCH   4  27
ATOM     27  C14 <0> d           1.794  -1.175  -1.261  0.00  0.00    -0.021 A 
ATOM     28  C19 <0> d           3.063  -1.105  -1.806  0.00  0.00     0.013 A 
ATOM     29  C18 <0> d           3.365  -1.819  -2.949  0.00  0.00     0.037 A 
ATOM     30  C17 <0> d           2.394  -2.607  -3.550  0.00  0.00     0.068 A 
ATOM     31  C16 <0> d           1.122  -2.676  -3.001  0.00  0.00     0.037 A 
ATOM     32  C15 <0> d           0.826  -1.964  -1.855  0.00  0.00     0.013 A 
BRANCH  30  33
ATOM     33  O5  <0> d           2.690  -3.312  -4.674  0.00  0.00    -0.356 OA
ATOM     34  C20 <0> d           1.641  -4.101  -5.239  0.00  0.00     0.210 C 
ENDBRANCH  30  33
ENDBRANCH   4  27
TORSDOF 7
