REMARK  4 active torsions:
REMARK  status: ('A' for Active; 'I' for Inactive)
REMARK    1  A    between atoms: C2_2  and  C3_3 
REMARK    2  A    between atoms: C2_2  and  N3_21 
REMARK    3  A    between atoms: C3_3  and  C4_4 
REMARK    4  A    between atoms: C3_3  and  N1_10 
ROOT
ATOM      1  C3  <0> d           0.718  -0.497  -1.257  0.00  0.00     0.155 C 
ENDROOT
BRANCH   1   2
ATOM      2  C2  <0> d           0.002  -0.004   0.002  0.00  0.00     0.207 C 
ATOM      3  C1  <0> d          -0.019   1.526   0.010  0.00  0.00     0.042 C 
BRANCH   2   4
ATOM      4  N3  <0> d           0.713  -0.491   1.192  0.00  0.00    -0.073 N 
ATOM      5  H15 <0> d           0.240  -0.165   2.022  0.00  0.00     0.274 HD
ATOM      6  H16 <0> d           0.726  -1.500   1.187  0.00  0.00     0.274 HD
ATOM      7  H17 <0> d           1.659  -0.141   1.185  0.00  0.00     0.274 HD
ENDBRANCH   2   4
ENDBRANCH   1   2
BRANCH   1   8
ATOM      8  C4  <0> d           0.739  -2.004  -1.265  0.00  0.00     0.009 A 
ATOM      9  S1  <0> d          -0.554  -3.143  -1.733  0.00  0.00    -0.080 SA
ATOM     10  C7  <0> d           0.332  -4.665  -1.439  0.00  0.00     0.075 A 
ATOM     11  C6  <0> d           1.534  -4.210  -1.002  0.00  0.00     0.032 A 
ATOM     12 Cl1  <0> d          -0.206  -6.302  -1.649  0.00  0.00    -0.076 Cl
ATOM     13  C5  <0> d           1.741  -2.846  -0.914  0.00  0.00     0.019 A 
ENDBRANCH   1   8
BRANCH   1  14
ATOM     14  N1  <0> d           0.010  -0.012  -2.444  0.00  0.00    -0.359 N 
ATOM     15  C11 <0> d           0.649   0.809  -3.383  0.00  0.00     0.058 A 
ATOM     16  C10 <0> d           0.237   0.745  -4.718  0.00  0.00     0.061 A 
ATOM     17  C12 <0> d           1.669   1.665  -3.006  0.00  0.00     0.031 A 
ATOM     18  N2  <0> d          -0.796  -0.127  -5.082  0.00  0.00    -0.324 N 
ATOM     19  C15 <0> d           0.852   1.548  -5.663  0.00  0.00     0.032 A 
ATOM     20  C9  <0> d          -1.578  -0.696  -4.144  0.00  0.00     0.240 C 
ATOM     21  H10 <0> d          -0.949  -0.325  -6.019  0.00  0.00     0.169 HD
ATOM     22  C8  <0> d          -1.397  -0.366  -2.685  0.00  0.00     0.227 C 
ATOM     23  O1  <0> d          -2.439  -1.482  -4.479  0.00  0.00    -0.271 OA
ATOM     24  C14 <0> d           1.869   2.413  -5.276  0.00  0.00     0.002 A 
ATOM     25  C13 <0> d           2.278   2.466  -3.956  0.00  0.00     0.002 A 
ENDBRANCH   1  14
TORSDOF 4
