REMARK  7 active torsions:
REMARK  status: ('A' for Active; 'I' for Inactive)
REMARK    1  A    between atoms: C2_2  and  O1_3 
REMARK    2  A    between atoms: O1_3  and  C3_4 
REMARK    3  A    between atoms: C3_4  and  C4_6 
REMARK    4  A    between atoms: C6_10  and  N3_11 
REMARK       I    between atoms: N3_11  and  C7_12 
REMARK    5  A    between atoms: C7_12  and  C8_14 
REMARK    6  A    between atoms: C8_14  and  N4_15 
REMARK    7  A    between atoms: C15_22  and  C19_26 
REMARK       I    between atoms: C19_26  and  N5_28 
ROOT
ATOM      1  N4  <0> d           1.597  -8.471  -2.147  0.00  0.00    -0.367 N 
ATOM      2  C9  <0> d           0.832  -9.073  -3.152  0.00  0.00     0.038 A 
ATOM      3  C10 <0> d          -0.213  -8.359  -3.728  0.00  0.00     0.030 A 
ATOM      4  C11 <0> d          -0.983  -8.937  -4.718  0.00  0.00     0.002 A 
ATOM      5  C12 <0> d          -0.713 -10.227  -5.135  0.00  0.00     0.001 A 
ATOM      6  C13 <0> d           0.326 -10.938  -4.566  0.00  0.00     0.010 A 
ATOM      7  C14 <0> d           1.104 -10.365  -3.574  0.00  0.00    -0.018 A 
ATOM      8  C15 <0> d           2.234 -11.165  -2.981  0.00  0.00     0.114 C 
ATOM      9  C16 <0> d           2.629 -10.603  -1.616  0.00  0.00     0.043 C 
ATOM     10  C17 <0> d           2.870  -9.090  -1.756  0.00  0.00     0.082 C 
ATOM     11  C18 <0> d           3.338  -8.513  -0.419  0.00  0.00     0.032 C 
ENDROOT
BRANCH   1  12
ATOM     12  C8  <0> d           1.138  -7.240  -1.500  0.00  0.00     0.226 C 
BRANCH  12  13
ATOM     13  C7  <0> d           1.657  -6.048  -2.262  0.00  0.00     0.241 C 
ATOM     14  N3  <0> d           1.359  -4.801  -1.847  0.00  0.00    -0.310 N 
ATOM     15  H9  <0> d           0.843  -4.670  -1.036  0.00  0.00     0.170 HD
ATOM     16  O3  <0> d           2.342  -6.211  -3.249  0.00  0.00    -0.271 OA
BRANCH  14  17
ATOM     17  C6  <0> d           1.790  -3.706  -2.578  0.00  0.00     0.144 A 
ATOM     18  C4  <0> d           2.608  -2.677  -2.121  0.00  0.00     0.104 A 
ATOM     19  C5  <0> d           2.792  -1.784  -3.203  0.00  0.00     0.160 A 
ATOM     20  N1  <0> d           2.127  -2.243  -4.226  0.00  0.00    -0.182 NA
ATOM     21  N2  <0> d           1.491  -3.435  -3.864  0.00  0.00    -0.258 N 
ATOM     22  C20 <0> d           0.648  -4.255  -4.738  0.00  0.00     0.182 C 
BRANCH  18  23
ATOM     23  C3  <0> d           3.178  -2.546  -0.775  0.00  0.00     0.298 C 
ATOM     24  O2  <0> d           2.947  -3.392   0.068  0.00  0.00    -0.259 OA
BRANCH  23  25
ATOM     25  O1  <0> d           3.959  -1.489  -0.473  0.00  0.00    -0.318 OA
BRANCH  25  26
ATOM     26  C2  <0> d           4.480  -1.426   0.856  0.00  0.00     0.174 C 
ATOM     27  C1  <0> d           5.335  -0.167   1.009  0.00  0.00     0.034 C 
ENDBRANCH  25  26
ENDBRANCH  23  25
ENDBRANCH  18  23
ENDBRANCH  14  17
ENDBRANCH  12  13
ENDBRANCH   1  12
BRANCH   8  28
ATOM     28  C19 <0> d           1.797 -12.598  -2.818  0.00  0.00     0.224 C 
ATOM     29  O4  <0> d           1.289 -12.963  -1.778  0.00  0.00    -0.273 OA
ATOM     30  N5  <0> d           1.971 -13.475  -3.826  0.00  0.00    -0.370 N 
ATOM     31  H21 <0> d           2.435 -13.201  -4.633  0.00  0.00     0.159 HD
ATOM     32  H22 <0> d           1.632 -14.381  -3.746  0.00  0.00     0.159 HD
ENDBRANCH   8  28
TORSDOF 7
