REMARK  6 active torsions:
REMARK  status: ('A' for Active; 'I' for Inactive)
REMARK    1  A    between atoms: C2_2  and  C3_3 
REMARK    2  A    between atoms: C3_3  and  C4_4 
REMARK    3  A    between atoms: C4_4  and  C9_10 
REMARK       I    between atoms: C9_10  and  N2_12 
REMARK    4  A    between atoms: N2_12  and  C10_13 
REMARK    5  A    between atoms: C10_13  and  C12_15 
REMARK    6  A    between atoms: C12_15  and  N3_16 
ROOT
ATOM      1  C9  <0> d           1.389  -2.627  -0.175  0.00  0.00     0.226 C 
ATOM      2  O1  <0> d           2.434  -3.233  -0.286  0.00  0.00    -0.273 OA
ATOM      3  N2  <0> d           0.809  -2.499   1.035  0.00  0.00    -0.354 N 
ATOM      4  H18 <0> d           0.011  -1.958   1.136  0.00  0.00     0.162 HD
ENDROOT
BRANCH   1   5
ATOM      5  C4  <0> d           0.739  -2.016  -1.390  0.00  0.00     0.044 C 
ATOM      6  C8  <0> d           1.493  -2.454  -2.649  0.00  0.00     0.046 C 
ATOM      7  C7  <0> d           1.385  -3.974  -2.798  0.00  0.00     0.233 C 
ATOM      8  N1  <0> d          -0.027  -4.359  -2.912  0.00  0.00    -0.075 N 
ATOM      9  C6  <0> d          -0.740  -4.006  -1.679  0.00  0.00     0.233 C 
ATOM     10  H13 <0> d          -0.091  -5.354  -3.064  0.00  0.00     0.277 HD
ATOM     11  H32 <0> d          -0.445  -3.874  -3.692  0.00  0.00     0.277 HD
ATOM     12  C5  <0> d          -0.715  -2.488  -1.487  0.00  0.00     0.046 C 
BRANCH   5  13
ATOM     13  C3  <0> d           0.775  -0.491  -1.277  0.00  0.00     0.019 C 
BRANCH  13  14
ATOM     14  C2  <0> d           2.229  -0.014  -1.269  0.00  0.00    -0.003 C 
ATOM     15  C1  <0> d           2.264   1.515  -1.246  0.00  0.00     0.005 C 
ENDBRANCH  13  14
ENDBRANCH   5  13
ENDBRANCH   1   5
BRANCH   3  16
ATOM     16  C10 <0> d           1.385  -3.179   2.198  0.00  0.00     0.108 C 
ATOM     17  C11 <0> d           0.860  -4.615   2.261  0.00  0.00     0.034 C 
BRANCH  16  18
ATOM     18  C12 <0> d           0.986  -2.435   3.474  0.00  0.00     0.297 C 
BRANCH  18  19
ATOM     19  N3  <0> d           1.384  -1.025   3.362  0.00  0.00     0.094 N 
ATOM     20  C16 <0> d           0.812  -0.228   4.457  0.00  0.00     0.298 C 
ATOM     21  C15 <0> d           1.202   1.241   4.270  0.00  0.00     0.198 C 
ATOM     22  O2  <0> d           2.627   1.346   4.211  0.00  0.00    -0.388 OA
ATOM     23  C14 <0> d           3.217   0.583   3.156  0.00  0.00     0.198 C 
ATOM     24  C13 <0> d           2.848  -0.892   3.332  0.00  0.00     0.298 C 
ENDBRANCH  18  19
ENDBRANCH  16  18
ENDBRANCH   3  16
TORSDOF 6
