REMARK  6 active torsions:
REMARK  status: ('A' for Active; 'I' for Inactive)
REMARK    1  A    between atoms: O1_2  and  C2_3 
REMARK    2  A    between atoms: C4_5  and  C8_10 
REMARK    3  A    between atoms: C7_8  and  O2_9 
REMARK    4  A    between atoms: N1_11  and  N2_12 
REMARK       I    between atoms: N2_12  and  C9_13 
REMARK    5  A    between atoms: C9_13  and  C10_15 
REMARK    6  A    between atoms: C12_17  and  C13_21 
ROOT
ATOM      1  N2  <0> d           0.910  -2.818  -0.021  0.00  0.00    -0.242 N 
ATOM      2  C9  <0> d           1.791  -1.798  -0.025  0.00  0.00     0.289 C 
ATOM      3  O3  <0> d           2.986  -2.027  -0.038  0.00  0.00    -0.264 OA
ATOM      4  H10 <0> d          -0.043  -2.635  -0.011  0.00  0.00     0.192 HD
ENDROOT
BRANCH   1   5
ATOM      5  N1  <0> d           1.369  -4.141  -0.033  0.00  0.00    -0.183 NA
ATOM      6  C8  <0> d           0.520  -5.123  -0.029  0.00  0.00     0.150 C 
BRANCH   6   7
ATOM      7  C4  <0> d           1.004  -6.516  -0.042  0.00  0.00    -0.014 A 
ATOM      8  C3  <0> d           0.091  -7.574  -0.038  0.00  0.00     0.052 A 
ATOM      9  C2  <0> d           0.550  -8.878  -0.049  0.00  0.00     0.102 A 
ATOM     10  C7  <0> d           1.920  -9.134  -0.064  0.00  0.00     0.099 A 
ATOM     11  C6  <0> d           2.826  -8.084  -0.068  0.00  0.00     0.040 A 
ATOM     12  C5  <0> d           2.376  -6.781  -0.062  0.00  0.00     0.016 A 
BRANCH   9  13
ATOM     13  O1  <0> d          -0.335  -9.910  -0.046  0.00  0.00    -0.353 OA
ATOM     14  C1  <0> d          -1.724  -9.574  -0.030  0.00  0.00     0.210 C 
ENDBRANCH   9  13
BRANCH  10  15
ATOM     15  O2  <0> d           2.369 -10.417  -0.074  0.00  0.00    -0.358 OA
ATOM     16  H8  <0> d           2.490 -10.784  -0.961  0.00  0.00     0.217 HD
ENDBRANCH  10  15
ENDBRANCH   6   7
ENDBRANCH   1   5
BRANCH   2  17
ATOM     17  C10 <0> d           1.309  -0.408  -0.013  0.00  0.00     0.121 A 
ATOM     18  N4  <0> d           0.002  -0.004   0.002  0.00  0.00    -0.272 N 
ATOM     19  N3  <0> d          -0.017   1.396   0.010  0.00  0.00    -0.173 NA
ATOM     20  H1  <0> d          -0.799  -0.603   0.006  0.00  0.00     0.189 HD
ATOM     21  C12 <0> d           1.227   1.835   0.000  0.00  0.00     0.096 A 
ATOM     22  C11 <0> d           2.089   0.727  -0.014  0.00  0.00     0.071 A 
BRANCH  21  23
ATOM     23  C13 <0> d           1.643   3.255   0.003  0.00  0.00     0.036 A 
ATOM     24  S1  <0> d           3.289   3.945  -0.010  0.00  0.00    -0.080 SA
ATOM     25  C16 <0> d           2.840   5.673   0.004  0.00  0.00     0.052 A 
ATOM     26  C15 <0> d           1.483   5.613   0.018  0.00  0.00     0.028 A 
ATOM     27 Br1  <0> d           3.964   7.193  -0.000  0.00  0.00    -0.043 Br
ATOM     28  C14 <0> d           0.865   4.381   0.011  0.00  0.00     0.023 A 
ENDBRANCH  21  23
ENDBRANCH   2  17
TORSDOF 6
