REMARK  4 active torsions:
REMARK  status: ('A' for Active; 'I' for Inactive)
REMARK       I    between atoms: N1_2  and  C3_4 
REMARK    1  A    between atoms: C3_4  and  C4_6 
REMARK    2  A    between atoms: C4_6  and  S1_7 
REMARK    3  A    between atoms: S1_7  and  C5_8 
REMARK    4  A    between atoms: C9_13  and  N3_17 
ROOT
ATOM      1  C5  <0> d           4.736   1.343  -0.037  0.00  0.00     0.136 A 
ATOM      2  N2  <0> d           3.629   2.049  -0.022  0.00  0.00    -0.233 NA
ATOM      3  C6  <0> d           2.403   1.478  -0.013  0.00  0.00     0.076 A 
ATOM      4  C7  <0> d           1.143   2.119   0.003  0.00  0.00     0.035 A 
ATOM      5  C8  <0> d          -0.017   1.389   0.010  0.00  0.00     0.031 A 
ATOM      6  C9  <0> d           0.002  -0.004   0.002  0.00  0.00     0.027 A 
ATOM      7  C10 <0> d           1.224  -0.664  -0.013  0.00  0.00     0.050 A 
ATOM      8  C11 <0> d           2.387   0.065  -0.021  0.00  0.00     0.038 A 
ATOM      9  S2  <0> d           4.118  -0.334  -0.040  0.00  0.00    -0.061 SA
ENDROOT
BRANCH   1  10
ATOM     10  S1  <0> d           6.405   1.905  -0.050  0.00  0.00    -0.094 SA
BRANCH  10  11
ATOM     11  C4  <0> d           6.135   3.695  -0.037  0.00  0.00     0.184 C 
BRANCH  11  12
ATOM     12  C3  <0> d           7.464   4.404  -0.046  0.00  0.00     0.228 C 
ATOM     13  N1  <0> d           7.509   5.751  -0.039  0.00  0.00    -0.360 N 
ATOM     14  C1  <0> d           8.802   6.441  -0.047  0.00  0.00     0.152 C 
ATOM     15  C2  <0> d           6.266   6.526  -0.023  0.00  0.00     0.152 C 
ATOM     16  O1  <0> d           8.493   3.763  -0.059  0.00  0.00    -0.273 OA
ENDBRANCH  11  12
ENDBRANCH  10  11
ENDBRANCH   1  10
BRANCH   6  17
ATOM     17  N3  <0> d          -1.195  -0.729   0.010  0.00  0.00    -0.399 N 
ATOM     18  H12 <0> d          -2.045  -0.262   0.021  0.00  0.00     0.156 HD
ATOM     19  H13 <0> d          -1.175  -1.699   0.005  0.00  0.00     0.156 HD
ENDBRANCH   6  17
TORSDOF 4
