REMARK  3 active torsions:
REMARK  status: ('A' for Active; 'I' for Inactive)
REMARK    1  A    between atoms: N2_7  and  C5_8 
REMARK    2  A    between atoms: C5_8  and  C6_9 
REMARK    3  A    between atoms: C6_9  and  S2_10 
ROOT
ATOM      1  C1  <0> d          -0.019   1.526   0.010  0.00  0.00     0.023 C 
ATOM      2  C2  <0> d           0.002  -0.004   0.002  0.00  0.00     0.069 C 
ATOM      3  C3  <0> d           0.803  -0.549  -1.208  0.00  0.00     0.137 C 
ATOM      4  N1  <0> d           2.175  -0.858  -0.814  0.00  0.00    -0.370 N 
ATOM      5  C4  <0> d           2.298  -1.460   0.429  0.00  0.00     0.136 C 
ATOM      6  S1  <0> d           1.015  -0.666   1.390  0.00  0.00    -0.088 SA
ATOM      7  N2  <0> d           3.141  -2.382   0.805  0.00  0.00    -0.370 N 
ATOM      8  H14 <0> d           2.940  -0.657  -1.376  0.00  0.00     0.161 HD
ATOM      9  H15 <0> d           3.118  -2.719   1.714  0.00  0.00     0.161 HD
ENDROOT
BRANCH   7  10
ATOM     10  C5  <0> d           4.124  -2.908  -0.146  0.00  0.00     0.136 C 
BRANCH  10  11
ATOM     11  C6  <0> d           4.984  -3.969   0.543  0.00  0.00     0.159 C 
BRANCH  11  12
ATOM     12  S2  <0> d           6.200  -4.620  -0.635  0.00  0.00     0.142 S 
ATOM     13  O1  <0> d           5.505  -5.305  -1.667  0.00  0.00    -0.228 OA
ATOM     14  O2  <0> d           7.095  -3.571  -0.982  0.00  0.00    -0.228 OA
ATOM     15  C7  <0> d           7.104  -5.840   0.357  0.00  0.00     0.161 C 
ENDBRANCH  11  12
ENDBRANCH  10  11
ENDBRANCH   7  10
TORSDOF 3
