REMARK  1 active torsions:
REMARK  status: ('A' for Active; 'I' for Inactive)
REMARK    1  A    between atoms: C4_4  and  C8_12 
ROOT
ATOM      1  C1  <0> d          -0.019   1.526   0.010  0.00  0.00     0.063 C 
ATOM      2  C2  <0> d           0.002  -0.004   0.002  0.00  0.00     0.105 C 
ATOM      3  C3  <0> d           0.713  -0.557  -1.244  0.00  0.00     0.064 C 
ATOM      4  C4  <0> d           0.719  -2.087  -1.212  0.00  0.00     0.052 C 
ATOM      5  C5  <0> d           0.009  -2.579   0.062  0.00  0.00     0.178 C 
ATOM      6  C6  <0> d           0.733  -1.920   1.236  0.00  0.00     0.233 C 
ATOM      7  O1  <0> d           1.275  -2.546   2.122  0.00  0.00    -0.273 OA
ATOM      8  N1  <0> d           0.710  -0.550   1.185  0.00  0.00    -0.334 N 
ATOM      9  C7  <0> d          -1.386  -1.953   0.043  0.00  0.00     0.233 C 
ATOM     10  O2  <0> d          -2.410  -2.603   0.049  0.00  0.00    -0.273 OA
ATOM     11  N2  <0> d          -1.367  -0.572   0.026  0.00  0.00    -0.334 N 
ATOM     12  H8  <0> d           1.126   0.011   1.858  0.00  0.00     0.165 HD
ATOM     13  H9  <0> d          -2.167  -0.024   0.020  0.00  0.00     0.165 HD
ENDROOT
BRANCH   4  14
ATOM     14  C8  <0> d           2.142  -2.583  -1.218  0.00  0.00    -0.012 A 
ATOM     15  S1  <0> d           3.445  -2.274  -0.037  0.00  0.00    -0.106 SA
ATOM     16  C11 <0> d           4.731  -3.229  -0.825  0.00  0.00     0.050 A 
ATOM     17  C10 <0> d           4.093  -3.706  -1.922  0.00  0.00     0.008 A 
ATOM     18  C9  <0> d           2.766  -3.375  -2.123  0.00  0.00     0.015 A 
ENDBRANCH   4  14
TORSDOF 1
