REMARK  6 active torsions:
REMARK  status: ('A' for Active; 'I' for Inactive)
REMARK    1  A    between atoms: C4_4  and  C8_12 
REMARK    2  A    between atoms: C5_5  and  N2_11 
REMARK    3  A    between atoms: C6_6  and  N1_8 
REMARK       I    between atoms: C8_12  and  N3_14 
REMARK    4  A    between atoms: N4_17  and  C13_20 
REMARK    5  A    between atoms: C13_20  and  C14_21 
REMARK    6  A    between atoms: C14_21  and  S1_22 
ROOT
ATOM      1  C8  <0> d           0.051  -2.865  -2.575  0.00  0.00     0.256 C 
ATOM      2  O3  <0> d           0.132  -4.074  -2.466  0.00  0.00    -0.267 OA
ATOM      3  N3  <0> d           0.014  -2.299  -3.797  0.00  0.00    -0.345 N 
ATOM      4  C9  <0> d          -0.162  -0.847  -3.952  0.00  0.00     0.156 C 
ATOM      5  C10 <0> d           0.940  -0.320  -4.878  0.00  0.00     0.292 C 
ATOM      6  N4  <0> d           0.927  -1.084  -6.133  0.00  0.00     0.092 N 
ATOM      7  C11 <0> d           1.237  -2.501  -5.897  0.00  0.00     0.292 C 
ATOM      8  C12 <0> d           0.154  -3.117  -5.012  0.00  0.00     0.156 C 
ENDROOT
BRANCH   1   9
ATOM      9  C4  <0> d          -0.007  -2.019  -1.369  0.00  0.00     0.061 A 
ATOM     10  C3  <0> d          -1.055  -1.111  -1.197  0.00  0.00     0.026 A 
ATOM     11  C2  <0> d          -1.103  -0.323  -0.068  0.00  0.00    -0.059 A 
ATOM     12  C1  <0> d          -2.234   0.656   0.115  0.00  0.00     0.048 C 
ATOM     13  C7  <0> d          -0.115  -0.423   0.898  0.00  0.00     0.045 A 
ATOM     14  C6  <0> d           0.923  -1.319   0.746  0.00  0.00     0.130 A 
ATOM     15  C5  <0> d           0.990  -2.121  -0.386  0.00  0.00     0.075 A 
BRANCH  14  16
ATOM     16  N1  <0> d           1.971  -1.421   1.787  0.00  0.00    -0.113 N 
ATOM     17  O1  <0> d           1.863  -0.796   2.817  0.00  0.00    -0.532 OA
ATOM     18  O2  <0> d           2.934  -2.128   1.608  0.00  0.00    -0.532 OA
ENDBRANCH  14  16
BRANCH  15  19
ATOM     19  N2  <0> d           2.036  -3.020  -0.544  0.00  0.00    -0.396 N 
ATOM     20  H6  <0> d           2.386  -3.207  -1.429  0.00  0.00     0.156 HD
ATOM     21  H7  <0> d           2.417  -3.462   0.231  0.00  0.00     0.156 HD
ENDBRANCH  15  19
ENDBRANCH   1   9
BRANCH   6  22
ATOM     22  C13 <0> d           1.851  -0.500  -7.114  0.00  0.00     0.287 C 
BRANCH  22  23
ATOM     23  C14 <0> d           1.632  -1.160  -8.477  0.00  0.00     0.170 C 
BRANCH  23  24
ATOM     24  S1  <0> d           2.773  -0.439  -9.689  0.00  0.00     0.142 S 
ATOM     25  O4  <0> d           2.432   0.929  -9.869  0.00  0.00    -0.228 OA
ATOM     26  O5  <0> d           4.101  -0.775  -9.312  0.00  0.00    -0.228 OA
ATOM     27  C15 <0> d           2.363  -1.338 -11.210  0.00  0.00     0.161 C 
ENDBRANCH  23  24
ENDBRANCH  22  23
ENDBRANCH   6  22
TORSDOF 6
