REMARK  5 active torsions:
REMARK  status: ('A' for Active; 'I' for Inactive)
REMARK    1  A    between atoms: C2_2  and  C3_3 
REMARK    2  A    between atoms: C2_2  and  O5_21 
REMARK    3  A    between atoms: C6_6  and  S1_9 
REMARK    4  A    between atoms: S1_9  and  N1_12 
REMARK    5  A    between atoms: N1_12  and  C9_13 
ROOT
ATOM      1  S1  <0> d          -5.671  -2.104   0.040  0.00  0.00     0.259 S 
ATOM      2  O1  <0> d          -5.900  -2.893  -1.120  0.00  0.00    -0.201 OA
ATOM      3  O2  <0> d          -5.836  -2.616   1.355  0.00  0.00    -0.201 OA
ENDROOT
BRANCH   1   4
ATOM      4  C6  <0> d          -4.013  -1.519  -0.069  0.00  0.00     0.079 A 
ATOM      5  C5  <0> d          -3.386  -1.005   1.051  0.00  0.00     0.026 A 
ATOM      6  C4  <0> d          -2.085  -0.547   0.966  0.00  0.00     0.011 A 
ATOM      7  C3  <0> d          -1.410  -0.603  -0.239  0.00  0.00    -0.030 A 
ATOM      8  C8  <0> d          -2.038  -1.111  -1.360  0.00  0.00     0.011 A 
ATOM      9  C7  <0> d          -3.338  -1.574  -1.274  0.00  0.00     0.026 A 
BRANCH   7  10
ATOM     10  C2  <0> d           0.009  -0.103  -0.332  0.00  0.00     0.147 C 
ATOM     11  C1  <0> d           0.006   1.423  -0.441  0.00  0.00     0.044 C 
BRANCH  10  12
ATOM     12  O5  <0> d           0.729  -0.496   0.838  0.00  0.00    -0.391 OA
ATOM     13  H19 <0> d           1.652  -0.208   0.847  0.00  0.00     0.210 HD
ENDBRANCH  10  12
ENDBRANCH   7  10
ENDBRANCH   1   4
BRANCH   1  14
ATOM     14  N1  <0> d          -6.665  -0.785  -0.083  0.00  0.00    -0.305 N 
ATOM     15  H9  <0> d          -7.197  -0.506   0.679  0.00  0.00     0.173 HD
BRANCH  14  16
ATOM     16  C9  <0> d          -6.740  -0.038  -1.341  0.00  0.00     0.050 C 
ATOM     17  C12 <0> d          -7.649   1.189  -1.133  0.00  0.00     0.171 C 
ATOM     18  S2  <0> d          -6.591   2.595  -1.676  0.00  0.00     0.146 S 
ATOM     19  C11 <0> d          -5.335   1.628  -2.624  0.00  0.00     0.143 C 
ATOM     20  O3  <0> d          -7.326   3.414  -2.575  0.00  0.00    -0.228 OA
ATOM     21  O4  <0> d          -5.970   3.179  -0.539  0.00  0.00    -0.228 OA
ATOM     22  C10 <0> d          -5.322   0.323  -1.781  0.00  0.00     0.047 C 
ATOM     23  C13 <0> d          -7.367  -0.938  -2.407  0.00  0.00     0.040 C 
ENDBRANCH  14  16
ENDBRANCH   1  14
TORSDOF 5
