REMARK  6 active torsions:
REMARK  status: ('A' for Active; 'I' for Inactive)
REMARK    1  A    between atoms: C7_8  and  C10_11 
REMARK    2  A    between atoms: C10_11  and  C11_12 
REMARK    3  A    between atoms: C11_12  and  N2_13 
REMARK       I    between atoms: N2_13  and  C12_14 
REMARK    4  A    between atoms: C12_14  and  C13_16 
REMARK    5  A    between atoms: C15_18  and  C16_21 
REMARK    6  A    between atoms: C19_24  and  O3_27 
ROOT
ATOM      1  N2  <0> d          -1.377  -2.600   5.613  0.00  0.00    -0.359 N 
ATOM      2  C12 <0> d          -2.537  -2.599   6.299  0.00  0.00     0.248 C 
ATOM      3  O1  <0> d          -3.583  -2.808   5.722  0.00  0.00    -0.271 OA
ATOM      4  H15 <0> d          -0.540  -2.433   6.075  0.00  0.00     0.162 HD
ENDROOT
BRANCH   2   5
ATOM      5  C13 <0> d          -2.534  -2.338   7.783  0.00  0.00     0.239 C 
ATOM      6  O2  <0> d          -3.884  -2.322   8.285  0.00  0.00    -0.290 OA
ATOM      7  N3  <0> d          -3.829  -2.920   9.635  0.00  0.00    -0.196 NA
ATOM      8  C15 <0> d          -2.873  -4.051   9.489  0.00  0.00     0.119 C 
ATOM      9  H18 <0> d          -3.495  -2.251  10.313  0.00  0.00     0.154 HD
ATOM     10  C14 <0> d          -1.810  -3.482   8.521  0.00  0.00     0.070 C 
BRANCH   8  11
ATOM     11  C16 <0> d          -2.252  -4.405  10.815  0.00  0.00    -0.038 A 
ATOM     12  C21 <0> d          -1.929  -5.720  11.098  0.00  0.00     0.011 A 
ATOM     13  C20 <0> d          -1.354  -6.046  12.311  0.00  0.00     0.037 A 
ATOM     14  C19 <0> d          -1.111  -5.054  13.250  0.00  0.00     0.068 A 
ATOM     15  C18 <0> d          -1.441  -3.737  12.967  0.00  0.00     0.037 A 
ATOM     16  C17 <0> d          -2.011  -3.415  11.750  0.00  0.00     0.011 A 
BRANCH  14  17
ATOM     17  O3  <0> d          -0.550  -5.373  14.446  0.00  0.00    -0.356 OA
ATOM     18  C22 <0> d          -0.236  -6.749  14.669  0.00  0.00     0.210 C 
ENDBRANCH  14  17
ENDBRANCH   8  11
ENDBRANCH   2   5
BRANCH   1  19
ATOM     19  C11 <0> d          -1.379  -2.854   4.170  0.00  0.00     0.127 C 
BRANCH  19  20
ATOM     20  C10 <0> d           0.055  -2.799   3.641  0.00  0.00     0.056 C 
BRANCH  20  21
ATOM     21  C7  <0> d           0.052  -3.060   2.156  0.00  0.00    -0.048 A 
ATOM     22  C6  <0> d           0.067  -4.408   1.470  0.00  0.00     0.155 A 
ATOM     23  N1  <0> d           0.057  -4.126   0.030  0.00  0.00    -0.385 N 
ATOM     24  C5  <0> d           0.039  -2.826  -0.141  0.00  0.00     0.038 A 
ATOM     25  H26 <0> d           0.062  -4.790  -0.677  0.00  0.00     0.160 HD
ATOM     26  C4  <0> d           0.023  -2.026  -1.317  0.00  0.00     0.030 A 
ATOM     27  C8  <0> d           0.036  -2.137   1.168  0.00  0.00    -0.005 A 
ATOM     28  C3  <0> d           0.005  -0.680  -1.226  0.00  0.00     0.009 A 
ATOM     29  C2  <0> d           0.002  -0.004   0.002  0.00  0.00    -0.061 A 
ATOM     30  C1  <0> d          -0.018   1.503   0.010  0.00  0.00     0.048 C 
ATOM     31  C9  <0> d           0.022  -0.669   1.180  0.00  0.00     0.020 A 
ENDBRANCH  20  21
ENDBRANCH  19  20
ENDBRANCH   1  19
TORSDOF 6
