REMARK  10 active torsions:
REMARK  status: ('A' for Active; 'I' for Inactive)
REMARK    1  A    between atoms: C7_7  and  C8_8 
REMARK    2  A    between atoms: C8_8  and  C9_9 
REMARK    3  A    between atoms: C8_8  and  O1_15 
REMARK    4  A    between atoms: O1_15  and  C15_16 
REMARK    5  A    between atoms: C15_16  and  C16_17 
REMARK    6  A    between atoms: C16_17  and  C17_18 
REMARK    7  A    between atoms: C16_17  and  O3_25 
REMARK    8  A    between atoms: C17_18  and  N1_19 
REMARK    9  A    between atoms: N1_19  and  C19_21 
REMARK   10  A    between atoms: C19_21  and  C20_22 
REMARK       I    between atoms: C20_22  and  N2_24 
ROOT
ATOM      1  O1  <0> d          -0.523  -0.787   3.528  0.00  0.00    -0.374 OA
ENDROOT
BRANCH   1   2
ATOM      2  C8  <0> d           0.025   0.045   2.504  0.00  0.00     0.188 C 
BRANCH   2   3
ATOM      3  C7  <0> d           0.023  -0.702   1.195  0.00  0.00    -0.019 A 
ATOM      4  C2  <0> d           0.002  -0.004   0.002  0.00  0.00    -0.053 A 
ATOM      5  C1  <0> d          -0.018   1.503   0.010  0.00  0.00     0.049 C 
ATOM      6  C3  <0> d           0.006  -0.689  -1.199  0.00  0.00     0.007 A 
ATOM      7  C4  <0> d           0.025  -2.071  -1.207  0.00  0.00     0.001 A 
ATOM      8  C5  <0> d           0.040  -2.768  -0.013  0.00  0.00     0.001 A 
ATOM      9  C6  <0> d           0.037  -2.084   1.188  0.00  0.00     0.011 A 
ENDBRANCH   2   3
BRANCH   2  10
ATOM     10  C9  <0> d           1.439   0.420   2.866  0.00  0.00    -0.025 A 
ATOM     11  C14 <0> d           1.897   1.702   2.625  0.00  0.00     0.010 A 
ATOM     12  C13 <0> d           3.193   2.048   2.961  0.00  0.00     0.001 A 
ATOM     13  C12 <0> d           4.033   1.109   3.529  0.00  0.00     0.000 A 
ATOM     14  C11 <0> d           3.577  -0.174   3.765  0.00  0.00     0.001 A 
ATOM     15  C10 <0> d           2.280  -0.519   3.433  0.00  0.00     0.010 A 
ENDBRANCH   2  10
ENDBRANCH   1   2
BRANCH   1  16
ATOM     16  C15 <0> d          -1.187  -0.068   4.569  0.00  0.00     0.202 C 
BRANCH  16  17
ATOM     17  C16 <0> d          -1.732  -1.054   5.604  0.00  0.00     0.167 C 
BRANCH  17  18
ATOM     18  C17 <0> d          -2.332  -0.280   6.779  0.00  0.00     0.268 C 
BRANCH  18  19
ATOM     19  N1  <0> d          -2.747  -1.224   7.826  0.00  0.00    -0.064 N 
ATOM     20  C18 <0> d          -1.563  -1.901   8.371  0.00  0.00     0.270 C 
ATOM     21  H27 <0> d          -3.374  -1.909   7.433  0.00  0.00     0.280 HD
BRANCH  19  22
ATOM     22  C19 <0> d          -3.431  -0.493   8.901  0.00  0.00     0.336 C 
BRANCH  22  23
ATOM     23  C20 <0> d          -3.964  -1.473   9.915  0.00  0.00     0.241 C 
ATOM     24  O2  <0> d          -3.790  -2.663   9.757  0.00  0.00    -0.272 OA
ATOM     25  N2  <0> d          -4.633  -1.027  10.996  0.00  0.00    -0.369 N 
ATOM     26  H24 <0> d          -4.772  -0.075  11.122  0.00  0.00     0.159 HD
ATOM     27  H25 <0> d          -4.976  -1.657  11.649  0.00  0.00     0.159 HD
ENDBRANCH  22  23
ENDBRANCH  19  22
ENDBRANCH  18  19
ENDBRANCH  17  18
BRANCH  17  28
ATOM     28  O3  <0> d          -2.742  -1.866   5.003  0.00  0.00    -0.392 OA
ATOM     29  H26 <0> d          -3.496  -1.367   4.660  0.00  0.00     0.210 HD
ENDBRANCH  17  28
ENDBRANCH  16  17
ENDBRANCH   1  16
TORSDOF 10
