REMARK  4 active torsions:
REMARK  status: ('A' for Active; 'I' for Inactive)
REMARK    1  A    between atoms: C9_12  and  C11_14 
REMARK    2  A    between atoms: C11_14  and  C12_15 
REMARK    3  A    between atoms: C11_14  and  N6_29 
REMARK    4  A    between atoms: N5_19  and  C13_20 
ROOT
ATOM      1  C11 <0> d           0.124  -2.907   5.005  0.00  0.00     0.299 C 
ENDROOT
BRANCH   1   2
ATOM      2  C9  <0> d           0.276  -1.996   3.815  0.00  0.00     0.049 A 
ATOM      3  C8  <0> d           0.399  -0.603   4.007  0.00  0.00     0.254 A 
ATOM      4  N1  <0> d           0.536   0.242   2.970  0.00  0.00    -0.322 N 
ATOM      5  O1  <0> d           0.379  -0.155   5.140  0.00  0.00    -0.268 OA
ATOM      6  C7  <0> d           0.562  -0.224   1.673  0.00  0.00     0.051 A 
ATOM      7  H1  <0> d           0.621   1.224   3.143  0.00  0.00     0.169 HD
ATOM      8  C2  <0> d           0.704   0.650   0.601  0.00  0.00    -0.034 A 
ATOM      9  C6  <0> d           0.444  -1.605   1.428  0.00  0.00    -0.008 A 
ATOM     10  C1  <0> d           0.832   2.132   0.845  0.00  0.00     0.050 C 
ATOM     11  C3  <0> d           0.722   0.157  -0.686  0.00  0.00     0.009 A 
ATOM     12  C4  <0> d           0.612  -1.206  -0.924  0.00  0.00     0.002 A 
ATOM     13  C5  <0> d           0.471  -2.084   0.114  0.00  0.00     0.014 A 
ATOM     14  C10 <0> d           0.295  -2.517   2.563  0.00  0.00     0.029 A 
ENDBRANCH   1   2
BRANCH   1  15
ATOM     15  C12 <0> d          -1.181  -2.614   5.699  0.00  0.00     0.184 A 
ATOM     16  N5  <0> d          -2.265  -3.410   5.742  0.00  0.00    -0.223 N 
ATOM     17  N4  <0> d          -3.163  -2.793   6.432  0.00  0.00    -0.043 NA
ATOM     18  N3  <0> d          -2.687  -1.660   6.815  0.00  0.00    -0.023 NA
ATOM     19  N2  <0> d          -1.480  -1.536   6.382  0.00  0.00    -0.111 NA
BRANCH  16  20
ATOM     20  C13 <0> d          -2.401  -4.730   5.120  0.00  0.00     0.048 C 
ATOM     21  C14 <0> d          -1.385  -5.692   5.740  0.00  0.00     0.040 C 
ATOM     22  C15 <0> d          -3.816  -5.262   5.355  0.00  0.00     0.040 C 
ATOM     23  C16 <0> d          -2.142  -4.615   3.617  0.00  0.00     0.040 C 
ENDBRANCH  16  20
ENDBRANCH   1  15
BRANCH   1  24
ATOM     24  N6  <0> d           1.236  -2.657   5.948  0.00  0.00    -0.052 N 
ATOM     25  C17 <0> d           2.531  -2.877   5.272  0.00  0.00     0.262 C 
ATOM     26  C18 <0> d           3.659  -2.575   6.262  0.00  0.00     0.195 C 
ATOM     27  O2  <0> d           3.513  -3.412   7.413  0.00  0.00    -0.388 OA
ATOM     28  C19 <0> d           2.262  -3.249   8.088  0.00  0.00     0.195 C 
ATOM     29  C20 <0> d           1.120  -3.557   7.116  0.00  0.00     0.262 C 
ATOM     30  H27 <0> d           1.188  -1.684   6.271  0.00  0.00     0.281 HD
ENDBRANCH   1  24
TORSDOF 4
