REMARK  4 active torsions:
REMARK  status: ('A' for Active; 'I' for Inactive)
REMARK    1  A    between atoms: C7_7  and  C8_8 
REMARK    2  A    between atoms: C7_7  and  N2_31 
REMARK    3  A    between atoms: C9_9  and  O3_29 
REMARK    4  A    between atoms: C15_16  and  C16_17 
ROOT
ATOM      1  C8  <0> d          -2.735   2.864   2.533  0.00  0.00     0.036 A 
ATOM      2  C9  <0> d          -2.975   1.691   3.231  0.00  0.00     0.076 A 
ATOM      3  C10 <0> d          -4.264   1.172   3.321  0.00  0.00     0.038 A 
ATOM      4  C11 <0> d          -5.308   1.817   2.720  0.00  0.00     0.021 A 
ATOM      5  C12 <0> d          -5.082   2.998   2.015  0.00  0.00     0.051 A 
ATOM      6  C13 <0> d          -3.787   3.533   1.923  0.00  0.00     0.101 A 
ATOM      7  O1  <0> d          -3.836   4.667   1.190  0.00  0.00    -0.305 OA
ATOM      8  C14 <0> d          -5.098   4.939   0.784  0.00  0.00     0.128 A 
ATOM      9  C15 <0> d          -5.479   6.012   0.035  0.00  0.00     0.055 C 
ATOM     10  C24 <0> d          -5.958   3.919   1.271  0.00  0.00     0.218 A 
ATOM     11  O2  <0> d          -7.164   3.826   1.107  0.00  0.00    -0.284 OA
ENDROOT
BRANCH   9  12
ATOM     12  C16 <0> d          -4.485   6.990  -0.400  0.00  0.00    -0.005 A 
ATOM     13  C19 <0> d          -4.728   8.200  -1.210  0.00  0.00     0.002 A 
ATOM     14  C18 <0> d          -3.476   8.817  -1.368  0.00  0.00     0.043 A 
ATOM     15  C20 <0> d          -5.864   8.767  -1.780  0.00  0.00     0.014 A 
ATOM     16  N1  <0> d          -2.542   8.046  -0.707  0.00  0.00    -0.364 N 
ATOM     17  C23 <0> d          -3.386   9.997  -2.099  0.00  0.00     0.030 A 
ATOM     18  C17 <0> d          -3.133   6.971  -0.130  0.00  0.00     0.100 A 
ATOM     19  H2  <0> d          -1.594   8.248  -0.658  0.00  0.00     0.165 HD
ATOM     20  C22 <0> d          -4.519  10.548  -2.658  0.00  0.00     0.002 A 
ATOM     21  C21 <0> d          -5.754   9.937  -2.501  0.00  0.00     0.001 A 
ENDBRANCH   9  12
BRANCH   1  22
ATOM     22  C7  <0> d          -1.335   3.415   2.443  0.00  0.00     0.279 C 
BRANCH  22  23
ATOM     23  N2  <0> d          -0.742   2.999   1.156  0.00  0.00    -0.063 N 
ATOM     24  C2  <0> d           0.552   3.684   0.952  0.00  0.00     0.184 C 
ATOM     25  C1  <0> d           0.335   5.196   1.042  0.00  0.00     0.040 C 
ATOM     26  C3  <0> d           1.089   3.328  -0.437  0.00  0.00     0.033 C 
ATOM     27  C4  <0> d           1.286   1.813  -0.531  0.00  0.00     0.004 C 
ATOM     28  C5  <0> d          -0.047   1.114  -0.244  0.00  0.00     0.028 C 
ATOM     29  C6  <0> d          -0.550   1.533   1.139  0.00  0.00     0.235 C 
ATOM     30  H25 <0> d          -1.380   3.260   0.395  0.00  0.00     0.280 HD
ENDBRANCH  22  23
ENDBRANCH   1  22
BRANCH   2  31
ATOM     31  O3  <0> d          -1.945   1.042   3.832  0.00  0.00    -0.360 OA
ATOM     32  H24 <0> d          -1.783   1.321   4.743  0.00  0.00     0.217 HD
ENDBRANCH   2  31
TORSDOF 4
