REMARK  3 active torsions:
REMARK  status: ('A' for Active; 'I' for Inactive)
REMARK    1  A    between atoms: C5_5  and  N1_8 
REMARK    2  A    between atoms: C10_12  and  N2_15 
REMARK    3  A    between atoms: N2_15  and  C12_16 
ROOT
ATOM      1  N1  <0> d           0.059  -4.172  -0.021  0.00  0.00    -0.251 N 
ATOM      2  C8  <0> d          -0.030  -4.892  -1.146  0.00  0.00     0.233 A 
ATOM      3  O1  <0> d          -0.134  -4.436  -2.265  0.00  0.00    -0.273 OA
ATOM      4  C9  <0> d           0.020  -6.364  -0.801  0.00  0.00     0.149 A 
ATOM      5  C10 <0> d           0.155  -6.371   0.735  0.00  0.00     0.321 A 
ATOM      6  C11 <0> d           0.172  -4.902   1.096  0.00  0.00     0.265 A 
ATOM      7  O2  <0> d           0.271  -4.455   2.219  0.00  0.00    -0.270 OA
ENDROOT
BRANCH   5   8
ATOM      8  N2  <0> d           1.411  -7.016   1.141  0.00  0.00     0.103 N 
ATOM      9  H12 <0> d           1.677  -7.734   0.484  0.00  0.00     0.317 HD
BRANCH   8  10
ATOM     10  C12 <0> d           1.307  -7.560   2.502  0.00  0.00     0.236 C 
ATOM     11  C15 <0> d           2.318  -8.729   2.679  0.00  0.00     0.175 C 
ATOM     12  S1  <0> d           2.433  -8.800   4.516  0.00  0.00     0.146 S 
ATOM     13  C14 <0> d           1.862  -7.100   4.923  0.00  0.00     0.142 C 
ATOM     14  O3  <0> d           3.797  -8.931   4.889  0.00  0.00    -0.228 OA
ATOM     15  O4  <0> d           1.482  -9.737   5.004  0.00  0.00    -0.228 OA
ATOM     16  C13 <0> d           1.655  -6.467   3.526  0.00  0.00     0.051 C 
ENDBRANCH   8  10
ENDBRANCH   5   8
BRANCH   1  17
ATOM     17  C5  <0> d           0.040  -2.771  -0.013  0.00  0.00     0.045 A 
ATOM     18  C4  <0> d           1.177  -2.062   0.351  0.00  0.00     0.031 A 
ATOM     19  C3  <0> d           1.156  -0.681   0.357  0.00  0.00     0.009 A 
ATOM     20  C2  <0> d           0.004  -0.004   0.001  0.00  0.00    -0.062 A 
ATOM     21  C1  <0> d          -0.016   1.503   0.009  0.00  0.00     0.048 C 
ATOM     22  C7  <0> d          -1.132  -0.707  -0.357  0.00  0.00     0.009 A 
ATOM     23  C6  <0> d          -1.115  -2.088  -0.370  0.00  0.00     0.031 A 
ENDBRANCH   1  17
TORSDOF 3
