REMARK  7 active torsions:
REMARK  status: ('A' for Active; 'I' for Inactive)
REMARK    1  A    between atoms: N1_5  and  C5_7 
REMARK    2  A    between atoms: C5_7  and  C6_8 
REMARK    3  A    between atoms: C6_8  and  C7_9 
REMARK    4  A    between atoms: C7_9  and  N3_10 
REMARK       I    between atoms: N3_10  and  C8_11 
REMARK    5  A    between atoms: C8_11  and  C9_13 
REMARK       I    between atoms: N4_15  and  C17_23 
REMARK    6  A    between atoms: C17_23  and  C18_25 
REMARK    7  A    between atoms: C18_25  and  C19_26 
ROOT
ATOM      1  C9  <0> d           4.606  -6.758   4.021  0.00  0.00     0.106 C 
ATOM      2  C10 <0> d           5.356  -5.585   4.691  0.00  0.00     0.140 C 
ATOM      3  N4  <0> d           5.252  -5.856   6.144  0.00  0.00    -0.350 N 
ATOM      4  C11 <0> d           5.422  -7.324   6.259  0.00  0.00     0.136 C 
ATOM      5  C12 <0> d           4.654  -7.898   5.052  0.00  0.00    -0.007 C 
ATOM      6  C13 <0> d           3.241  -8.295   5.467  0.00  0.00     0.039 C 
ATOM      7  C14 <0> d           3.313  -9.468   6.449  0.00  0.00     0.233 C 
ATOM      8  N5  <0> d           3.994 -10.601   5.811  0.00  0.00    -0.075 N 
ATOM      9  C15 <0> d           5.382 -10.240   5.498  0.00  0.00     0.233 C 
ATOM     10  C16 <0> d           5.397  -9.100   4.476  0.00  0.00     0.039 C 
ATOM     11  C17 <0> d           5.049  -4.968   7.138  0.00  0.00     0.224 C 
ATOM     12  O2  <0> d           4.988  -5.348   8.288  0.00  0.00    -0.273 OA
ATOM     13  H21 <0> d           3.986 -11.392   6.437  0.00  0.00     0.277 HD
ATOM     14  H35 <0> d           3.511 -10.846   4.959  0.00  0.00     0.277 HD
ENDROOT
BRANCH   1  15
ATOM     15  C8  <0> d           3.179  -6.371   3.733  0.00  0.00     0.224 C 
ATOM     16  N3  <0> d           2.520  -6.942   2.704  0.00  0.00    -0.361 N 
ATOM     17  H12 <0> d           2.965  -7.602   2.150  0.00  0.00     0.162 HD
ATOM     18  O1  <0> d           2.622  -5.546   4.426  0.00  0.00    -0.273 OA
BRANCH  16  19
ATOM     19  C7  <0> d           1.132  -6.566   2.424  0.00  0.00     0.124 C 
BRANCH  19  20
ATOM     20  C6  <0> d           0.624  -7.354   1.216  0.00  0.00     0.041 C 
BRANCH  20  21
ATOM     21  C5  <0> d          -0.825  -6.962   0.923  0.00  0.00     0.152 C 
BRANCH  21  22
ATOM     22  N1  <0> d          -1.312  -7.716  -0.235  0.00  0.00    -0.274 N 
ATOM     23  C4  <0> d          -1.924  -8.918  -0.198  0.00  0.00     0.028 A 
ATOM     24  C3  <0> d          -2.215  -9.272  -1.472  0.00  0.00     0.055 A 
ATOM     25  C25 <0> d          -2.230  -9.723   1.039  0.00  0.00     0.070 C 
ATOM     26  C2  <0> d          -1.765  -8.251  -2.315  0.00  0.00     0.053 A 
ATOM     27  C1  <0> d          -1.883  -8.229  -3.817  0.00  0.00     0.072 C 
ATOM     28  N2  <0> d          -1.218  -7.320  -1.575  0.00  0.00    -0.177 NA
ENDBRANCH  21  22
ENDBRANCH  20  21
ENDBRANCH  19  20
ENDBRANCH  16  19
ENDBRANCH   1  15
BRANCH  11  29
ATOM     29  C18 <0> d           4.899  -3.502   6.819  0.00  0.00     0.141 C 
BRANCH  29  30
ATOM     30  C19 <0> d           4.683  -2.730   8.095  0.00  0.00    -0.049 A 
ATOM     31  C24 <0> d           5.768  -2.231   8.792  0.00  0.00     0.009 A 
ATOM     32  C23 <0> d           5.571  -1.518   9.959  0.00  0.00     0.024 A 
ATOM     33  C22 <0> d           4.288  -1.314  10.437  0.00  0.00     0.034 A 
ATOM     34  C21 <0> d           3.204  -1.819   9.742  0.00  0.00     0.024 A 
ATOM     35 Cl1  <0> d           4.040  -0.424  11.907  0.00  0.00    -0.084 Cl
ATOM     36  C20 <0> d           3.402  -2.527   8.572  0.00  0.00     0.009 A 
ENDBRANCH  29  30
ENDBRANCH  11  29
TORSDOF 7
