REMARK  2 active torsions:
REMARK  status: ('A' for Active; 'I' for Inactive)
REMARK    1  A    between atoms: C6_6  and  N1_8 
REMARK    2  A    between atoms: C10_12  and  C11_13 
ROOT
ATOM      1  N1  <0> d          -0.066   5.248  -0.334  0.00  0.00    -0.229 N 
ATOM      2  C8  <0> d          -1.250   5.896  -0.336  0.00  0.00     0.272 A 
ATOM      3  O1  <0> d          -2.294   5.290  -0.485  0.00  0.00    -0.266 OA
ATOM      4  C9  <0> d          -1.244   7.357  -0.147  0.00  0.00     0.103 A 
ATOM      5  C10 <0> d          -2.424   8.091  -0.133  0.00  0.00     0.060 C 
ATOM      6  C15 <0> d           0.068   8.007   0.020  0.00  0.00     0.265 A 
ATOM      7  O3  <0> d           0.153   9.211   0.176  0.00  0.00    -0.267 OA
ATOM      8  N2  <0> d           1.172   7.232  -0.005  0.00  0.00    -0.274 N 
ATOM      9  C16 <0> d           1.092   5.905  -0.176  0.00  0.00     0.337 A 
ATOM     10  O4  <0> d           2.124   5.263  -0.189  0.00  0.00    -0.246 OA
ATOM     11  H11 <0> d           2.043   7.644   0.103  0.00  0.00     0.173 HD
ENDROOT
BRANCH   1  12
ATOM     12  C6  <0> d          -0.047   3.857  -0.506  0.00  0.00     0.048 A 
ATOM     13  C5  <0> d           0.169   3.315  -1.765  0.00  0.00     0.037 A 
ATOM     14  C4  <0> d           0.193   1.944  -1.931  0.00  0.00    -0.059 A 
ATOM     15  C3  <0> d          -0.010   1.112  -0.846  0.00  0.00     0.013 A 
ATOM     16  C17 <0> d           0.434   1.355  -3.297  0.00  0.00     0.048 C 
ATOM     17  C2  <0> d          -0.226   1.649   0.410  0.00  0.00    -0.059 A 
ATOM     18  C1  <0> d          -0.441   0.738   1.591  0.00  0.00     0.048 C 
ATOM     19  C7  <0> d          -0.245   3.019   0.583  0.00  0.00     0.037 A 
ENDBRANCH   1  12
BRANCH   5  20
ATOM     20  C11 <0> d          -3.663   7.429  -0.128  0.00  0.00     0.076 A 
ATOM     21  O2  <0> d          -3.964   6.307   0.560  0.00  0.00    -0.323 OA
ATOM     22  C14 <0> d          -5.237   5.969   0.325  0.00  0.00     0.142 A 
ATOM     23  C13 <0> d          -5.784   6.865  -0.532  0.00  0.00     0.027 A 
ATOM     24  C12 <0> d          -4.795   7.807  -0.834  0.00  0.00     0.039 A 
ENDBRANCH   5  20
TORSDOF 2
