REMARK  5 active torsions:
REMARK  status: ('A' for Active; 'I' for Inactive)
REMARK    1  A    between atoms: O1_2  and  C2_3 
REMARK    2  A    between atoms: C17_19  and  O3_20 
REMARK    3  A    between atoms: C19_22  and  C20_23 
REMARK    4  A    between atoms: C19_22  and  N1_26 
REMARK    5  A    between atoms: C20_23  and  O4_24 
ROOT
ATOM      1  C2  <0> d           2.400   3.948  -3.361  0.00  0.00     0.102 C 
ATOM      2  C3  <0> d           1.214   3.640  -4.024  0.00  0.00     0.040 C 
ATOM      3  C4  <0> d           0.390   2.587  -3.666  0.00  0.00     0.011 C 
ATOM      4  C5  <0> d           0.698   1.799  -2.568  0.00  0.00    -0.045 C 
ATOM      5  C6  <0> d           1.815   2.193  -1.861  0.00  0.00     0.001 C 
ATOM      6  C7  <0> d           2.729   3.152  -2.254  0.00  0.00     0.111 C 
ATOM      7  O2  <0> d           3.858   3.064  -1.526  0.00  0.00    -0.334 OA
ATOM      8  C8  <0> d           3.766   2.008  -0.551  0.00  0.00     0.203 A 
ATOM      9  C9  <0> d           2.342   1.511  -0.622  0.00  0.00     0.050 A 
ATOM     10  C10 <0> d           1.524   1.869   0.609  0.00  0.00     0.050 C 
ATOM     11  C11 <0> d           0.079   1.396   0.446  0.00  0.00     0.237 C 
ATOM     12  C12 <0> d           0.661  -0.318  -1.149  0.00  0.00     0.222 C 
ATOM     13  C13 <0> d          -0.062   0.586  -2.151  0.00  0.00     0.077 C 
ATOM     14  C14 <0> d           2.119   0.064  -0.982  0.00  0.00    -0.033 A 
ATOM     15  C15 <0> d           3.109  -0.781  -1.153  0.00  0.00     0.009 A 
ATOM     16  C16 <0> d           4.499  -0.321  -1.039  0.00  0.00     0.035 A 
ATOM     17  C17 <0> d           4.788   0.949  -0.779  0.00  0.00     0.076 A 
ATOM     18  N1  <0> d           0.050  -0.053   0.184  0.00  0.00    -0.061 N 
ATOM     19  H24 <0> d           0.593  -0.539   0.907  0.00  0.00     0.280 HD
ENDROOT
BRANCH  18  20
ATOM     20  C19 <0> d          -1.345  -0.550   0.214  0.00  0.00     0.261 C 
BRANCH  20  21
ATOM     21  C20 <0> d          -1.361  -2.032  -0.166  0.00  0.00     0.192 C 
BRANCH  21  22
ATOM     22  O4  <0> d          -0.607  -2.778   0.792  0.00  0.00    -0.399 OA
ATOM     23  H23 <0> d          -0.574  -3.727   0.613  0.00  0.00     0.209 HD
ENDBRANCH  21  22
ENDBRANCH  20  21
ENDBRANCH  18  20
BRANCH  17  24
ATOM     24  O3  <0> d           6.093   1.303  -0.717  0.00  0.00    -0.357 OA
ATOM     25  C18 <0> d           7.057   0.271  -0.938  0.00  0.00     0.209 C 
ENDBRANCH  17  24
BRANCH   1  26
ATOM     26  O1  <0> d           3.199   4.971  -3.766  0.00  0.00    -0.353 OA
ATOM     27  C1  <0> d           2.769   5.717  -4.906  0.00  0.00     0.210 C 
ENDBRANCH   1  26
TORSDOF 5
