REMARK  7 active torsions:
REMARK  status: ('A' for Active; 'I' for Inactive)
REMARK    1  A    between atoms: N1_2  and  C2_3 
REMARK    2  A    between atoms: N1_2  and  C9_10 
REMARK    3  A    between atoms: C2_3  and  C3_4 
REMARK    4  A    between atoms: C9_10  and  C10_11 
REMARK    5  A    between atoms: C10_11  and  C11_12 
REMARK    6  A    between atoms: C10_11  and  O2_23 
REMARK    7  A    between atoms: C11_12  and  N2_13 
ROOT
ATOM      1  C10 <0> d           2.126   0.157   1.211  0.00  0.00     0.162 C 
ENDROOT
BRANCH   1   2
ATOM      2  C9  <0> d           0.694  -0.382   1.242  0.00  0.00     0.268 C 
BRANCH   2   3
ATOM      3  N1  <0> d          -0.035   0.099   0.060  0.00  0.00    -0.069 N 
ATOM      4  C1  <0> d          -1.448  -0.289   0.166  0.00  0.00     0.270 C 
ATOM      5  H20 <0> d           0.035   1.104   0.008  0.00  0.00     0.279 HD
BRANCH   3   6
ATOM      6  C2  <0> d           0.546  -0.496  -1.150  0.00  0.00     0.273 C 
BRANCH   6   7
ATOM      7  C3  <0> d          -0.120   0.090  -2.368  0.00  0.00    -0.033 A 
ATOM      8  C8  <0> d           0.397   1.228  -2.958  0.00  0.00     0.009 A 
ATOM      9  C7  <0> d          -0.211   1.763  -4.078  0.00  0.00     0.001 A 
ATOM     10  C6  <0> d          -1.343   1.165  -4.602  0.00  0.00     0.000 A 
ATOM     11  C5  <0> d          -1.863   0.030  -4.009  0.00  0.00     0.001 A 
ATOM     12  C4  <0> d          -1.251  -0.507  -2.892  0.00  0.00     0.009 A 
ENDBRANCH   6   7
ENDBRANCH   3   6
ENDBRANCH   2   3
ENDBRANCH   1   2
BRANCH   1  13
ATOM     13  C11 <0> d           2.920  -0.441   2.374  0.00  0.00     0.166 C 
BRANCH  13  14
ATOM     14  N2  <0> d           4.291   0.075   2.345  0.00  0.00    -0.305 N 
ATOM     15  C17 <0> d           4.609   1.211   3.011  0.00  0.00     0.268 A 
ATOM     16  C16 <0> d           5.929   1.658   2.956  0.00  0.00     0.101 A 
ATOM     17  O1  <0> d           3.765   1.823   3.645  0.00  0.00    -0.266 OA
ATOM     18  C13 <0> d           6.908   0.963   2.225  0.00  0.00     0.081 A 
ATOM     19  S1  <0> d           6.820   3.034   3.632  0.00  0.00    -0.094 SA
ATOM     20  N3  <0> d           6.483  -0.173   1.581  0.00  0.00    -0.242 NA
ATOM     21  C14 <0> d           8.192   1.525   2.249  0.00  0.00     0.040 A 
ATOM     22  C12 <0> d           5.255  -0.579   1.645  0.00  0.00     0.213 A 
ATOM     23  C15 <0> d           8.424   2.659   2.944  0.00  0.00     0.053 A 
ENDBRANCH  13  14
ENDBRANCH   1  13
BRANCH   1  24
ATOM     24  O2  <0> d           2.102   1.580   1.332  0.00  0.00    -0.392 OA
ATOM     25  H19 <0> d           1.694   1.899   2.149  0.00  0.00     0.210 HD
ENDBRANCH   1  24
TORSDOF 7
