REMARK  7 active torsions:
REMARK  status: ('A' for Active; 'I' for Inactive)
REMARK    1  A    between atoms: N2_4  and  C4_6 
REMARK    2  A    between atoms: C4_6  and  C5_7 
REMARK    3  A    between atoms: C5_7  and  N3_8 
REMARK       I    between atoms: N3_8  and  C6_9 
REMARK    4  A    between atoms: C6_9  and  C7_11 
REMARK    5  A    between atoms: C10_14  and  C11_16 
REMARK    6  A    between atoms: C12_17  and  C13_18 
REMARK    7  A    between atoms: C13_18  and  N4_19 
ROOT
ATOM      1  C7  <0> d           4.510  -5.169  -2.208  0.00  0.00     0.073 A 
ATOM      2  C8  <0> d           5.376  -5.784  -3.101  0.00  0.00     0.026 A 
ATOM      3  C9  <0> d           5.685  -7.101  -2.914  0.00  0.00     0.029 A 
ATOM      4  C10 <0> d           5.120  -7.772  -1.838  0.00  0.00     0.059 A 
ATOM      5  S1  <0> d           4.134  -6.495  -1.074  0.00  0.00    -0.076 SA
ENDROOT
BRANCH   1   6
ATOM      6  C6  <0> d           4.031  -3.785  -2.196  0.00  0.00     0.258 C 
ATOM      7  N3  <0> d           3.187  -3.372  -1.229  0.00  0.00    -0.355 N 
ATOM      8  H8  <0> d           2.897  -3.992  -0.542  0.00  0.00     0.162 HD
ATOM      9  O1  <0> d           4.396  -3.007  -3.058  0.00  0.00    -0.267 OA
BRANCH   7  10
ATOM     10  C5  <0> d           2.709  -1.987  -1.217  0.00  0.00     0.144 C 
BRANCH  10  11
ATOM     11  C4  <0> d           1.771  -1.782  -0.025  0.00  0.00     0.170 C 
BRANCH  11  12
ATOM     12  N2  <0> d           1.293  -0.398  -0.012  0.00  0.00    -0.280 N 
ATOM     13  N1  <0> d           2.094   0.751  -0.014  0.00  0.00    -0.185 NA
ATOM     14  C2  <0> d           1.308   1.797  -0.001  0.00  0.00     0.140 A 
ATOM     15  C1  <0> d          -0.016   1.349   0.009  0.00  0.00     0.040 A 
ATOM     16  C3  <0> d           0.002  -0.004   0.002  0.00  0.00     0.113 A 
ENDBRANCH  11  12
ENDBRANCH  10  11
ENDBRANCH   7  10
ENDBRANCH   1   6
BRANCH   4  17
ATOM     17  C11 <0> d           5.290  -9.137  -1.440  0.00  0.00    -0.058 C 
ATOM     18  C12 <0> d           5.429 -10.257  -1.114  0.00  0.00    -0.073 C 
BRANCH  18  19
ATOM     19  C13 <0> d           5.603 -11.660  -0.705  0.00  0.00     0.323 C 
BRANCH  19  20
ATOM     20  N4  <0> d           4.805 -11.921   0.500  0.00  0.00    -0.069 N 
ATOM     21  H13 <0> d           5.111 -11.313   1.245  0.00  0.00     0.275 HD
ATOM     22  H14 <0> d           3.831 -11.747   0.302  0.00  0.00     0.275 HD
ATOM     23  H15 <0> d           4.924 -12.883   0.780  0.00  0.00     0.275 HD
ENDBRANCH  19  20
ENDBRANCH  18  19
ENDBRANCH   4  17
TORSDOF 7
