REMARK  3 active torsions:
REMARK  status: ('A' for Active; 'I' for Inactive)
REMARK    1  A    between atoms: N1_10  and  C9_11 
REMARK    2  A    between atoms: C9_11  and  C10_12 
REMARK       I    between atoms: C10_12  and  N2_14 
REMARK    3  A    between atoms: N3_15  and  C13_20 
ROOT
ATOM      1  C1  <0> d          -5.233   2.233  -2.330  0.00  0.00     0.001 A 
ATOM      2  C2  <0> d          -4.172   1.346  -2.326  0.00  0.00     0.002 A 
ATOM      3  C3  <0> d          -3.499   1.071  -1.154  0.00  0.00     0.030 A 
ATOM      4  C4  <0> d          -3.882   1.685   0.035  0.00  0.00     0.048 A 
ATOM      5  C5  <0> d          -4.952   2.577   0.020  0.00  0.00     0.017 A 
ATOM      6  C6  <0> d          -5.621   2.847  -1.153  0.00  0.00     0.013 A 
ATOM      7  C7  <0> d          -5.099   3.051   1.432  0.00  0.00     0.201 A 
ATOM      8  C8  <0> d          -4.035   2.341   2.212  0.00  0.00     0.269 A 
ATOM      9  O1  <0> d          -3.816   2.441   3.401  0.00  0.00    -0.269 OA
ATOM     10  N1  <0> d          -3.366   1.571   1.329  0.00  0.00    -0.305 N 
ATOM     11  N3  <0> d          -5.050   4.503   1.566  0.00  0.00    -0.285 N 
ATOM     12  C11 <0> d          -6.180   5.165   1.807  0.00  0.00     0.235 C 
ATOM     13  O3  <0> d          -6.189   6.371   1.937  0.00  0.00    -0.272 OA
ATOM     14  C12 <0> d          -7.462   4.351   1.914  0.00  0.00     0.180 C 
ATOM     15  S1  <0> d          -6.764   2.649   2.091  0.00  0.00    -0.113 SA
ENDROOT
BRANCH  11  16
ATOM     16  C13 <0> d          -3.835   5.189   1.444  0.00  0.00     0.040 A 
ATOM     17  C18 <0> d          -3.090   5.491   2.576  0.00  0.00     0.031 A 
ATOM     18  C17 <0> d          -1.892   6.167   2.452  0.00  0.00     0.026 A 
ATOM     19  C16 <0> d          -1.435   6.543   1.202  0.00  0.00     0.034 A 
ATOM     20  C15 <0> d          -2.175   6.244   0.072  0.00  0.00     0.026 A 
ATOM     21 Cl1  <0> d           0.071   7.394   1.050  0.00  0.00    -0.084 Cl
ATOM     22  C14 <0> d          -3.371   5.562   0.190  0.00  0.00     0.031 A 
ENDBRANCH  11  16
BRANCH  10  23
ATOM     23  C9  <0> d          -2.235   0.712   1.686  0.00  0.00     0.234 C 
BRANCH  23  24
ATOM     24  C10 <0> d          -0.956   1.506   1.608  0.00  0.00     0.233 C 
ATOM     25  O2  <0> d          -0.975   2.646   1.195  0.00  0.00    -0.272 OA
ATOM     26  N2  <0> d           0.208   0.950   1.998  0.00  0.00    -0.369 N 
ATOM     27  H7  <0> d           0.223   0.038   2.329  0.00  0.00     0.159 HD
ATOM     28  H8  <0> d           1.031   1.460   1.944  0.00  0.00     0.159 HD
ENDBRANCH  23  24
ENDBRANCH  10  23
TORSDOF 3
