REMARK  5 active torsions:
REMARK  status: ('A' for Active; 'I' for Inactive)
REMARK    1  A    between atoms: C2_2  and  C3_3 
REMARK    2  A    between atoms: C2_2  and  N3_14 
REMARK    3  A    between atoms: C6_6  and  N1_9 
REMARK       I    between atoms: N3_14  and  C12_15 
REMARK    4  A    between atoms: C12_15  and  C13_17 
REMARK    5  A    between atoms: C15_19  and  C16_23 
ROOT
ATOM      1  N3  <0> d           0.711  -0.489   1.189  0.00  0.00    -0.347 N 
ATOM      2  C12 <0> d           0.051  -0.633   2.355  0.00  0.00     0.272 C 
ATOM      3  O1  <0> d          -1.132  -0.361   2.423  0.00  0.00    -0.266 OA
ATOM      4  H13 <0> d           1.654  -0.707   1.135  0.00  0.00     0.163 HD
ENDROOT
BRANCH   1   5
ATOM      5  C2  <0> d           0.002  -0.004   0.002  0.00  0.00     0.114 C 
ATOM      6  C1  <0> d          -0.019   1.526   0.010  0.00  0.00     0.037 C 
BRANCH   5   7
ATOM      7  C3  <0> d           0.707  -0.490  -1.238  0.00  0.00    -0.036 A 
ATOM      8  C8  <0> d          -0.029  -0.920  -2.327  0.00  0.00     0.011 A 
ATOM      9  C7  <0> d           0.615  -1.362  -3.466  0.00  0.00     0.030 A 
ATOM     10  C6  <0> d           2.002  -1.383  -3.514  0.00  0.00     0.039 A 
ATOM     11  C5  <0> d           2.739  -0.955  -2.417  0.00  0.00     0.030 A 
ATOM     12  C4  <0> d           2.089  -0.510  -1.282  0.00  0.00     0.011 A 
BRANCH  10  13
ATOM     13  N1  <0> d           2.659  -1.835  -4.668  0.00  0.00    -0.315 N 
ATOM     14  C11 <0> d           4.002  -1.909  -4.856  0.00  0.00     0.214 A 
ATOM     15  N2  <0> d           4.229  -2.381  -6.052  0.00  0.00    -0.254 NA
ATOM     16  C10 <0> d           3.060  -2.613  -6.667  0.00  0.00     0.135 A 
ATOM     17  C9  <0> d           2.066  -2.279  -5.822  0.00  0.00     0.117 A 
ENDBRANCH  10  13
ENDBRANCH   5   7
ENDBRANCH   1   5
BRANCH   2  18
ATOM     18  C13 <0> d           0.766  -1.123   3.552  0.00  0.00     0.146 A 
ATOM     19  N5  <0> d           2.040  -1.454   3.620  0.00  0.00    -0.169 NA
ATOM     20  N4  <0> d           2.341  -1.837   4.809  0.00  0.00    -0.277 N 
ATOM     21  C15 <0> d           1.238  -1.783   5.609  0.00  0.00     0.062 A 
ATOM     22  H2  <0> d           3.222  -2.126   5.094  0.00  0.00     0.189 HD
ATOM     23  C14 <0> d           0.209  -1.328   4.833  0.00  0.00     0.071 A 
BRANCH  21  24
ATOM     24  C16 <0> d           1.169  -2.146   7.042  0.00  0.00    -0.008 A 
ATOM     25  C21 <0> d           2.310  -2.598   7.706  0.00  0.00     0.014 A 
ATOM     26  C20 <0> d           2.240  -2.931   9.043  0.00  0.00     0.001 A 
ATOM     27  C19 <0> d           1.040  -2.827   9.723  0.00  0.00     0.000 A 
ATOM     28  C18 <0> d          -0.096  -2.385   9.069  0.00  0.00     0.001 A 
ATOM     29  C17 <0> d          -0.038  -2.044   7.733  0.00  0.00     0.014 A 
ENDBRANCH  21  24
ENDBRANCH   2  18
TORSDOF 5
