REMARK  6 active torsions:
REMARK  status: ('A' for Active; 'I' for Inactive)
REMARK    1  A    between atoms: C7_7  and  S1_8 
REMARK    2  A    between atoms: S1_8  and  N1_11 
REMARK    3  A    between atoms: C8_12  and  C9_13 
REMARK    4  A    between atoms: C8_12  and  N2_18 
REMARK    5  A    between atoms: C9_13  and  C10_14 
REMARK    6  A    between atoms: C10_14  and  O3_15 
ROOT
ATOM      1  S1  <0> d           0.198   0.195  -2.717  0.00  0.00     0.287 S 
ATOM      2  O1  <0> d          -0.481  -0.587  -3.689  0.00  0.00    -0.198 OA
ATOM      3  O2  <0> d          -0.167   1.538  -2.429  0.00  0.00    -0.198 OA
ENDROOT
BRANCH   1   4
ATOM      4  C7  <0> d           0.099  -0.691  -1.198  0.00  0.00     0.109 A 
ATOM      5  C2  <0> d           0.032  -2.071  -1.206  0.00  0.00    -0.035 A 
ATOM      6  C1  <0> d           0.046  -2.818  -2.515  0.00  0.00     0.050 C 
ATOM      7  C3  <0> d          -0.041  -2.768  -0.014  0.00  0.00     0.032 A 
ATOM      8  C4  <0> d          -0.053  -2.083   1.188  0.00  0.00     0.036 A 
ATOM      9  C5  <0> d           0.009  -0.701   1.196  0.00  0.00     0.049 A 
ATOM     10 Cl3  <0> d          -0.144  -2.957   2.684  0.00  0.00    -0.084 Cl
ATOM     11  C6  <0> d           0.082  -0.004   0.004  0.00  0.00     0.059 A 
ATOM     12 Cl2  <0> d           0.158   1.730   0.014  0.00  0.00    -0.083 Cl
ENDBRANCH   1   4
BRANCH   1  13
ATOM     13  N1  <0> d           1.793   0.224  -3.164  0.00  0.00    -0.145 NA
ATOM     14  C8  <0> d           2.148   0.819  -4.255  0.00  0.00     0.131 C 
BRANCH  14  15
ATOM     15  C9  <0> d           3.599   0.846  -4.662  0.00  0.00     0.175 C 
ATOM     16 Cl1  <0> d           4.563  -0.153  -3.511  0.00  0.00    -0.115 Cl
BRANCH  15  17
ATOM     17  C10 <0> d           3.744   0.278  -6.075  0.00  0.00     0.195 C 
BRANCH  17  18
ATOM     18  O3  <0> d           2.889   0.996  -6.967  0.00  0.00    -0.394 OA
ATOM     19  C11 <0> d           2.949   0.542  -8.320  0.00  0.00     0.201 C 
ENDBRANCH  17  18
ENDBRANCH  15  17
ENDBRANCH  14  15
BRANCH  14  20
ATOM     20  N2  <0> d           1.205   1.426  -5.043  0.00  0.00    -0.385 N 
ATOM     21  H12 <0> d           1.507   1.932  -5.972  0.00  0.00     0.157 HD
ATOM     22  H13 <0> d           0.146   1.407  -4.747  0.00  0.00     0.157 HD
ENDBRANCH  14  20
ENDBRANCH   1  13
TORSDOF 6
