REMARK  7 active torsions:
REMARK  status: ('A' for Active; 'I' for Inactive)
REMARK    1  A    between atoms: C2_2  and  N1_3 
REMARK    2  A    between atoms: N1_3  and  C3_4 
REMARK    3  A    between atoms: N1_3  and  S1_22 
REMARK    4  A    between atoms: C3_4  and  C4_5 
REMARK    5  A    between atoms: C4_5  and  C5_6 
REMARK    6  A    between atoms: C5_6  and  N2_7 
REMARK    7  A    between atoms: N2_7  and  C6_8 
ROOT
ATOM      1  C6  <0> d           5.796  -3.714   0.005  0.00  0.00     0.704 A 
ATOM      2  N3  <0> d           6.804  -2.953  -0.372  0.00  0.00    -0.044 NA
ATOM      3  C7  <0> d           7.959  -3.582  -0.147  0.00  0.00     0.185 A 
ATOM      4  C8  <0> d           7.660  -4.821   0.409  0.00  0.00     0.166 A 
ATOM      5  N4  <0> d           6.276  -4.884   0.504  0.00  0.00    -0.177 N 
ATOM      6  C9  <0> d           5.486  -5.997   1.034  0.00  0.00     0.176 C 
ATOM      7  C10 <0> d           8.710  -5.694   0.746  0.00  0.00     0.280 A 
ATOM      8  O1  <0> d           8.471  -6.785   1.234  0.00  0.00    -0.265 OA
ATOM      9  N5  <0> d           9.984  -5.311   0.522  0.00  0.00    -0.273 N 
ATOM     10  H1  <0> d          10.711  -5.910   0.753  0.00  0.00     0.173 HD
ATOM     11  C11 <0> d          10.262  -4.111  -0.016  0.00  0.00     0.330 A 
ATOM     12  O2  <0> d          11.422  -3.799  -0.203  0.00  0.00    -0.246 OA
ATOM     13  N6  <0> d           9.287  -3.245  -0.352  0.00  0.00    -0.286 N 
ATOM     14  C12 <0> d           9.631  -1.947  -0.937  0.00  0.00     0.163 C 
ENDROOT
BRANCH   1  15
ATOM     15  N2  <0> d           4.466  -3.374  -0.086  0.00  0.00    -0.224 N 
ATOM     16  H13 <0> d           3.785  -3.993   0.220  0.00  0.00     0.177 HD
BRANCH  15  17
ATOM     17  C5  <0> d           4.078  -2.077  -0.645  0.00  0.00     0.140 C 
BRANCH  17  18
ATOM     18  C4  <0> d           2.553  -1.951  -0.632  0.00  0.00     0.041 C 
BRANCH  18  19
ATOM     19  C3  <0> d           2.148  -0.597  -1.216  0.00  0.00     0.136 C 
BRANCH  19  20
ATOM     20  N1  <0> d           0.688  -0.476  -1.203  0.00  0.00    -0.311 N 
BRANCH  20  21
ATOM     21  C2  <0> d           0.002  -0.004   0.002  0.00  0.00     0.130 C 
ATOM     22  C1  <0> d          -0.019   1.526   0.010  0.00  0.00     0.027 C 
ENDBRANCH  20  21
BRANCH  20  23
ATOM     23  S1  <0> d          -0.188  -0.875  -2.551  0.00  0.00     0.224 S 
ATOM     24  O3  <0> d           0.620  -1.818  -3.242  0.00  0.00    -0.206 OA
ATOM     25  O4  <0> d          -1.468  -1.242  -2.057  0.00  0.00    -0.206 OA
ATOM     26  C13 <0> d          -0.303   0.665  -3.504  0.00  0.00     0.186 C 
ENDBRANCH  20  23
ENDBRANCH  19  20
ENDBRANCH  18  19
ENDBRANCH  17  18
ENDBRANCH  15  17
ENDBRANCH   1  15
TORSDOF 7
