REMARK  9 active torsions:
REMARK  status: ('A' for Active; 'I' for Inactive)
REMARK    1  A    between atoms: C4_4  and  N2_15 
REMARK    2  A    between atoms: N2_15  and  C13_16 
REMARK    3  A    between atoms: C13_16  and  C14_17 
REMARK    4  A    between atoms: C14_17  and  C15_18 
REMARK    5  A    between atoms: C15_18  and  C16_19 
REMARK    6  A    between atoms: C16_19  and  C17_20 
REMARK    7  A    between atoms: C17_20  and  C18_21 
REMARK    8  A    between atoms: C18_21  and  N3_22 
REMARK    9  A    between atoms: N3_22  and  C19_23 
ROOT
ATOM      1  C15 <0> d           5.110  -2.966   2.740  0.00  0.00     0.002 C 
ENDROOT
BRANCH   1   2
ATOM      2  C14 <0> d           3.792  -2.288   2.360  0.00  0.00     0.020 C 
BRANCH   2   3
ATOM      3  C13 <0> d           4.085  -1.016   1.562  0.00  0.00     0.119 C 
BRANCH   3   4
ATOM      4  N2  <0> d           2.822  -0.367   1.198  0.00  0.00    -0.389 N 
ATOM      5  H13 <0> d           1.979  -0.761   1.469  0.00  0.00     0.159 HD
BRANCH   4   6
ATOM      6  C4  <0> d           2.834   0.811   0.467  0.00  0.00     0.042 C 
ATOM      7  C3  <0> d           4.029   1.393   0.074  0.00  0.00     0.054 C 
ATOM      8  C2  <0> d           3.992   2.557  -0.674  0.00  0.00     0.010 C 
ATOM      9  C1  <0> d           5.283   3.158  -1.167  0.00  0.00     0.068 C 
ATOM     10  N1  <0> d           2.862   3.188  -0.943  0.00  0.00    -0.354 N 
ATOM     11  C10 <0> d           1.707   2.797  -0.406  0.00  0.00     0.054 C 
ATOM     12  C11 <0> d           2.975   4.307  -1.882  0.00  0.00     0.156 C 
ATOM     13  C5  <0> d           1.635   1.464   0.099  0.00  0.00     0.018 C 
ATOM     14  C9  <0> d           0.552   3.577  -0.264  0.00  0.00    -0.013 C 
ATOM     15  C6  <0> d           0.392   0.842   0.252  0.00  0.00     0.018 C 
ATOM     16  C7  <0> d          -0.742   1.596   0.181  0.00  0.00     0.025 C 
ATOM     17  C8  <0> d          -0.653   2.966  -0.038  0.00  0.00     0.042 C 
ATOM     18 Cl1  <0> d          -2.090   3.939   0.029  0.00  0.00    -0.084 Cl
ATOM     19  C12 <0> d           0.556   5.085  -0.255  0.00  0.00     0.052 C 
ENDBRANCH   4   6
ENDBRANCH   3   4
ENDBRANCH   2   3
ENDBRANCH   1   2
BRANCH   1  20
ATOM     20  C16 <0> d           4.818  -4.238   3.538  0.00  0.00     0.002 C 
BRANCH  20  21
ATOM     21  C17 <0> d           6.136  -4.916   3.918  0.00  0.00     0.020 C 
BRANCH  21  22
ATOM     22  C18 <0> d           5.843  -6.188   4.716  0.00  0.00     0.119 C 
BRANCH  22  23
ATOM     23  N3  <0> d           7.106  -6.837   5.080  0.00  0.00    -0.389 N 
ATOM     24  H26 <0> d           7.949  -6.442   4.809  0.00  0.00     0.159 HD
BRANCH  23  25
ATOM     25  C19 <0> d           7.094  -8.014   5.811  0.00  0.00     0.042 C 
ATOM     26  C23 <0> d           8.289  -8.669   6.181  0.00  0.00     0.018 C 
ATOM     27  C22 <0> d           8.232  -9.752   7.109  0.00  0.00     0.054 C 
ATOM     28  C24 <0> d           9.524  -8.284   5.641  0.00  0.00     0.018 C 
ATOM     29  N4  <0> d           7.061 -10.375   7.239  0.00  0.00    -0.354 N 
ATOM     30  C27 <0> d           9.417 -10.070   7.782  0.00  0.00    -0.013 C 
ATOM     31  C21 <0> d           5.928  -9.792   6.894  0.00  0.00     0.010 C 
ATOM     32  C29 <0> d           6.944 -11.776   7.654  0.00  0.00     0.156 C 
ATOM     33  C20 <0> d           5.896  -8.592   6.205  0.00  0.00     0.054 C 
ATOM     34  C30 <0> d           4.631 -10.462   7.268  0.00  0.00     0.068 C 
ATOM     35  C26 <0> d          10.614  -9.609   7.298  0.00  0.00     0.042 C 
ATOM     36  C28 <0> d           9.469 -10.884   9.050  0.00  0.00     0.052 C 
ATOM     37  C25 <0> d          10.672  -8.754   6.204  0.00  0.00     0.025 C 
ATOM     38 Cl2  <0> d          12.084 -10.139   8.055  0.00  0.00    -0.084 Cl
ENDBRANCH  23  25
ENDBRANCH  22  23
ENDBRANCH  21  22
ENDBRANCH  20  21
ENDBRANCH   1  20
TORSDOF 9
