REMARK  8 active torsions:
REMARK  status: ('A' for Active; 'I' for Inactive)
REMARK    1  A    between atoms: C4_4  and  C7_7 
REMARK    2  A    between atoms: C7_7  and  C8_8 
REMARK    3  A    between atoms: C7_7  and  N1_31 
REMARK    4  A    between atoms: C8_8  and  C9_9 
REMARK    5  A    between atoms: C8_8  and  O2_23 
REMARK    6  A    between atoms: C9_9  and  C10_10 
REMARK    7  A    between atoms: C9_9  and  C16_16 
REMARK    8  A    between atoms: C9_9  and  O1_22 
ROOT
ATOM      1  C8  <0> d          -3.468   1.508  -1.061  0.00  0.00     0.197 C 
ENDROOT
BRANCH   1   2
ATOM      2  C7  <0> d          -4.878   0.968  -0.813  0.00  0.00     0.253 C 
BRANCH   2   3
ATOM      3  C4  <0> d          -5.870   1.763  -1.622  0.00  0.00    -0.025 A 
ATOM      4  C3  <0> d          -6.886   2.452  -0.986  0.00  0.00     0.009 A 
ATOM      5  C2  <0> d          -7.796   3.181  -1.728  0.00  0.00     0.001 A 
ATOM      6  C1  <0> d          -7.690   3.223  -3.106  0.00  0.00     0.000 A 
ATOM      7  C6  <0> d          -6.673   2.535  -3.742  0.00  0.00     0.001 A 
ATOM      8  C5  <0> d          -5.760   1.809  -2.999  0.00  0.00     0.009 A 
ENDBRANCH   2   3
BRANCH   2   9
ATOM      9  N1  <0> d          -4.915  -0.448  -1.233  0.00  0.00    -0.060 N 
ATOM     10  C22 <0> d          -6.173  -0.727  -1.958  0.00  0.00     0.236 C 
ATOM     11  C23 <0> d          -6.135  -2.164  -2.483  0.00  0.00     0.028 C 
ATOM     12  C24 <0> d          -5.994  -3.130  -1.304  0.00  0.00     0.003 C 
ATOM     13  C25 <0> d          -4.727  -2.783  -0.518  0.00  0.00     0.028 C 
ATOM     14  C26 <0> d          -4.805  -1.328  -0.050  0.00  0.00     0.236 C 
ATOM     15  H30 <0> d          -4.122  -0.631  -1.859  0.00  0.00     0.280 HD
ENDBRANCH   2   9
ENDBRANCH   1   2
BRANCH   1  16
ATOM     16  C9  <0> d          -2.464   0.722  -0.215  0.00  0.00     0.140 C 
BRANCH  16  17
ATOM     17  C10 <0> d          -1.098   1.344  -0.350  0.00  0.00    -0.017 A 
ATOM     18  C15 <0> d          -0.976   2.701  -0.579  0.00  0.00     0.011 A 
ATOM     19  C14 <0> d           0.277   3.271  -0.708  0.00  0.00     0.001 A 
ATOM     20  C13 <0> d           1.408   2.483  -0.602  0.00  0.00     0.000 A 
ATOM     21  C12 <0> d           1.286   1.127  -0.367  0.00  0.00     0.001 A 
ATOM     22  C11 <0> d           0.033   0.557  -0.239  0.00  0.00     0.011 A 
ENDBRANCH  16  17
BRANCH  16  23
ATOM     23  C16 <0> d          -2.891   0.754   1.230  0.00  0.00    -0.017 A 
ATOM     24  C21 <0> d          -2.582  -0.303   2.065  0.00  0.00     0.011 A 
ATOM     25  C20 <0> d          -2.973  -0.274   3.390  0.00  0.00     0.001 A 
ATOM     26  C19 <0> d          -3.673   0.812   3.881  0.00  0.00     0.000 A 
ATOM     27  C18 <0> d          -3.982   1.869   3.045  0.00  0.00     0.001 A 
ATOM     28  C17 <0> d          -3.587   1.843   1.721  0.00  0.00     0.011 A 
ENDBRANCH  16  23
BRANCH  16  29
ATOM     29  O1  <0> d          -2.418  -0.632  -0.669  0.00  0.00    -0.377 OA
ATOM     30  H18 <0> d          -2.150  -0.729  -1.593  0.00  0.00     0.211 HD
ENDBRANCH  16  29
ENDBRANCH   1  16
BRANCH   1  31
ATOM     31  O2  <0> d          -3.140   1.367  -2.445  0.00  0.00    -0.389 OA
ATOM     32  H19 <0> d          -3.224   0.463  -2.778  0.00  0.00     0.210 HD
ENDBRANCH   1  31
TORSDOF 8
