REMARK  5 active torsions:
REMARK  status: ('A' for Active; 'I' for Inactive)
REMARK    1  A    between atoms: C2_2  and  C3_3 
REMARK    2  A    between atoms: C2_2  and  O1_21 
REMARK    3  A    between atoms: C6_7  and  N4_20 
REMARK    4  A    between atoms: N2_11  and  C10_12 
REMARK    5  A    between atoms: C10_12  and  C11_13 
ROOT
ATOM      1  C3  <0> d           0.731  -0.503   1.223  0.00  0.00     0.136 A 
ATOM      2  N1  <0> d           2.022  -0.470   1.386  0.00  0.00    -0.230 NA
ATOM      3  C4  <0> d           2.343  -0.997   2.595  0.00  0.00     0.088 A 
ATOM      4  C5  <0> d           3.553  -1.202   3.264  0.00  0.00     0.063 A 
ATOM      5  C6  <0> d           3.552  -1.778   4.520  0.00  0.00     0.028 A 
ATOM      6  C7  <0> d           2.352  -2.156   5.122  0.00  0.00     0.031 A 
ATOM      7  C8  <0> d           1.154  -1.958   4.471  0.00  0.00     0.034 A 
ATOM      8  C9  <0> d           1.139  -1.380   3.209  0.00  0.00     0.065 A 
ATOM      9  N2  <0> d           0.135  -1.049   2.317  0.00  0.00    -0.331 N 
ENDROOT
BRANCH   9  10
ATOM     10  C10 <0> d          -1.302  -1.252   2.512  0.00  0.00     0.137 C 
BRANCH  10  11
ATOM     11  C11 <0> d          -1.699  -2.632   1.984  0.00  0.00     0.030 C 
ATOM     12  C15 <0> d          -3.218  -2.797   2.075  0.00  0.00     0.240 C 
ATOM     13  N3  <0> d          -3.601  -4.122   1.572  0.00  0.00    -0.074 N 
ATOM     14  C14 <0> d          -3.012  -5.166   2.418  0.00  0.00     0.234 C 
ATOM     15  C16 <0> d          -5.064  -4.246   1.589  0.00  0.00     0.269 C 
ATOM     16  H25 <0> d          -3.268  -4.229   0.625  0.00  0.00     0.279 HD
ATOM     17  C13 <0> d          -1.486  -5.092   2.339  0.00  0.00     0.028 C 
ATOM     18  C12 <0> d          -1.021  -3.717   2.826  0.00  0.00     0.009 C 
ENDBRANCH  10  11
ENDBRANCH   9  10
BRANCH   1  19
ATOM     19  C2  <0> d           0.002  -0.004   0.002  0.00  0.00     0.183 C 
ATOM     20  C1  <0> d          -0.019   1.526   0.010  0.00  0.00     0.047 C 
BRANCH  19  21
ATOM     21  O1  <0> d           0.671  -0.465  -1.174  0.00  0.00    -0.388 OA
ATOM     22  H24 <0> d           0.256  -0.181  -1.999  0.00  0.00     0.210 HD
ENDBRANCH  19  21
ENDBRANCH   1  19
BRANCH   5  23
ATOM     23  N4  <0> d           4.762  -1.985   5.192  0.00  0.00    -0.399 N 
ATOM     24  H22 <0> d           5.598  -1.724   4.776  0.00  0.00     0.156 HD
ATOM     25  H23 <0> d           4.764  -2.389   6.074  0.00  0.00     0.156 HD
ENDBRANCH   5  23
TORSDOF 5
