REMARK  4 active torsions:
REMARK  status: ('A' for Active; 'I' for Inactive)
REMARK       I    between atoms: C2_2  and  N1_4 
REMARK    1  A    between atoms: N1_4  and  C3_5 
REMARK    2  A    between atoms: N1_4  and  C11_19 
REMARK    3  A    between atoms: C4_8  and  S2_10 
REMARK    4  A    between atoms: S2_10  and  C5_11 
ROOT
ATOM      1  C3  <0> d           2.844   5.775  -4.713  0.00  0.00     0.199 A 
ATOM      2  N2  <0> d           2.143   5.167  -3.771  0.00  0.00    -0.122 NA
ATOM      3  N3  <0> d           2.178   3.916  -3.614  0.00  0.00    -0.133 NA
ATOM      4  C4  <0> d           2.920   3.134  -4.384  0.00  0.00     0.161 A 
ATOM      5  S1  <0> d           3.657   4.363  -5.456  0.00  0.00    -0.021 SA
ENDROOT
BRANCH   4   6
ATOM      6  S2  <0> d           3.127   1.384  -4.356  0.00  0.00    -0.087 SA
BRANCH   6   7
ATOM      7  C5  <0> d           2.066   0.838  -2.990  0.00  0.00     0.146 C 
ATOM      8  C10 <0> d           2.610   1.367  -1.679  0.00  0.00     0.231 C 
ATOM      9  N4  <0> d           1.882   1.279  -0.566  0.00  0.00    -0.360 N 
ATOM     10  O2  <0> d           3.713   1.872  -1.643  0.00  0.00    -0.272 OA
ATOM     11  C9  <0> d           0.541   0.674  -0.598  0.00  0.00     0.122 C 
ATOM     12  H13 <0> d           2.290   1.662   0.382  0.00  0.00     0.162 HD
ATOM     13  C8  <0> d           0.689  -0.837  -0.786  0.00  0.00     0.020 C 
ATOM     14  C7  <0> d           0.785  -1.191  -2.259  0.00  0.00     0.003 C 
ATOM     15  C6  <0> d           2.053  -0.691  -2.928  0.00  0.00     0.025 C 
ENDBRANCH   6   7
ENDBRANCH   4   6
BRANCH   1  16
ATOM     16  N1  <0> d           2.930   7.128  -5.033  0.00  0.00    -0.290 N 
ATOM     17  C2  <0> d           3.788   7.542  -5.986  0.00  0.00     0.222 C 
ATOM     18  C1  <0> d           3.956   9.014  -6.261  0.00  0.00     0.117 C 
ATOM     19  O1  <0> d           4.425   6.730  -6.623  0.00  0.00    -0.273 OA
BRANCH  16  20
ATOM     20  C11 <0> d           2.088   8.101  -4.332  0.00  0.00     0.095 A 
ATOM     21  C13 <0> d           0.579   7.852  -4.324  0.00  0.00     0.028 A 
ATOM     22  C12 <0> d           1.397   7.641  -3.047  0.00  0.00     0.028 A 
ENDBRANCH  16  20
ENDBRANCH   1  16
TORSDOF 4
