REMARK  3 active torsions:
REMARK  status: ('A' for Active; 'I' for Inactive)
REMARK    1  A    between atoms: C5_7  and  C15_20 
REMARK    2  A    between atoms: N3_11  and  C9_14 
REMARK       I    between atoms: C15_20  and  N4_22 
REMARK    3  A    between atoms: N4_22  and  C16_23 
ROOT
ATOM      1  C1  <0> d           0.172   0.962  -0.143  0.00  0.00     0.164 C 
ATOM      2  N1  <0> d           0.156  -0.502  -0.205  0.00  0.00    -0.269 N 
ATOM      3  C2  <0> d           0.124  -1.117  -1.408  0.00  0.00     0.265 A 
ATOM      4  O1  <0> d           0.108  -0.472  -2.438  0.00  0.00    -0.267 OA
ATOM      5  C3  <0> d           0.109  -2.590  -1.436  0.00  0.00     0.080 A 
ATOM      6  C4  <0> d           0.077  -3.300  -2.631  0.00  0.00     0.039 A 
ATOM      7  C5  <0> d           0.065  -4.698  -2.559  0.00  0.00     0.051 A 
ATOM      8  C6  <0> d           0.086  -5.316  -1.304  0.00  0.00     0.136 A 
ATOM      9  N2  <0> d           0.117  -4.609  -0.194  0.00  0.00    -0.241 NA
ATOM     10  C7  <0> d           0.129  -3.285  -0.211  0.00  0.00     0.154 A 
ATOM     11  N3  <0> d           0.162  -2.554   0.962  0.00  0.00    -0.247 N 
ATOM     12  C8  <0> d           0.179  -1.211   0.935  0.00  0.00     0.337 A 
ATOM     13  O2  <0> d           0.213  -0.610   1.991  0.00  0.00    -0.246 OA
ENDROOT
BRANCH   7  14
ATOM     14  C15 <0> d           0.031  -5.510  -3.792  0.00  0.00     0.257 C 
ATOM     15  O3  <0> d           0.012  -4.965  -4.878  0.00  0.00    -0.267 OA
ATOM     16  N4  <0> d           0.020  -6.855  -3.712  0.00  0.00    -0.323 N 
ATOM     17  H11 <0> d          -0.049  -7.290  -2.848  0.00  0.00     0.169 HD
BRANCH  16  18
ATOM     18  C16 <0> d           0.107  -7.625  -4.876  0.00  0.00     0.040 A 
ATOM     19  C21 <0> d           0.876  -7.184  -5.946  0.00  0.00     0.072 A 
ATOM     20  C20 <0> d           0.966  -7.950  -7.094  0.00  0.00     0.121 A 
ATOM     21  C19 <0> d           0.280  -9.150  -7.182  0.00  0.00     0.084 A 
ATOM     22  F1  <0> d           1.718  -7.525  -8.132  0.00  0.00    -0.206 F 
ATOM     23  C18 <0> d          -0.492  -9.589  -6.120  0.00  0.00     0.121 A 
ATOM     24  C17 <0> d          -0.580  -8.829  -4.967  0.00  0.00     0.072 A 
ATOM     25  F2  <0> d          -1.159 -10.760  -6.208  0.00  0.00    -0.206 F 
ENDBRANCH  16  18
ENDBRANCH   7  14
BRANCH  11  26
ATOM     26  C9  <0> d           0.182  -3.221   2.193  0.00  0.00     0.045 A 
ATOM     27  C14 <0> d           1.176  -4.152   2.464  0.00  0.00     0.030 A 
ATOM     28  C13 <0> d           1.196  -4.805   3.681  0.00  0.00     0.002 A 
ATOM     29  C12 <0> d           0.220  -4.540   4.625  0.00  0.00     0.000 A 
ATOM     30  C11 <0> d          -0.774  -3.618   4.356  0.00  0.00     0.002 A 
ATOM     31  C10 <0> d          -0.796  -2.958   3.143  0.00  0.00     0.030 A 
ENDBRANCH  11  26
TORSDOF 3
