REMARK  6 active torsions:
REMARK  status: ('A' for Active; 'I' for Inactive)
REMARK    1  A    between atoms: C3_3  and  N6_24 
REMARK    2  A    between atoms: N1_5  and  C5_7 
REMARK    3  A    between atoms: C5_7  and  C6_8 
REMARK       I    between atoms: C6_8  and  N3_10 
REMARK    4  A    between atoms: N4_13  and  C11_16 
REMARK    5  A    between atoms: C11_16  and  C12_17 
REMARK       I    between atoms: C12_17  and  N5_19 
REMARK    6  A    between atoms: N5_19  and  C13_20 
ROOT
ATOM      1  C6  <0> d          -1.014   0.223  -1.217  0.00  0.00     0.239 C 
ATOM      2  O1  <0> d          -1.568   0.985  -1.982  0.00  0.00    -0.271 OA
ATOM      3  N3  <0> d          -0.219   0.706  -0.243  0.00  0.00    -0.347 N 
ATOM      4  C7  <0> d          -0.008   2.154  -0.089  0.00  0.00     0.153 C 
ATOM      5  C8  <0> d           1.499   2.422  -0.026  0.00  0.00     0.255 C 
ATOM      6  N4  <0> d           2.098   1.592   1.028  0.00  0.00    -0.060 N 
ATOM      7  C9  <0> d           1.950   0.162   0.727  0.00  0.00     0.255 C 
ATOM      8  C10 <0> d           0.462  -0.200   0.695  0.00  0.00     0.153 C 
ATOM      9  H27 <0> d           1.555   1.795   1.963  0.00  0.00     0.280 HD
ENDROOT
BRANCH   1  10
ATOM     10  C5  <0> d          -1.216  -1.264  -1.357  0.00  0.00     0.254 C 
BRANCH  10  11
ATOM     11  N1  <0> d          -2.117  -1.531  -2.482  0.00  0.00    -0.263 N 
ATOM     12  C4  <0> d          -1.748  -1.728  -3.764  0.00  0.00     0.062 A 
ATOM     13  C3  <0> d          -2.871  -1.942  -4.488  0.00  0.00     0.152 A 
ATOM     14  C16 <0> d          -0.338  -1.713  -4.296  0.00  0.00     0.072 C 
ATOM     15  C2  <0> d          -3.963  -1.873  -3.618  0.00  0.00     0.086 A 
ATOM     16  C1  <0> d          -5.410  -2.052  -4.000  0.00  0.00     0.075 C 
ATOM     17  N2  <0> d          -3.512  -1.632  -2.414  0.00  0.00    -0.174 NA
BRANCH  13  18
ATOM     18  N6  <0> d          -2.932  -2.204  -5.944  0.00  0.00    -0.111 N 
ATOM     19  O3  <0> d          -2.877  -3.348  -6.360  0.00  0.00    -0.532 OA
ATOM     20  O4  <0> d          -3.036  -1.276  -6.726  0.00  0.00    -0.532 OA
ENDBRANCH  13  18
ENDBRANCH  10  11
ENDBRANCH   1  10
BRANCH   6  21
ATOM     21  C11 <0> d           3.509   1.943   1.238  0.00  0.00     0.337 C 
BRANCH  21  22
ATOM     22  C12 <0> d           4.273   1.739  -0.045  0.00  0.00     0.243 C 
ATOM     23  O2  <0> d           3.724   1.243  -1.006  0.00  0.00    -0.272 OA
ATOM     24  N5  <0> d           5.567   2.108  -0.125  0.00  0.00    -0.356 N 
ATOM     25  H16 <0> d           6.065   2.558   0.747  0.00  0.00     0.162 HD
BRANCH  24  26
ATOM     26  C13 <0> d           6.310   1.910  -1.371  0.00  0.00     0.076 C 
ATOM     27  C14 <0> d           7.465   2.910  -1.441  0.00  0.00     0.032 C 
ATOM     28  C15 <0> d           6.866   0.485  -1.413  0.00  0.00     0.032 C 
ENDBRANCH  24  26
ENDBRANCH  21  22
ENDBRANCH   6  21
TORSDOF 6
