REMARK  4 active torsions:
REMARK  status: ('A' for Active; 'I' for Inactive)
REMARK    1  A    between atoms: O1_2  and  C2_3 
REMARK    2  A    between atoms: C5_6  and  C9_11 
REMARK    3  A    between atoms: C7_8  and  O2_9 
REMARK    4  A    between atoms: C13_15  and  C16_19 
ROOT
ATOM      1  C9  <0> d           2.507  -2.501  -4.386  0.00  0.00     0.200 C 
ATOM      2  C10 <0> d           3.960  -2.081  -4.440  0.00  0.00     0.041 C 
ATOM      3  C11 <0> d           4.423  -1.213  -5.365  0.00  0.00     0.040 C 
ATOM      4  C12 <0> d           5.879  -0.812  -5.394  0.00  0.00     0.068 C 
ATOM      5  C13 <0> d           6.451  -0.848  -3.975  0.00  0.00     0.038 C 
ATOM      6  C14 <0> d           6.277  -2.265  -3.420  0.00  0.00     0.094 C 
ATOM      7  C15 <0> d           4.821  -2.635  -3.475  0.00  0.00     0.160 C 
ATOM      8  O3  <0> d           4.379  -3.429  -2.669  0.00  0.00    -0.293 OA
ATOM      9  N1  <0> d           3.599  -0.663  -6.318  0.00  0.00    -0.191 N 
ATOM     10  C20 <0> d           2.355  -1.239  -6.513  0.00  0.00     0.725 A 
ATOM     11  N2  <0> d           1.831  -2.107  -5.616  0.00  0.00    -0.084 N 
ATOM     12  N3  <0> d           0.590  -2.493  -6.121  0.00  0.00    -0.149 NA
ATOM     13  C21 <0> d           0.429  -1.856  -7.255  0.00  0.00     0.275 A 
ATOM     14  N4  <0> d           1.498  -1.099  -7.487  0.00  0.00    -0.054 NA
ATOM     15  H19 <0> d           3.881   0.105  -6.839  0.00  0.00     0.184 HD
ENDROOT
BRANCH   1  16
ATOM     16  C5  <0> d           1.837  -1.836  -3.212  0.00  0.00    -0.025 A 
ATOM     17  C4  <0> d           1.787  -0.456  -3.137  0.00  0.00     0.012 A 
ATOM     18  C3  <0> d           1.173   0.159  -2.062  0.00  0.00     0.040 A 
ATOM     19  C2  <0> d           0.606  -0.608  -1.056  0.00  0.00     0.101 A 
ATOM     20  C7  <0> d           0.662  -1.996  -1.129  0.00  0.00     0.102 A 
ATOM     21  C6  <0> d           1.273  -2.606  -2.212  0.00  0.00     0.049 A 
BRANCH  19  22
ATOM     22  O1  <0> d           0.002  -0.004   0.002  0.00  0.00    -0.353 OA
ATOM     23  C1  <0> d          -0.017   1.425   0.010  0.00  0.00     0.210 C 
ENDBRANCH  19  22
BRANCH  20  24
ATOM     24  O2  <0> d           0.112  -2.753  -0.142  0.00  0.00    -0.353 OA
ATOM     25  C8  <0> d           0.206  -4.171  -0.283  0.00  0.00     0.210 C 
ENDBRANCH  20  24
ENDBRANCH   1  16
BRANCH   5  26
ATOM     26  C16 <0> d           7.915  -0.491  -4.010  0.00  0.00    -0.013 A 
ATOM     27  S1  <0> d           9.252  -1.309  -4.865  0.00  0.00    -0.106 SA
ATOM     28  C19 <0> d          10.577  -0.228  -4.352  0.00  0.00     0.050 A 
ATOM     29  C18 <0> d           9.924   0.665  -3.570  0.00  0.00     0.008 A 
ATOM     30  C17 <0> d           8.559   0.531  -3.395  0.00  0.00     0.015 A 
ENDBRANCH   5  26
TORSDOF 4
