REMARK  3 active torsions:
REMARK  status: ('A' for Active; 'I' for Inactive)
REMARK    1  A    between atoms: C9_13  and  C10_14 
REMARK       I    between atoms: C10_14  and  N3_16 
REMARK    2  A    between atoms: N3_16  and  C11_17 
REMARK    3  A    between atoms: C11_17  and  C12_18 
ROOT
ATOM      1  C1  <0> d          -1.331   2.130   0.020  0.00  0.00     0.051 C 
ATOM      2  C2  <0> d          -0.017   1.393   0.010  0.00  0.00    -0.021 A 
ATOM      3  C3  <0> d           0.002  -0.004   0.002  0.00  0.00     0.075 A 
ATOM      4  C4  <0> d           1.283  -0.602  -0.013  0.00  0.00     0.116 A 
ATOM      5  N1  <0> d           1.440  -1.920  -0.023  0.00  0.00    -0.227 NA
ATOM      6  C5  <0> d           0.417  -2.731  -0.018  0.00  0.00     0.105 A 
ATOM      7  N2  <0> d          -0.859  -2.275  -0.004  0.00  0.00    -0.306 N 
ATOM      8  C6  <0> d          -1.133  -0.955   0.007  0.00  0.00     0.262 A 
ATOM      9  O1  <0> d          -2.283  -0.556   0.021  0.00  0.00    -0.267 OA
ATOM     10  C7  <0> d          -1.965  -3.236   0.001  0.00  0.00     0.161 C 
ATOM     11  C8  <0> d           0.663  -4.218  -0.029  0.00  0.00     0.091 C 
ATOM     12  S1  <0> d           2.383   0.791  -0.016  0.00  0.00    -0.063 SA
ATOM     13  C9  <0> d           1.157   2.087   0.002  0.00  0.00     0.081 A 
ENDROOT
BRANCH  13  14
ATOM     14  C10 <0> d           1.361   3.540   0.008  0.00  0.00     0.259 C 
ATOM     15  O2  <0> d           0.402   4.289   0.021  0.00  0.00    -0.267 OA
ATOM     16  N3  <0> d           2.610   4.045  -0.001  0.00  0.00    -0.354 N 
ATOM     17  H11 <0> d           3.477   3.368  -0.013  0.00  0.00     0.162 HD
BRANCH  16  18
ATOM     18  C11 <0> d           2.814   5.496   0.005  0.00  0.00     0.155 C 
BRANCH  18  19
ATOM     19  C12 <0> d           4.313   5.800  -0.008  0.00  0.00     0.139 C 
ATOM     20  O3  <0> d           4.887   5.445  -1.285  0.00  0.00    -0.384 OA
ATOM     21  C15 <0> d           6.116   6.200  -1.372  0.00  0.00     0.168 C 
ATOM     22  C14 <0> d           5.767   7.589  -0.794  0.00  0.00     0.029 C 
ATOM     23  C13 <0> d           4.554   7.320   0.124  0.00  0.00     0.035 C 
ENDBRANCH  18  19
ENDBRANCH  16  18
ENDBRANCH  13  14
TORSDOF 3
