REMARK  5 active torsions:
REMARK  status: ('A' for Active; 'I' for Inactive)
REMARK    1  A    between atoms: C2_2  and  C3_3 
REMARK    2  A    between atoms: N2_10  and  O1_11 
REMARK    3  A    between atoms: O1_11  and  C8_12 
REMARK    4  A    between atoms: C8_12  and  C9_13 
REMARK       I    between atoms: C9_13  and  N3_15 
REMARK    5  A    between atoms: N3_15  and  C10_16 
ROOT
ATOM      1  C3  <0> d           0.629   8.667   2.090  0.00  0.00    -0.013 C 
ATOM      2  C4  <0> d           1.603   8.632   3.013  0.00  0.00     0.099 C 
ATOM      3  N1  <0> d           1.690   7.621   3.933  0.00  0.00    -0.351 N 
ATOM      4  H1  <0> d           2.343   7.731   4.811  0.00  0.00     0.166 HD
ATOM      5  C5  <0> d           0.989   6.464   3.803  0.00  0.00     0.129 A 
ATOM      6  C6  <0> d          -0.058   6.387   2.887  0.00  0.00     0.105 A 
ATOM      7  C7  <0> d          -0.366   7.577   2.072  0.00  0.00     0.081 C 
ATOM      8  N2  <0> d          -1.471   7.662   1.366  0.00  0.00    -0.265 N 
ATOM      9  C19 <0> d          -0.788   5.182   2.764  0.00  0.00     0.267 A 
ATOM     10  O3  <0> d          -1.709   5.094   1.973  0.00  0.00    -0.267 OA
ATOM     11  N4  <0> d          -0.442   4.131   3.538  0.00  0.00    -0.270 N 
ATOM     12  C20 <0> d           0.571   4.228   4.417  0.00  0.00     0.332 A 
ATOM     13  O4  <0> d           0.854   3.262   5.099  0.00  0.00    -0.246 OA
ATOM     14  N5  <0> d           1.285   5.359   4.559  0.00  0.00    -0.289 N 
ATOM     15  C21 <0> d           2.382   5.412   5.528  0.00  0.00     0.163 C 
ATOM     16  C22 <0> d          -1.181   2.872   3.422  0.00  0.00     0.164 C 
ATOM     17  H28 <0> d          -1.520   8.339   0.500  0.00  0.00     0.194 HD
ENDROOT
BRANCH   1  18
ATOM     18  C2  <0> d           0.553   9.796   1.093  0.00  0.00     0.038 C 
ATOM     19  C1  <0> d           1.363   9.431  -0.153  0.00  0.00     0.010 C 
ENDBRANCH   1  18
BRANCH   8  20
ATOM     20  O1  <0> d          -2.599   6.882   1.719  0.00  0.00    -0.271 OA
BRANCH  20  21
ATOM     21  C8  <0> d          -3.729   7.075   0.866  0.00  0.00     0.304 C 
BRANCH  21  22
ATOM     22  C9  <0> d          -4.865   6.201   1.331  0.00  0.00     0.248 C 
ATOM     23  O2  <0> d          -4.721   5.484   2.299  0.00  0.00    -0.271 OA
ATOM     24  N3  <0> d          -6.041   6.217   0.673  0.00  0.00    -0.324 N 
ATOM     25  H10 <0> d          -6.154   6.825  -0.236  0.00  0.00     0.169 HD
BRANCH  24  26
ATOM     26  C10 <0> d          -7.118   5.459   1.146  0.00  0.00     0.046 A 
ATOM     27  C15 <0> d          -8.263   6.092   1.611  0.00  0.00    -0.034 A 
ATOM     28  C14 <0> d          -9.324   5.341   2.078  0.00  0.00     0.015 A 
ATOM     29  C16 <0> d          -8.348   7.596   1.607  0.00  0.00     0.050 C 
ATOM     30  C13 <0> d          -9.247   3.960   2.083  0.00  0.00    -0.061 A 
ATOM     31  C12 <0> d          -8.108   3.327   1.621  0.00  0.00     0.015 A 
ATOM     32  C17 <0> d         -10.406   3.144   2.593  0.00  0.00     0.048 C 
ATOM     33  C11 <0> d          -7.046   4.072   1.147  0.00  0.00    -0.034 A 
ATOM     34  C18 <0> d          -5.807   3.381   0.637  0.00  0.00     0.050 C 
ENDBRANCH  24  26
ENDBRANCH  21  22
ENDBRANCH  20  21
ENDBRANCH   8  20
TORSDOF 5
