REMARK  4 active torsions:
REMARK  status: ('A' for Active; 'I' for Inactive)
REMARK    1  A    between atoms: C4_4  and  N1_7 
REMARK    2  A    between atoms: N2_9  and  C20_26 
REMARK    3  A    between atoms: C20_26  and  C21_27 
REMARK    4  A    between atoms: C21_27  and  O2_28 
ROOT
ATOM      1  N1  <0> d           3.621  -0.650  -0.036  0.00  0.00    -0.156 N 
ATOM      2  C7  <0> d           3.640  -2.105   0.060  0.00  0.00     0.384 C 
ATOM      3  N2  <0> d           4.793  -2.563   0.824  0.00  0.00    -0.036 N 
ATOM      4  C8  <0> d           6.045  -2.014   0.332  0.00  0.00     0.388 C 
ATOM      5  N3  <0> d           5.984  -0.578   0.084  0.00  0.00    -0.119 N 
ATOM      6  C9  <0> d           4.796   0.057  -0.148  0.00  0.00     0.717 A 
ATOM      7  N4  <0> d           4.723   1.331  -0.469  0.00  0.00    -0.043 NA
ATOM      8  C10 <0> d           5.813   2.112  -0.565  0.00  0.00     0.184 A 
ATOM      9  C11 <0> d           7.080   1.547  -0.292  0.00  0.00     0.088 A 
ATOM     10  C12 <0> d           7.145   0.125   0.074  0.00  0.00     0.278 A 
ATOM     11  O1  <0> d           8.205  -0.407   0.346  0.00  0.00    -0.266 OA
ATOM     12  C13 <0> d           8.227   2.343  -0.375  0.00  0.00    -0.031 A 
ATOM     13  C14 <0> d           8.074   3.662  -0.735  0.00  0.00    -0.033 A 
ATOM     14  C15 <0> d           6.796   4.154  -0.991  0.00  0.00     0.126 A 
ATOM     15  N5  <0> d           5.726   3.395  -0.904  0.00  0.00    -0.239 NA
ATOM     16  C16 <0> d           9.242   4.601  -0.875  0.00  0.00     0.040 C 
ATOM     17  C17 <0> d          10.469   4.042  -0.158  0.00  0.00     0.005 C 
ATOM     18  C18 <0> d          10.692   2.599  -0.627  0.00  0.00     0.005 C 
ATOM     19  C19 <0> d           9.565   1.731  -0.069  0.00  0.00     0.040 C 
ATOM     20  H24 <0> d           4.675  -2.289   1.788  0.00  0.00     0.283 HD
ENDROOT
BRANCH   1  21
ATOM     21  C4  <0> d           2.400   0.031  -0.021  0.00  0.00     0.053 A 
ATOM     22  C3  <0> d           2.075   0.854   1.050  0.00  0.00     0.030 A 
ATOM     23  C2  <0> d           0.869   1.525   1.063  0.00  0.00     0.002 A 
ATOM     24  C1  <0> d          -0.016   1.379   0.010  0.00  0.00     0.000 A 
ATOM     25  C6  <0> d           0.304   0.561  -1.058  0.00  0.00     0.002 A 
ATOM     26  C5  <0> d           1.509  -0.113  -1.076  0.00  0.00     0.030 A 
ENDBRANCH   1  21
BRANCH   3  27
ATOM     27  C20 <0> d           4.857  -4.029   0.755  0.00  0.00     0.264 C 
BRANCH  27  28
ATOM     28  C21 <0> d           5.988  -4.533   1.653  0.00  0.00     0.192 C 
BRANCH  28  29
ATOM     29  O2  <0> d           5.683  -4.233   3.016  0.00  0.00    -0.399 OA
ATOM     30  H23 <0> d           6.359  -4.525   3.644  0.00  0.00     0.209 HD
ENDBRANCH  28  29
ENDBRANCH  27  28
ENDBRANCH   3  27
TORSDOF 4
