REMARK  6 active torsions:
REMARK  status: ('A' for Active; 'I' for Inactive)
REMARK    1  A    between atoms: C8_8  and  O3_29 
REMARK    2  A    between atoms: C10_10  and  C11_11 
REMARK    3  A    between atoms: N2_18  and  C15_21 
REMARK    4  A    between atoms: C14_19  and  O2_20 
REMARK    5  A    between atoms: C15_21  and  C16_22 
REMARK    6  A    between atoms: C16_22  and  C17_23 
ROOT
ATOM      1  C11 <0> d           0.109   0.950  -0.214  0.00  0.00     0.096 A 
ATOM      2  C12 <0> d           0.139  -0.387  -0.651  0.00  0.00     0.260 A 
ATOM      3  O1  <0> d          -0.901  -0.990  -0.852  0.00  0.00    -0.267 OA
ATOM      4  N1  <0> d           1.326  -0.996  -0.845  0.00  0.00    -0.299 N 
ATOM      5  H2  <0> d           1.351  -1.946  -1.155  0.00  0.00     0.171 HD
ATOM      6  C13 <0> d           2.477  -0.335  -0.625  0.00  0.00     0.182 A 
ATOM      7  S1  <0> d           3.970  -1.133  -0.880  0.00  0.00    -0.040 SA
ATOM      8  N2  <0> d           2.472   0.944  -0.207  0.00  0.00    -0.303 N 
ATOM      9  C14 <0> d           1.287   1.602   0.003  0.00  0.00     0.158 A 
ENDROOT
BRANCH   1  10
ATOM     10  C10 <0> d          -1.206   1.653   0.004  0.00  0.00     0.266 C 
ATOM     11  C9  <0> d          -1.944   1.746  -1.306  0.00  0.00     0.020 A 
ATOM     12  C4  <0> d          -3.297   1.516  -1.399  0.00  0.00    -0.042 A 
ATOM     13  C8  <0> d          -1.223   2.082  -2.448  0.00  0.00     0.113 A 
ATOM     14  C3  <0> d          -4.119   1.141  -0.192  0.00  0.00     0.067 C 
ATOM     15  C5  <0> d          -3.936   1.622  -2.626  0.00  0.00     0.047 A 
ATOM     16  C2  <0> d          -3.351   1.476   1.087  0.00  0.00     0.240 C 
ATOM     17  N3  <0> d          -2.002   0.882   0.973  0.00  0.00    -0.062 N 
ATOM     18  C1  <0> d          -1.335   0.882   2.294  0.00  0.00     0.270 C 
ATOM     19  H26 <0> d          -2.089  -0.086   0.643  0.00  0.00     0.280 HD
ATOM     20  C6  <0> d          -3.230   1.947  -3.761  0.00  0.00     0.108 A 
ATOM     21  O5  <0> d          -3.620   2.106  -5.059  0.00  0.00    -0.323 OA
ATOM     22  C7  <0> d          -1.861   2.182  -3.675  0.00  0.00     0.139 A 
ATOM     23  C24 <0> d          -2.409   2.039  -5.836  0.00  0.00     0.352 C 
ATOM     24  O4  <0> d          -1.392   2.489  -4.921  0.00  0.00    -0.320 OA
BRANCH  13  25
ATOM     25  O3  <0> d           0.115   2.312  -2.360  0.00  0.00    -0.352 OA
ATOM     26  C23 <0> d           0.532   3.673  -2.239  0.00  0.00     0.210 C 
ENDBRANCH  13  25
ENDBRANCH   1  10
BRANCH   9  27
ATOM     27  O2  <0> d           1.286   2.885   0.422  0.00  0.00    -0.345 OA
ATOM     28  H11 <0> d           2.169   3.259   0.547  0.00  0.00     0.219 HD
ENDBRANCH   9  27
BRANCH   8  29
ATOM     29  C15 <0> d           3.740   1.639   0.025  0.00  0.00     0.138 C 
BRANCH  29  30
ATOM     30  C16 <0> d           4.188   2.329  -1.266  0.00  0.00     0.059 C 
BRANCH  30  31
ATOM     31  C17 <0> d           5.493   3.043  -1.027  0.00  0.00    -0.057 A 
ATOM     32  C22 <0> d           6.690   2.385  -1.237  0.00  0.00     0.007 A 
ATOM     33  C21 <0> d           7.887   3.040  -1.018  0.00  0.00     0.001 A 
ATOM     34  C20 <0> d           7.887   4.354  -0.590  0.00  0.00     0.000 A 
ATOM     35  C19 <0> d           6.690   5.013  -0.379  0.00  0.00     0.001 A 
ATOM     36  C18 <0> d           5.493   4.359  -0.603  0.00  0.00     0.007 A 
ENDBRANCH  30  31
ENDBRANCH  29  30
ENDBRANCH   8  29
TORSDOF 6
