REMARK  5 active torsions:
REMARK  status: ('A' for Active; 'I' for Inactive)
REMARK    1  A    between atoms: C5_6  and  N2_8 
REMARK    2  A    between atoms: N2_8  and  C8_10 
REMARK    3  A    between atoms: C8_10  and  C9_11 
REMARK    4  A    between atoms: C9_11  and  C13_16 
REMARK    5  A    between atoms: C13_16  and  O2_17 
ROOT
ATOM      1  N2  <0> d           1.527  -2.490   2.337  0.00  0.00     0.091 N 
ATOM      2  C7  <0> d           0.505  -2.110   3.321  0.00  0.00     0.310 C 
ENDROOT
BRANCH   1   3
ATOM      3  C5  <0> d           1.467  -1.621   1.154  0.00  0.00     0.248 C 
ATOM      4  C4  <0> d           0.044  -1.626   0.587  0.00  0.00     0.039 C 
ATOM      5  C3  <0> d          -0.026  -0.659  -0.598  0.00  0.00     0.030 C 
ATOM      6  C2  <0> d           0.411   0.734  -0.139  0.00  0.00     0.234 C 
ATOM      7  N1  <0> d           1.788   0.677   0.367  0.00  0.00    -0.073 N 
ATOM      8  C1  <0> d           2.230   2.029   0.733  0.00  0.00     0.269 C 
ATOM      9  C6  <0> d           1.849  -0.193   1.548  0.00  0.00     0.270 C 
ATOM     10  H27 <0> d           2.393   0.309  -0.352  0.00  0.00     0.279 HD
ENDBRANCH   1   3
BRANCH   1  11
ATOM     11  C8  <0> d           1.395  -3.904   1.960  0.00  0.00     0.286 C 
BRANCH  11  12
ATOM     12  C9  <0> d           1.898  -4.786   3.104  0.00  0.00     0.031 C 
ATOM     13  C12 <0> d           0.973  -4.655   4.335  0.00  0.00     0.181 C 
ATOM     14  O1  <0> d           0.917  -5.984   4.897  0.00  0.00    -0.390 OA
ATOM     15  C11 <0> d           0.830  -6.874   3.762  0.00  0.00     0.168 C 
ATOM     16  C10 <0> d           1.801  -6.279   2.719  0.00  0.00     0.042 C 
BRANCH  12  17
ATOM     17  C13 <0> d           3.336  -4.416   3.473  0.00  0.00     0.177 C 
BRANCH  17  18
ATOM     18  O2  <0> d           3.784  -5.252   4.542  0.00  0.00    -0.400 OA
ATOM     19  H26 <0> d           4.690  -5.073   4.828  0.00  0.00     0.209 HD
ENDBRANCH  17  18
ENDBRANCH  12  17
ENDBRANCH  11  12
ENDBRANCH   1  11
TORSDOF 5
