REMARK  6 active torsions:
REMARK  status: ('A' for Active; 'I' for Inactive)
REMARK    1  A    between atoms: C6_6  and  N1_8 
REMARK    2  A    between atoms: N1_8  and  C8_9 
REMARK    3  A    between atoms: N2_11  and  N3_12 
REMARK       I    between atoms: N3_12  and  C9_13 
REMARK    4  A    between atoms: C9_13  and  C10_15 
REMARK    5  A    between atoms: C13_18  and  N4_21 
REMARK       I    between atoms: N4_21  and  C16_22 
REMARK    6  A    between atoms: C16_22  and  C17_24 
ROOT
ATOM      1  N3  <0> d           0.484  -4.220   4.686  0.00  0.00    -0.264 N 
ATOM      2  C9  <0> d           0.424  -4.904   5.845  0.00  0.00     0.270 C 
ATOM      3  O1  <0> d           0.357  -4.306   6.901  0.00  0.00    -0.266 OA
ATOM      4  H11 <0> d           0.538  -4.697   3.843  0.00  0.00     0.190 HD
ENDROOT
BRANCH   1   5
ATOM      5  N2  <0> d           0.470  -2.819   4.697  0.00  0.00    -0.273 N 
ATOM      6  C8  <0> d           0.531  -2.134   3.538  0.00  0.00     0.191 C 
ATOM      7  S1  <0> d           0.513  -0.422   3.553  0.00  0.00    -0.039 SA
ATOM      8  H10 <0> d           0.417  -2.342   5.540  0.00  0.00     0.189 HD
BRANCH   6   9
ATOM      9  N1  <0> d           0.605  -2.797   2.367  0.00  0.00    -0.332 N 
ATOM     10  H9  <0> d           0.548  -3.766   2.354  0.00  0.00     0.168 HD
BRANCH   9  11
ATOM     11  C6  <0> d           0.764  -2.089   1.171  0.00  0.00     0.040 A 
ATOM     12  C5  <0> d          -0.006  -2.414   0.062  0.00  0.00    -0.035 A 
ATOM     13  C4  <0> d           0.153  -1.713  -1.117  0.00  0.00     0.009 A 
ATOM     14  C21 <0> d          -1.016  -3.530   0.146  0.00  0.00     0.050 C 
ATOM     15  C3  <0> d           1.079  -0.689  -1.194  0.00  0.00     0.007 A 
ATOM     16  C2  <0> d           1.847  -0.363  -0.092  0.00  0.00    -0.060 A 
ATOM     17  C1  <0> d           2.856   0.754  -0.181  0.00  0.00     0.048 C 
ATOM     18  C7  <0> d           1.697  -1.063   1.089  0.00  0.00     0.037 A 
ENDBRANCH   9  11
ENDBRANCH   6   9
ENDBRANCH   1   5
BRANCH   2  19
ATOM     19  C10 <0> d           0.439  -6.380   5.832  0.00  0.00     0.033 A 
ATOM     20  C15 <0> d           0.376  -7.091   7.033  0.00  0.00     0.019 A 
ATOM     21  C14 <0> d           0.385  -8.468   7.018  0.00  0.00     0.030 A 
ATOM     22  C13 <0> d           0.468  -9.151   5.808  0.00  0.00     0.034 A 
ATOM     23  C12 <0> d           0.536  -8.446   4.611  0.00  0.00     0.030 A 
ATOM     24  C11 <0> d           0.521  -7.069   4.619  0.00  0.00     0.019 A 
BRANCH  22  25
ATOM     25  N4  <0> d           0.482 -10.545   5.796  0.00  0.00    -0.327 N 
ATOM     26  C16 <0> d          -0.092 -11.216   4.778  0.00  0.00     0.226 C 
ATOM     27  O2  <0> d          -0.704 -10.613   3.923  0.00  0.00    -0.273 OA
ATOM     28  H16 <0> d           0.906 -11.032   6.521  0.00  0.00     0.169 HD
BRANCH  26  29
ATOM     29  C17 <0> d           0.026 -12.717   4.703  0.00  0.00     0.082 A 
ATOM     30  C19 <0> d          -0.649 -13.421   3.525  0.00  0.00    -0.005 A 
ATOM     31  C18 <0> d          -1.244 -13.538   4.930  0.00  0.00     0.019 A 
ATOM     32  C20 <0> d          -1.393 -12.547   2.513  0.00  0.00     0.011 C 
ENDBRANCH  26  29
ENDBRANCH  22  25
ENDBRANCH   2  19
TORSDOF 6
