REMARK  5 active torsions:
REMARK  status: ('A' for Active; 'I' for Inactive)
REMARK    1  A    between atoms: C3_3  and  C4_4 
REMARK    2  A    between atoms: C3_3  and  N4_24 
REMARK    3  A    between atoms: C4_4  and  C5_5 
REMARK    4  A    between atoms: C5_5  and  N1_6 
REMARK       I    between atoms: N1_6  and  C6_7 
REMARK    5  A    between atoms: C6_7  and  C7_9 
ROOT
ATOM      1  C7  <0> d          -2.028  -4.334  -0.002  0.00  0.00     0.075 A 
ATOM      2  C8  <0> d          -2.244  -2.988   0.008  0.00  0.00     0.044 A 
ATOM      3  C9  <0> d          -1.159  -2.106   0.002  0.00  0.00     0.070 A 
ATOM      4  C10 <0> d           0.123  -2.713  -0.014  0.00  0.00     0.116 A 
ATOM      5  S1  <0> d          -0.247  -4.450  -0.021  0.00  0.00    -0.064 SA
ATOM      6  N2  <0> d           1.233  -2.004  -0.021  0.00  0.00    -0.222 NA
ATOM      7  C11 <0> d           1.197  -0.673  -0.013  0.00  0.00     0.138 A 
ATOM      8  C12 <0> d           2.405   0.050  -0.021  0.00  0.00     0.051 A 
ATOM      9  C13 <0> d           2.371   1.411  -0.013  0.00  0.00     0.005 A 
ATOM     10  C14 <0> d           1.133   2.071   0.002  0.00  0.00     0.018 A 
ATOM     11  C15 <0> d          -0.017   1.363   0.009  0.00  0.00     0.102 A 
ATOM     12  N3  <0> d           0.002  -0.004   0.002  0.00  0.00    -0.273 N 
ATOM     13  C16 <0> d          -1.167  -0.675   0.009  0.00  0.00     0.266 A 
ATOM     14  O2  <0> d          -2.223  -0.068   0.023  0.00  0.00    -0.267 OA
ENDROOT
BRANCH   1  15
ATOM     15  C6  <0> d          -3.014  -5.417   0.001  0.00  0.00     0.258 C 
ATOM     16  N1  <0> d          -2.604  -6.701  -0.010  0.00  0.00    -0.356 N 
ATOM     17  H13 <0> d          -1.656  -6.907  -0.021  0.00  0.00     0.162 HD
ATOM     18  O1  <0> d          -4.203  -5.158   0.014  0.00  0.00    -0.267 OA
BRANCH  16  19
ATOM     19  C5  <0> d          -3.590  -7.785  -0.007  0.00  0.00     0.124 C 
BRANCH  19  20
ATOM     20  C4  <0> d          -2.866  -9.133  -0.022  0.00  0.00     0.047 C 
BRANCH  20  21
ATOM     21  C3  <0> d          -3.896 -10.264  -0.019  0.00  0.00     0.235 C 
BRANCH  21  22
ATOM     22  N4  <0> d          -3.182 -11.558  -0.055  0.00  0.00    -0.079 N 
ATOM     23  C1  <0> d          -2.449 -11.766   1.212  0.00  0.00     0.269 C 
ATOM     24  C2  <0> d          -4.144 -12.660  -0.268  0.00  0.00     0.269 C 
ATOM     25  H19 <0> d          -2.510 -11.547  -0.831  0.00  0.00     0.278 HD
ENDBRANCH  21  22
ENDBRANCH  20  21
ENDBRANCH  19  20
ENDBRANCH  16  19
ENDBRANCH   1  15
TORSDOF 5
