REMARK  5 active torsions:
REMARK  status: ('A' for Active; 'I' for Inactive)
REMARK    1  A    between atoms: C5_6  and  C6_7 
REMARK       I    between atoms: C6_7  and  N2_9 
REMARK    2  A    between atoms: N2_9  and  C7_10 
REMARK    3  A    between atoms: C12_15  and  C13_16 
REMARK    4  A    between atoms: C14_17  and  C15_18 
REMARK    5  A    between atoms: C15_18  and  O2_19 
ROOT
ATOM      1  C7  <0> d          -0.397   1.366   4.111  0.00  0.00     0.053 A 
ATOM      2  C8  <0> d          -0.290   0.450   5.147  0.00  0.00     0.031 A 
ATOM      3  C9  <0> d          -0.294   0.885   6.458  0.00  0.00     0.002 A 
ATOM      4  C10 <0> d          -0.405   2.235   6.748  0.00  0.00     0.002 A 
ATOM      5  C11 <0> d          -0.513   3.159   5.729  0.00  0.00     0.023 A 
ATOM      6  C12 <0> d          -0.503   2.733   4.400  0.00  0.00     0.044 A 
ENDROOT
BRANCH   1   7
ATOM      7  N2  <0> d          -0.392   0.928   2.785  0.00  0.00    -0.320 N 
ATOM      8  C6  <0> d          -0.441  -0.390   2.511  0.00  0.00     0.272 C 
ATOM      9  O1  <0> d          -0.539  -1.197   3.417  0.00  0.00    -0.266 OA
ATOM     10  H7  <0> d          -0.353   1.573   2.062  0.00  0.00     0.169 HD
BRANCH   8  11
ATOM     11  C5  <0> d          -0.376  -0.853   1.121  0.00  0.00     0.102 A 
ATOM     12  N1  <0> d          -0.506  -2.153   0.689  0.00  0.00    -0.357 N 
ATOM     13  C1  <0> d          -0.736  -3.319   1.546  0.00  0.00     0.156 C 
ATOM     14  C2  <0> d          -0.393  -2.175  -0.661  0.00  0.00     0.091 A 
ATOM     15  C3  <0> d          -0.186  -0.912  -1.104  0.00  0.00     0.020 A 
ATOM     16  C4  <0> d          -0.169  -0.065   0.008  0.00  0.00     0.037 A 
ENDBRANCH   8  11
ENDBRANCH   1   7
BRANCH   6  17
ATOM     17  C13 <0> d          -0.609   3.688   3.338  0.00  0.00    -0.062 C 
ATOM     18  C14 <0> d          -0.695   4.471   2.467  0.00  0.00    -0.075 C 
BRANCH  18  19
ATOM     19  C15 <0> d          -0.803   5.452   1.375  0.00  0.00     0.258 C 
BRANCH  19  20
ATOM     20  O2  <0> d          -0.900   6.767   1.925  0.00  0.00    -0.389 OA
ATOM     21  H14 <0> d          -0.974   7.467   1.261  0.00  0.00     0.210 HD
ENDBRANCH  19  20
ENDBRANCH  18  19
ENDBRANCH   6  17
TORSDOF 5
