REMARK  5 active torsions:
REMARK  status: ('A' for Active; 'I' for Inactive)
REMARK       I    between atoms: C2_2  and  N1_4 
REMARK    1  A    between atoms: N1_4  and  C3_5 
REMARK    2  A    between atoms: C3_5  and  C4_6 
REMARK    3  A    between atoms: C7_9  and  C8_11 
REMARK       I    between atoms: C8_11  and  N2_13 
REMARK    4  A    between atoms: N2_13  and  C9_14 
REMARK    5  A    between atoms: C10_17  and  C11_19 
ROOT
ATOM      1  C8  <0> d          -6.248  -4.051   1.060  0.00  0.00     0.264 C 
ATOM      2  O2  <0> d          -7.156  -4.383   0.320  0.00  0.00    -0.267 OA
ATOM      3  N2  <0> d          -6.410  -4.116   2.397  0.00  0.00    -0.300 N 
ATOM      4  H9  <0> d          -5.687  -3.851   2.986  0.00  0.00     0.171 HD
ENDROOT
BRANCH   1   5
ATOM      5  C7  <0> d          -4.980  -3.580   0.498  0.00  0.00     0.073 A 
ATOM      6  C6  <0> d          -4.612  -3.439  -0.832  0.00  0.00     0.026 A 
ATOM      7  C5  <0> d          -3.340  -2.968  -1.052  0.00  0.00     0.018 A 
ATOM      8  C4  <0> d          -2.550  -2.680   0.012  0.00  0.00     0.001 A 
ATOM      9  S1  <0> d          -3.505  -3.045   1.345  0.00  0.00    -0.088 SA
BRANCH   8  10
ATOM     10  C3  <0> d          -1.136  -2.159   0.001  0.00  0.00     0.168 C 
BRANCH  10  11
ATOM     11  N1  <0> d          -1.156  -0.694   0.009  0.00  0.00    -0.357 N 
ATOM     12  C2  <0> d           0.002  -0.004   0.002  0.00  0.00     0.213 C 
ATOM     13  C1  <0> d          -0.018   1.503   0.010  0.00  0.00     0.117 C 
ATOM     14  O1  <0> d           1.060  -0.596  -0.011  0.00  0.00    -0.274 OA
ATOM     15  H4  <0> d          -2.002  -0.220   0.020  0.00  0.00     0.162 HD
ENDBRANCH  10  11
ENDBRANCH   8  10
ENDBRANCH   1   5
BRANCH   3  16
ATOM     16  C9  <0> d          -7.613  -4.562   2.930  0.00  0.00     0.197 A 
ATOM     17  S2  <0> d          -8.114  -4.754   4.638  0.00  0.00    -0.028 SA
ATOM     18  C10 <0> d          -9.762  -5.360   4.287  0.00  0.00     0.134 A 
ATOM     19  N4  <0> d          -9.733  -5.351   2.960  0.00  0.00    -0.140 NA
ATOM     20  N3  <0> d          -8.716  -4.973   2.318  0.00  0.00    -0.123 NA
BRANCH  18  21
ATOM     21  C11 <0> d         -10.843  -5.761   5.212  0.00  0.00     0.009 A 
ATOM     22  C14 <0> d         -10.667  -5.693   6.568  0.00  0.00     0.064 A 
ATOM     23  S3  <0> d         -12.242  -6.275   7.175  0.00  0.00    -0.113 SA
ATOM     24  C13 <0> d         -13.028  -6.580   5.602  0.00  0.00     0.050 A 
ATOM     25  C12 <0> d         -12.064  -6.222   4.724  0.00  0.00     0.022 A 
ENDBRANCH  18  21
ENDBRANCH   3  16
TORSDOF 5
