REMARK  6 active torsions:
REMARK  status: ('A' for Active; 'I' for Inactive)
REMARK    1  A    between atoms: C4_5  and  C7_8 
REMARK    2  A    between atoms: C4_5  and  N3_18 
REMARK    3  A    between atoms: C7_8  and  N2_9 
REMARK       I    between atoms: N2_9  and  C8_10 
REMARK    4  A    between atoms: C8_10  and  C9_12 
REMARK    5  A    between atoms: C9_12  and  C10_13 
REMARK    6  A    between atoms: C10_13  and  S1_14 
ROOT
ATOM      1  C1  <0> d           0.575   1.348   0.083  0.00  0.00     0.269 C 
ATOM      2  N1  <0> d           0.427  -0.113   0.089  0.00  0.00    -0.075 N 
ATOM      3  C2  <0> d          -0.986  -0.461  -0.098  0.00  0.00     0.237 C 
ATOM      4  C3  <0> d          -1.135  -1.982  -0.174  0.00  0.00     0.071 C 
ATOM      5  C4  <0> d          -0.623  -2.605   1.128  0.00  0.00     0.178 C 
ATOM      6  C5  <0> d           0.829  -2.175   1.351  0.00  0.00     0.071 C 
ATOM      7  C6  <0> d           0.905  -0.647   1.371  0.00  0.00     0.237 C 
ATOM      8  H30 <0> d           0.972  -0.509  -0.663  0.00  0.00     0.279 HD
ENDROOT
BRANCH   5   9
ATOM      9  C7  <0> d          -1.485  -2.126   2.298  0.00  0.00     0.164 C 
BRANCH   9  10
ATOM     10  N2  <0> d          -2.851  -2.630   2.137  0.00  0.00    -0.359 N 
ATOM     11  C8  <0> d          -3.816  -2.249   2.998  0.00  0.00     0.218 C 
ATOM     12  O1  <0> d          -3.553  -1.489   3.906  0.00  0.00    -0.274 OA
ATOM     13  H14 <0> d          -3.061  -3.238   1.411  0.00  0.00     0.162 HD
BRANCH  11  14
ATOM     14  C9  <0> d          -5.221  -2.768   2.833  0.00  0.00     0.117 C 
BRANCH  14  15
ATOM     15  C10 <0> d          -6.112  -2.186   3.932  0.00  0.00     0.149 C 
BRANCH  15  16
ATOM     16  S1  <0> d          -7.803  -2.810   3.733  0.00  0.00     0.141 S 
ATOM     17  O2  <0> d          -8.327  -2.307   2.512  0.00  0.00    -0.228 OA
ATOM     18  O3  <0> d          -7.793  -4.214   3.954  0.00  0.00    -0.228 OA
ATOM     19  C11 <0> d          -8.687  -2.019   5.106  0.00  0.00     0.161 C 
ENDBRANCH  15  16
ENDBRANCH  14  15
ENDBRANCH  11  14
ENDBRANCH   9  10
ENDBRANCH   5   9
BRANCH   5  20
ATOM     20  N3  <0> d          -0.693  -4.070   1.032  0.00  0.00     0.104 N 
ATOM     21  C15 <0> d           0.117  -4.563  -0.091  0.00  0.00     0.299 C 
ATOM     22  C14 <0> d          -0.031  -6.084  -0.190  0.00  0.00     0.198 C 
ATOM     23  O4  <0> d           0.350  -6.677   1.054  0.00  0.00    -0.388 OA
ATOM     24  C13 <0> d          -0.418  -6.219   2.170  0.00  0.00     0.198 C 
ATOM     25  C12 <0> d          -0.274  -4.700   2.293  0.00  0.00     0.299 C 
ENDBRANCH   5  20
TORSDOF 6
