REMARK  7 active torsions:
REMARK  status: ('A' for Active; 'I' for Inactive)
REMARK    1  A    between atoms: C2_2  and  C3_3 
REMARK    2  A    between atoms: C2_2  and  O3_22 
REMARK       I    between atoms: C3_3  and  N1_5 
REMARK    3  A    between atoms: N1_5  and  N2_6 
REMARK       I    between atoms: N2_6  and  C4_7 
REMARK       I    between atoms: C4_7  and  N3_9 
REMARK    4  A    between atoms: N3_9  and  C5_10 
REMARK    5  A    between atoms: C5_10  and  C6_11 
REMARK    6  A    between atoms: N6_15  and  C8_16 
REMARK    7  A    between atoms: O3_22  and  C14_23 
ROOT
ATOM      1  N2  <0> d           2.616  -1.144   2.606  0.00  0.00    -0.249 N 
ATOM      2  C4  <0> d           3.953  -1.089   2.764  0.00  0.00     0.335 C 
ATOM      3  O2  <0> d           4.460  -1.495   3.792  0.00  0.00    -0.246 OA
ATOM      4  N3  <0> d           4.728  -0.583   1.784  0.00  0.00    -0.335 N 
ATOM      5  H6  <0> d           2.058  -1.508   3.311  0.00  0.00     0.192 HD
ATOM      6  H7  <0> d           4.323  -0.259   0.965  0.00  0.00     0.164 HD
ENDROOT
BRANCH   1   7
ATOM      7  N1  <0> d           2.031  -0.676   1.422  0.00  0.00    -0.264 N 
ATOM      8  C3  <0> d           0.694  -0.732   1.263  0.00  0.00     0.265 C 
ATOM      9  O1  <0> d          -0.004  -1.187   2.145  0.00  0.00    -0.269 OA
ATOM     10  H5  <0> d           2.588  -0.312   0.716  0.00  0.00     0.190 HD
BRANCH   8  11
ATOM     11  C2  <0> d           0.064  -0.228  -0.010  0.00  0.00     0.218 C 
ATOM     12  C1  <0> d           0.291   1.280  -0.130  0.00  0.00     0.050 C 
BRANCH  11  13
ATOM     13  O3  <0> d          -1.339  -0.499   0.012  0.00  0.00    -0.334 OA
BRANCH  13  14
ATOM     14  C14 <0> d          -1.966  -0.607  -1.189  0.00  0.00     0.108 A 
ATOM     15  C19 <0> d          -3.301  -0.987  -1.246  0.00  0.00     0.149 A 
ATOM     16  C18 <0> d          -3.937  -1.089  -2.470  0.00  0.00     0.045 A 
ATOM     17  F1  <0> d          -3.978  -1.249  -0.107  0.00  0.00    -0.203 F 
ATOM     18  C17 <0> d          -3.242  -0.826  -3.635  0.00  0.00     0.003 A 
ATOM     19  C16 <0> d          -1.912  -0.454  -3.581  0.00  0.00     0.003 A 
ATOM     20  C15 <0> d          -1.272  -0.344  -2.361  0.00  0.00     0.040 A 
ENDBRANCH  13  14
ENDBRANCH  11  13
ENDBRANCH   8  11
ENDBRANCH   1   7
BRANCH   4  21
ATOM     21  C5  <0> d           6.181  -0.523   1.957  0.00  0.00     0.205 C 
BRANCH  21  22
ATOM     22  C6  <0> d           6.809   0.079   0.726  0.00  0.00     0.152 A 
ATOM     23  N6  <0> d           7.051   1.402   0.507  0.00  0.00    -0.289 N 
ATOM     24  C7  <0> d           7.627   1.475  -0.726  0.00  0.00     0.240 A 
ATOM     25  N5  <0> d           7.699   0.257  -1.190  0.00  0.00    -0.143 NA
ATOM     26  N4  <0> d           7.216  -0.568  -0.332  0.00  0.00    -0.133 NA
BRANCH  23  27
ATOM     27  C8  <0> d           6.771   2.469   1.374  0.00  0.00     0.042 A 
ATOM     28  C13 <0> d           7.754   3.403   1.668  0.00  0.00     0.030 A 
ATOM     29  C12 <0> d           7.473   4.455   2.518  0.00  0.00     0.002 A 
ATOM     30  C11 <0> d           6.216   4.572   3.084  0.00  0.00     0.000 A 
ATOM     31  C10 <0> d           5.237   3.639   2.797  0.00  0.00     0.002 A 
ATOM     32  C9  <0> d           5.510   2.588   1.944  0.00  0.00     0.030 A 
ENDBRANCH  23  27
ENDBRANCH  21  22
ENDBRANCH   4  21
TORSDOF 7
