REMARK  5 active torsions:
REMARK  status: ('A' for Active; 'I' for Inactive)
REMARK    1  A    between atoms: C4_4  and  N3_28 
REMARK    2  A    between atoms: C9_11  and  C12_16 
REMARK    3  A    between atoms: C14_18  and  O4_26 
REMARK    4  A    between atoms: C15_19  and  O3_24 
REMARK    5  A    between atoms: C16_20  and  O2_22 
ROOT
ATOM      1  C1  <0> d          -0.018   1.503   0.010  0.00  0.00     0.051 C 
ATOM      2  C2  <0> d           0.002  -0.004   0.002  0.00  0.00    -0.018 A 
ATOM      3  C3  <0> d           0.006  -0.720  -1.205  0.00  0.00     0.097 A 
ATOM      4  C4  <0> d           0.026  -2.128  -1.141  0.00  0.00     0.143 A 
ATOM      5  N1  <0> d           0.041  -2.768   0.004  0.00  0.00    -0.228 NA
ATOM      6  C5  <0> d           0.037  -2.131   1.199  0.00  0.00     0.086 A 
ATOM      7  C6  <0> d           0.023  -0.716   1.174  0.00  0.00     0.044 A 
ATOM      8  S1  <0> d           0.035  -0.271   2.893  0.00  0.00    -0.069 SA
ATOM      9  C7  <0> d           0.071  -1.905   3.569  0.00  0.00     0.086 A 
ATOM     10  C8  <0> d           0.048  -2.729   2.479  0.00  0.00     0.015 A 
ATOM     11  C9  <0> d           0.034  -4.240   2.698  0.00  0.00     0.066 C 
ATOM     12  C10 <0> d           0.750  -4.549   4.012  0.00  0.00     0.117 C 
ATOM     13  C11 <0> d           0.299  -3.637   5.118  0.00  0.00     0.223 C 
ATOM     14  O1  <0> d           0.138  -4.082   6.235  0.00  0.00    -0.273 OA
ATOM     15  N2  <0> d           0.093  -2.323   4.881  0.00  0.00    -0.321 N 
ATOM     16  C21 <0> d          -0.010  -0.040  -2.465  0.00  0.00     0.104 C 
ATOM     17  N4  <0> d          -0.023   0.499  -3.465  0.00  0.00    -0.191 NA
ATOM     18  H7  <0> d          -0.051  -1.699   5.610  0.00  0.00     0.169 HD
ENDROOT
BRANCH   4  19
ATOM     19  N3  <0> d           0.031  -2.856  -2.320  0.00  0.00    -0.383 N 
ATOM     20  H19 <0> d           0.020  -2.396  -3.174  0.00  0.00     0.157 HD
ATOM     21  H20 <0> d           0.045  -3.826  -2.292  0.00  0.00     0.157 HD
ENDBRANCH   4  19
BRANCH  11  22
ATOM     22  C12 <0> d           0.745  -4.923   1.558  0.00  0.00    -0.043 A 
ATOM     23  C17 <0> d           0.068  -5.835   0.771  0.00  0.00     0.047 A 
ATOM     24  C16 <0> d           0.716  -6.461  -0.282  0.00  0.00     0.104 A 
ATOM     25  C15 <0> d           2.053  -6.179  -0.539  0.00  0.00     0.135 A 
ATOM     26  C14 <0> d           2.732  -5.266   0.258  0.00  0.00     0.104 A 
ATOM     27  C13 <0> d           2.074  -4.640   1.306  0.00  0.00     0.047 A 
BRANCH  24  28
ATOM     28  O2  <0> d           0.047  -7.355  -1.060  0.00  0.00    -0.353 OA
ATOM     29  C18 <0> d          -1.324  -7.596  -0.737  0.00  0.00     0.210 C 
ENDBRANCH  24  28
BRANCH  25  30
ATOM     30  O3  <0> d           2.694  -6.795  -1.569  0.00  0.00    -0.351 OA
ATOM     31  C19 <0> d           3.350  -8.031  -1.279  0.00  0.00     0.210 C 
ENDBRANCH  25  30
BRANCH  26  32
ATOM     32  O4  <0> d           4.039  -4.985   0.010  0.00  0.00    -0.353 OA
ATOM     33  C20 <0> d           4.674  -4.036   0.870  0.00  0.00     0.210 C 
ENDBRANCH  26  32
ENDBRANCH  11  22
TORSDOF 5
