REMARK  9 active torsions:
REMARK  status: ('A' for Active; 'I' for Inactive)
REMARK    1  A    between atoms: C5_5  and  O1_9 
REMARK    2  A    between atoms: O1_9  and  C9_10 
REMARK    3  A    between atoms: C9_10  and  C10_11 
REMARK    4  A    between atoms: C10_11  and  C11_12 
REMARK    5  A    between atoms: C10_11  and  O4_27 
REMARK    6  A    between atoms: C11_12  and  N1_13 
REMARK    7  A    between atoms: N1_13  and  C12_14 
REMARK    8  A    between atoms: N1_13  and  C17_20 
REMARK    9  A    between atoms: C12_14  and  C13_15 
ROOT
ATOM      1  N1  <0> d           0.003  -8.352  -2.286  0.00  0.00    -0.059 N 
ATOM      2  H28 <0> d          -0.819  -8.925  -2.170  0.00  0.00     0.280 HD
ENDROOT
BRANCH   1   3
ATOM      3  C11 <0> d          -0.394  -6.941  -2.383  0.00  0.00     0.269 C 
BRANCH   3   4
ATOM      4  C10 <0> d          -1.271  -6.575  -1.184  0.00  0.00     0.168 C 
BRANCH   4   5
ATOM      5  C9  <0> d          -1.607  -5.083  -1.234  0.00  0.00     0.209 C 
BRANCH   5   6
ATOM      6  O1  <0> d          -2.328  -4.717  -0.056  0.00  0.00    -0.349 OA
BRANCH   6   7
ATOM      7  C5  <0> d          -2.704  -3.416   0.058  0.00  0.00     0.069 A 
ATOM      8  C4  <0> d          -2.387  -2.511  -0.944  0.00  0.00     0.037 A 
ATOM      9  C3  <0> d          -2.771  -1.189  -0.826  0.00  0.00     0.010 A 
ATOM     10  C2  <0> d          -3.473  -0.769   0.290  0.00  0.00    -0.056 A 
ATOM     11  C1  <0> d          -3.891   0.673   0.415  0.00  0.00     0.049 C 
ATOM     12  C7  <0> d          -3.785  -1.668   1.292  0.00  0.00    -0.053 A 
ATOM     13  C6  <0> d          -3.408  -2.992   1.176  0.00  0.00     0.044 A 
ATOM     14  C8  <0> d          -4.545  -1.205   2.509  0.00  0.00     0.049 C 
ENDBRANCH   6   7
ENDBRANCH   5   6
ENDBRANCH   4   5
BRANCH   4  15
ATOM     15  O4  <0> d          -2.480  -7.337  -1.228  0.00  0.00    -0.392 OA
ATOM     16  H27 <0> d          -3.008  -7.189  -2.025  0.00  0.00     0.210 HD
ENDBRANCH   4  15
ENDBRANCH   3   4
ENDBRANCH   1   3
BRANCH   1  17
ATOM     17  C12 <0> d           0.707  -8.747  -3.514  0.00  0.00     0.281 C 
BRANCH  17  18
ATOM     18  C13 <0> d           1.005 -10.224  -3.468  0.00  0.00     0.008 A 
ATOM     19  S1  <0> d           2.515 -11.052  -2.998  0.00  0.00    -0.105 SA
ATOM     20  C16 <0> d           1.966 -12.733  -3.239  0.00  0.00     0.050 A 
ATOM     21  C15 <0> d           0.691 -12.554  -3.661  0.00  0.00     0.008 A 
ATOM     22  C14 <0> d           0.198 -11.268  -3.779  0.00  0.00     0.017 A 
ENDBRANCH  17  18
ENDBRANCH   1  17
BRANCH   1  23
ATOM     23  C17 <0> d           0.894  -8.532  -1.132  0.00  0.00     0.203 C 
ATOM     24  C20 <0> d           0.873 -10.021  -0.681  0.00  0.00     0.173 C 
ATOM     25  S2  <0> d           2.438 -10.100   0.289  0.00  0.00     0.146 S 
ATOM     26  C19 <0> d           3.319  -8.657  -0.434  0.00  0.00     0.142 C 
ATOM     27  O2  <0> d           2.150  -9.829   1.654  0.00  0.00    -0.228 OA
ATOM     28  O3  <0> d           3.136 -11.289  -0.055  0.00  0.00    -0.228 OA
ATOM     29  C18 <0> d           2.335  -8.171  -1.526  0.00  0.00     0.049 C 
ENDBRANCH   1  23
TORSDOF 9
