REMARK  3 active torsions:
REMARK  status: ('A' for Active; 'I' for Inactive)
REMARK    1  A    between atoms: C7_7  and  N1_8 
REMARK    2  A    between atoms: C11_13  and  N5_17 
REMARK    3  A    between atoms: N5_17  and  C13_18 
ROOT
ATOM      1  N1  <0> d           0.168   0.116   2.335  0.00  0.00    -0.214 N 
ATOM      2  C8  <0> d           0.380  -0.375   3.591  0.00  0.00     0.168 A 
ATOM      3  C9  <0> d           0.379   0.733   4.461  0.00  0.00     0.077 A 
ATOM      4  C10 <0> d           0.161   1.881   3.668  0.00  0.00     0.158 A 
ATOM      5  N2  <0> d           0.044   1.509   2.424  0.00  0.00    -0.177 NA
ATOM      6  C11 <0> d           0.580   0.503   5.835  0.00  0.00     0.140 A 
ATOM      7  N3  <0> d           0.759  -0.748   6.246  0.00  0.00    -0.224 NA
ATOM      8  C12 <0> d           0.752  -1.756   5.393  0.00  0.00     0.237 A 
ATOM      9  N4  <0> d           0.569  -1.591   4.101  0.00  0.00    -0.221 NA
ENDROOT
BRANCH   6  10
ATOM     10  N5  <0> d           0.589   1.552   6.734  0.00  0.00    -0.369 N 
ATOM     11  H10 <0> d           0.457   2.460   6.421  0.00  0.00     0.161 HD
BRANCH  10  12
ATOM     12  C13 <0> d           0.799   1.292   8.161  0.00  0.00     0.086 C 
ATOM     13  C17 <0> d           1.377   2.542   8.829  0.00  0.00     0.052 C 
ATOM     14  C16 <0> d           1.519   2.291  10.332  0.00  0.00     0.234 C 
ATOM     15  N6  <0> d           0.203   1.990  10.908  0.00  0.00    -0.075 N 
ATOM     16  C15 <0> d          -0.325   0.751  10.323  0.00  0.00     0.234 C 
ATOM     17  H16 <0> d          -0.431   2.750  10.713  0.00  0.00     0.277 HD
ATOM     18  H21 <0> d           0.292   1.877  11.907  0.00  0.00     0.277 HD
ATOM     19  C14 <0> d          -0.538   0.944   8.820  0.00  0.00     0.052 C 
ENDBRANCH  10  12
ENDBRANCH   6  10
BRANCH   1  20
ATOM     20  C7  <0> d           0.094  -0.641   1.159  0.00  0.00     0.066 A 
ATOM     21  C2  <0> d          -0.937  -0.423   0.255  0.00  0.00    -0.033 A 
ATOM     22  C1  <0> d          -1.978   0.629   0.538  0.00  0.00     0.050 C 
ATOM     23  C3  <0> d          -1.004  -1.167  -0.907  0.00  0.00     0.009 A 
ATOM     24  C4  <0> d          -0.049  -2.132  -1.167  0.00  0.00     0.001 A 
ATOM     25  C5  <0> d           0.977  -2.355  -0.267  0.00  0.00     0.002 A 
ATOM     26  C6  <0> d           1.049  -1.614   0.896  0.00  0.00     0.032 A 
ENDBRANCH   1  20
TORSDOF 3
