REMARK  5 active torsions:
REMARK  status: ('A' for Active; 'I' for Inactive)
REMARK    1  A    between atoms: C9_12  and  C11_14 
REMARK    2  A    between atoms: C13_16  and  C18_26 
REMARK       I    between atoms: N3_18  and  C14_19 
REMARK    3  A    between atoms: C14_19  and  C15_21 
REMARK    4  A    between atoms: C15_21  and  C16_22 
REMARK    5  A    between atoms: C16_22  and  C17_23 
ROOT
ATOM      1  C11 <0> d           2.948   4.017  -0.004  0.00  0.00     0.158 A 
ATOM      2  C12 <0> d           2.621   5.523   0.006  0.00  0.00     0.094 A 
ATOM      3  C13 <0> d           1.109   5.567   0.020  0.00  0.00     0.067 A 
ATOM      4  N2  <0> d           0.644   4.366   0.013  0.00  0.00    -0.173 NA
ATOM      5  N3  <0> d           1.623   3.376   0.005  0.00  0.00    -0.228 N 
ATOM      6  C14 <0> d           1.395   2.047  -0.000  0.00  0.00     0.241 C 
ATOM      7  O2  <0> d           2.328   1.272  -0.013  0.00  0.00    -0.272 OA
ENDROOT
BRANCH   1   8
ATOM      8  C9  <0> d           3.707   3.647  -1.253  0.00  0.00     0.036 A 
ATOM      9  C8  <0> d           3.117   3.845  -2.519  0.00  0.00     0.254 A 
ATOM     10  N1  <0> d           3.764   3.534  -3.656  0.00  0.00    -0.322 N 
ATOM     11  O1  <0> d           1.994   4.315  -2.584  0.00  0.00    -0.268 OA
ATOM     12  C7  <0> d           5.032   2.995  -3.625  0.00  0.00     0.051 A 
ATOM     13  H1  <0> d           3.266   3.715  -4.620  0.00  0.00     0.169 HD
ATOM     14  C2  <0> d           5.700   2.667  -4.800  0.00  0.00    -0.034 A 
ATOM     15  C6  <0> d           5.664   2.773  -2.387  0.00  0.00    -0.008 A 
ATOM     16  C1  <0> d           5.039   2.898  -6.135  0.00  0.00     0.050 C 
ATOM     17  C3  <0> d           6.968   2.130  -4.740  0.00  0.00     0.009 A 
ATOM     18  C4  <0> d           7.587   1.912  -3.517  0.00  0.00     0.002 A 
ATOM     19  C5  <0> d           6.951   2.227  -2.349  0.00  0.00     0.014 A 
ATOM     20  C10 <0> d           4.953   3.121  -1.155  0.00  0.00     0.028 A 
ENDBRANCH   1   8
BRANCH   6  21
ATOM     21  C15 <0> d          -0.019   1.526   0.010  0.00  0.00     0.115 C 
BRANCH  21  22
ATOM     22  C16 <0> d           0.002  -0.004   0.002  0.00  0.00     0.122 C 
BRANCH  22  23
ATOM     23  C17 <0> d          -1.412  -0.526   0.013  0.00  0.00     0.172 C 
ATOM     24  O3  <0> d          -2.341   0.247   0.026  0.00  0.00    -0.648 OA
ATOM     25  O4  <0> d          -1.639  -1.849   0.008  0.00  0.00    -0.648 OA
ENDBRANCH  22  23
ENDBRANCH  21  22
ENDBRANCH   6  21
BRANCH   3  26
ATOM     26  C18 <0> d           0.294   6.796   0.033  0.00  0.00    -0.010 A 
ATOM     27  C23 <0> d          -1.100   6.713   0.046  0.00  0.00     0.013 A 
ATOM     28  C22 <0> d          -1.856   7.867   0.059  0.00  0.00     0.001 A 
ATOM     29  C21 <0> d          -1.237   9.104   0.060  0.00  0.00     0.000 A 
ATOM     30  C20 <0> d           0.144   9.194   0.047  0.00  0.00     0.001 A 
ATOM     31  C19 <0> d           0.913   8.049   0.040  0.00  0.00     0.013 A 
ENDBRANCH   3  26
TORSDOF 5
