REMARK  7 active torsions:
REMARK  status: ('A' for Active; 'I' for Inactive)
REMARK    1  A    between atoms: N1_2  and  C3_4 
REMARK    2  A    between atoms: C3_4  and  C4_5 
REMARK    3  A    between atoms: C4_5  and  C5_6 
REMARK    4  A    between atoms: N2_9  and  C10_12 
REMARK    5  A    between atoms: C13_15  and  S2_22 
REMARK    6  A    between atoms: C15_17  and  S1_18 
REMARK    7  A    between atoms: S2_22  and  N3_25 
ROOT
ATOM      1  C10 <0> d           6.197  -2.634  -3.995  0.00  0.00     0.052 A 
ATOM      2  C11 <0> d           6.951  -3.045  -2.904  0.00  0.00     0.032 A 
ATOM      3  C12 <0> d           7.955  -3.978  -3.072  0.00  0.00     0.027 A 
ATOM      4  C13 <0> d           8.209  -4.504  -4.327  0.00  0.00     0.080 A 
ATOM      5  C14 <0> d           7.460  -4.096  -5.415  0.00  0.00     0.051 A 
ATOM      6  C15 <0> d           6.450  -3.167  -5.252  0.00  0.00     0.086 A 
ENDROOT
BRANCH   1   7
ATOM      7  N2  <0> d           5.181  -1.690  -3.827  0.00  0.00    -0.380 N 
ATOM      8  C7  <0> d           3.845  -2.100  -3.372  0.00  0.00     0.123 C 
ATOM      9  C6  <0> d           3.462  -1.262  -2.148  0.00  0.00     0.024 C 
ATOM     10  C5  <0> d           3.579   0.224  -2.495  0.00  0.00    -0.010 C 
ATOM     11  C9  <0> d           5.027   0.550  -2.870  0.00  0.00     0.024 C 
ATOM     12  C8  <0> d           5.427  -0.268  -4.103  0.00  0.00     0.123 C 
BRANCH  10  13
ATOM     13  C4  <0> d           3.165   1.064  -1.286  0.00  0.00     0.032 C 
BRANCH  13  14
ATOM     14  C3  <0> d           1.682   0.832  -0.988  0.00  0.00     0.234 C 
BRANCH  14  15
ATOM     15  N1  <0> d           1.284   1.638   0.174  0.00  0.00    -0.079 N 
ATOM     16  C1  <0> d           1.394   3.065  -0.160  0.00  0.00     0.269 C 
ATOM     17  C2  <0> d          -0.106   1.326   0.534  0.00  0.00     0.269 C 
ATOM     18  H28 <0> d           1.889   1.427   0.953  0.00  0.00     0.278 HD
ENDBRANCH  14  15
ENDBRANCH  13  14
ENDBRANCH  10  13
ENDBRANCH   1   7
BRANCH   6  19
ATOM     19  S1  <0> d           5.491  -2.654  -6.638  0.00  0.00     0.174 S 
ATOM     20  O1  <0> d           5.447  -1.237  -6.544  0.00  0.00    -0.223 OA
ATOM     21  O2  <0> d           6.100  -3.288  -7.755  0.00  0.00    -0.223 OA
ATOM     22  C16 <0> d           3.842  -3.351  -6.347  0.00  0.00     0.167 C 
ENDBRANCH   6  19
BRANCH   4  23
ATOM     23  S2  <0> d           9.490  -5.694  -4.538  0.00  0.00     0.256 S 
ATOM     24  O3  <0> d           9.888  -5.625  -5.900  0.00  0.00    -0.201 OA
ATOM     25  O4  <0> d          10.403  -5.503  -3.466  0.00  0.00    -0.201 OA
BRANCH  23  26
ATOM     26  N3  <0> d           8.811  -7.189  -4.319  0.00  0.00    -0.324 N 
ATOM     27  H26 <0> d           7.866  -7.267  -4.115  0.00  0.00     0.169 HD
ATOM     28  H27 <0> d           9.358  -7.986  -4.394  0.00  0.00     0.169 HD
ENDBRANCH  23  26
ENDBRANCH   4  23
TORSDOF 7
