REMARK  7 active torsions:
REMARK  status: ('A' for Active; 'I' for Inactive)
REMARK    1  A    between atoms: C2_2  and  C3_3 
REMARK    2  A    between atoms: C2_2  and  N1_10 
REMARK    3  A    between atoms: N1_10  and  S1_11 
REMARK    4  A    between atoms: S1_11  and  C9_14 
REMARK    5  A    between atoms: C12_17  and  C13_19 
REMARK    6  A    between atoms: C13_19  and  C14_20 
REMARK    7  A    between atoms: C14_20  and  N2_21 
ROOT
ATOM      1  S1  <0> d          -2.016  -1.040  -1.471  0.00  0.00     0.266 S 
ATOM      2  O1  <0> d          -3.325  -1.510  -1.178  0.00  0.00    -0.200 OA
ATOM      3  O2  <0> d          -1.771  -0.010  -2.418  0.00  0.00    -0.200 OA
ENDROOT
BRANCH   1   4
ATOM      4  N1  <0> d          -1.365  -0.528  -0.036  0.00  0.00    -0.306 N 
ATOM      5  H9  <0> d          -1.890  -0.576   0.778  0.00  0.00     0.173 HD
BRANCH   4   6
ATOM      6  C2  <0> d           0.002  -0.004   0.002  0.00  0.00     0.123 C 
ATOM      7  C1  <0> d          -0.036   1.524  -0.063  0.00  0.00     0.038 C 
BRANCH   6   8
ATOM      8  C3  <0> d           0.670  -0.436   1.282  0.00  0.00    -0.014 A 
ATOM      9  C8  <0> d           2.046  -0.572   1.333  0.00  0.00     0.042 A 
ATOM     10  C7  <0> d           2.659  -0.964   2.510  0.00  0.00     0.024 A 
ATOM     11 Cl1  <0> d           3.003  -0.245  -0.078  0.00  0.00    -0.084 Cl
ATOM     12  C6  <0> d           1.895  -1.229   3.631  0.00  0.00     0.002 A 
ATOM     13  C5  <0> d           0.520  -1.098   3.578  0.00  0.00     0.001 A 
ATOM     14  C4  <0> d          -0.092  -0.701   2.404  0.00  0.00     0.011 A 
ENDBRANCH   6   8
ENDBRANCH   4   6
ENDBRANCH   1   4
BRANCH   1  15
ATOM     15  C9  <0> d          -1.083  -2.440  -1.996  0.00  0.00     0.120 A 
ATOM     16  S2  <0> d           0.377  -2.497  -3.022  0.00  0.00    -0.081 SA
ATOM     17  C12 <0> d           0.616  -4.267  -3.021  0.00  0.00    -0.015 A 
ATOM     18  C11 <0> d          -0.421  -4.689  -2.256  0.00  0.00     0.017 A 
ATOM     19  C10 <0> d          -1.292  -3.753  -1.731  0.00  0.00     0.034 A 
BRANCH  17  20
ATOM     20  C13 <0> d           1.688  -5.080  -3.698  0.00  0.00     0.073 C 
BRANCH  20  21
ATOM     21  C14 <0> d           1.226  -5.462  -5.106  0.00  0.00     0.234 C 
BRANCH  21  22
ATOM     22  N2  <0> d           2.271  -6.255  -5.766  0.00  0.00    -0.079 N 
ATOM     23  H16 <0> d           3.118  -5.710  -5.827  0.00  0.00     0.274 HD
ATOM     24  H17 <0> d           2.447  -7.092  -5.231  0.00  0.00     0.274 HD
ATOM     25  H18 <0> d           1.966  -6.507  -6.694  0.00  0.00     0.274 HD
ENDBRANCH  21  22
ENDBRANCH  20  21
ENDBRANCH  17  20
ENDBRANCH   1  15
TORSDOF 7
