REMARK  2 active torsions:
REMARK  status: ('A' for Active; 'I' for Inactive)
REMARK    1  A    between atoms: C5_5  and  C8_8 
REMARK    2  A    between atoms: C8_8  and  N1_9 
ROOT
ATOM      1  N1  <0> d           1.447  -4.746  -0.032  0.00  0.00    -0.249 N 
ATOM      2  C9  <0> d           2.190  -4.988  -1.120  0.00  0.00     0.136 A 
ATOM      3  C10 <0> d           3.428  -5.399  -0.696  0.00  0.00     0.030 A 
ATOM      4  C11 <0> d           3.420  -5.412   0.691  0.00  0.00     0.151 A 
ATOM      5  N2  <0> d           2.237  -5.017   1.097  0.00  0.00    -0.182 NA
ATOM      6  C12 <0> d           4.530  -5.738  -1.660  0.00  0.00     0.111 A 
ATOM      7  C13 <0> d           3.920  -6.227  -2.972  0.00  0.00     0.132 C 
ATOM      8  C14 <0> d           2.751  -5.372  -3.378  0.00  0.00     0.225 C 
ATOM      9  O1  <0> d           2.583  -5.128  -4.554  0.00  0.00    -0.273 OA
ATOM     10  N3  <0> d           1.883  -4.869  -2.475  0.00  0.00    -0.311 N 
ATOM     11  C15 <0> d           5.433  -4.568  -1.886  0.00  0.00    -0.007 A 
ATOM     12  C16 <0> d           5.190  -3.311  -2.398  0.00  0.00     0.034 A 
ATOM     13  C17 <0> d           6.273  -2.441  -2.475  0.00  0.00     0.034 A 
ATOM     14  C18 <0> d           7.532  -2.823  -2.057  0.00  0.00     0.026 A 
ATOM     15  C19 <0> d           7.784  -4.085  -1.542  0.00  0.00     0.032 A 
ATOM     16  C20 <0> d           6.705  -4.967  -1.459  0.00  0.00     0.042 A 
ATOM     17  N4  <0> d           6.670  -6.270  -0.993  0.00  0.00    -0.325 N 
ATOM     18  C21 <0> d           5.432  -6.803  -1.074  0.00  0.00     0.240 A 
ATOM     19  O2  <0> d           5.104  -7.921  -0.740  0.00  0.00    -0.272 OA
ATOM     20 Cl1  <0> d           6.036  -0.843  -3.110  0.00  0.00    -0.084 Cl
ATOM     21  H13 <0> d           1.065  -4.434  -2.762  0.00  0.00     0.170 HD
ATOM     22  H17 <0> d           7.443  -6.745  -0.650  0.00  0.00     0.169 HD
ENDROOT
BRANCH   1  23
ATOM     23  C8  <0> d           0.059  -4.275  -0.021  0.00  0.00     0.191 C 
BRANCH  23  24
ATOM     24  C5  <0> d           0.040  -2.768  -0.013  0.00  0.00    -0.038 A 
ATOM     25  C4  <0> d           0.025  -2.071  -1.206  0.00  0.00     0.009 A 
ATOM     26  C3  <0> d           0.006  -0.689  -1.199  0.00  0.00     0.007 A 
ATOM     27  C2  <0> d           0.002  -0.004   0.002  0.00  0.00    -0.062 A 
ATOM     28  C1  <0> d          -0.018   1.503   0.010  0.00  0.00     0.048 C 
ATOM     29  C7  <0> d           0.023  -0.702   1.195  0.00  0.00     0.007 A 
ATOM     30  C6  <0> d           0.037  -2.084   1.188  0.00  0.00     0.009 A 
ENDBRANCH  23  24
ENDBRANCH   1  23
TORSDOF 2
