REMARK  3 active torsions:
REMARK  status: ('A' for Active; 'I' for Inactive)
REMARK    1  A    between atoms: C3_3  and  O4_20 
REMARK    2  A    between atoms: C6_6  and  C7_7 
REMARK    3  A    between atoms: C14_16  and  O3_18 
ROOT
ATOM      1  C7  <0> d           2.488   3.893  -0.008  0.00  0.00     0.063 C 
ATOM      2  C8  <0> d           2.299   5.330   0.486  0.00  0.00     0.125 C 
ATOM      3  C9  <0> d           1.046   5.876  -0.170  0.00  0.00     0.265 C 
ATOM      4  O1  <0> d           1.075   6.866  -0.862  0.00  0.00    -0.265 OA
ATOM      5  O2  <0> d          -0.102   5.208   0.055  0.00  0.00    -0.278 OA
ATOM      6  C10 <0> d          -0.041   3.849   0.031  0.00  0.00     0.088 A 
ATOM      7  C11 <0> d           1.165   3.169   0.011  0.00  0.00    -0.015 A 
ATOM      8  C12 <0> d           1.173   1.783   0.000  0.00  0.00     0.013 A 
ATOM      9  C13 <0> d          -0.013   1.076   0.008  0.00  0.00     0.037 A 
ATOM     10  C14 <0> d          -1.223   1.754   0.017  0.00  0.00     0.068 A 
ATOM     11  C15 <0> d          -1.236   3.139   0.033  0.00  0.00     0.074 A 
ENDROOT
BRANCH   1  12
ATOM     12  C6  <0> d           3.462   3.179   0.893  0.00  0.00    -0.048 A 
ATOM     13  C1  <0> d           3.181   3.038   2.240  0.00  0.00     0.011 A 
ATOM     14  C2  <0> d           4.070   2.379   3.067  0.00  0.00     0.038 A 
ATOM     15  C3  <0> d           5.250   1.868   2.549  0.00  0.00     0.083 A 
ATOM     16  C4  <0> d           5.533   2.015   1.198  0.00  0.00     0.044 A 
ATOM     17  C5  <0> d           4.638   2.670   0.373  0.00  0.00     0.029 A 
ATOM     18 Br1  <0> d           7.142   1.321   0.486  0.00  0.00    -0.048 Br
BRANCH  15  19
ATOM     19  O4  <0> d           6.129   1.225   3.362  0.00  0.00    -0.359 OA
ATOM     20  H11 <0> d           6.788   1.805   3.766  0.00  0.00     0.217 HD
ENDBRANCH  15  19
ENDBRANCH   1  12
BRANCH  10  21
ATOM     21  O3  <0> d          -2.392   1.062   0.016  0.00  0.00    -0.361 OA
ATOM     22  H10 <0> d          -2.728   0.854   0.899  0.00  0.00     0.217 HD
ENDBRANCH  10  21
TORSDOF 3
