REMARK  8 active torsions:
REMARK  status: ('A' for Active; 'I' for Inactive)
REMARK    1  A    between atoms: O1_2  and  C2_3 
REMARK    2  A    between atoms: C4_5  and  C9_12 
REMARK    3  A    between atoms: C6_7  and  O3_10 
REMARK    4  A    between atoms: C7_8  and  O2_9 
REMARK    5  A    between atoms: C9_12  and  C10_13 
REMARK    6  A    between atoms: N1_16  and  C13_20 
REMARK    7  A    between atoms: C13_20  and  C14_21 
REMARK       I    between atoms: C14_21  and  N2_23 
REMARK    8  A    between atoms: N2_23  and  C15_24 
ROOT
ATOM      1  C10 <0> d          -0.895   1.072   0.049  0.00  0.00     0.076 A 
ATOM      2  C11 <0> d          -2.302   0.791  -0.297  0.00  0.00     0.266 A 
ATOM      3  O4  <0> d          -2.828  -0.273  -0.024  0.00  0.00    -0.266 OA
ATOM      4  N1  <0> d          -2.963   1.752  -0.920  0.00  0.00    -0.289 N 
ATOM      5  C12 <0> d          -2.377   2.929  -1.221  0.00  0.00     0.149 A 
ATOM      6  S1  <0> d          -3.058   4.284  -2.016  0.00  0.00    -0.052 SA
ATOM      7  S2  <0> d          -0.720   2.734  -0.584  0.00  0.00    -0.055 SA
ENDROOT
BRANCH   1   8
ATOM      8  C9  <0> d           0.015   0.286   0.680  0.00  0.00     0.036 C 
BRANCH   8   9
ATOM      9  C4  <0> d           1.432   0.670   0.696  0.00  0.00    -0.029 A 
ATOM     10  C3  <0> d           2.337  -0.018   1.513  0.00  0.00     0.051 A 
ATOM     11  C2  <0> d           3.669   0.346   1.525  0.00  0.00     0.104 A 
ATOM     12  C7  <0> d           4.113   1.397   0.726  0.00  0.00     0.133 A 
ATOM     13  C6  <0> d           3.216   2.085  -0.087  0.00  0.00     0.104 A 
ATOM     14  C5  <0> d           1.882   1.723  -0.109  0.00  0.00     0.051 A 
BRANCH  11  15
ATOM     15  O1  <0> d           4.549  -0.322   2.318  0.00  0.00    -0.353 OA
ATOM     16  C1  <0> d           4.026  -1.390   3.111  0.00  0.00     0.210 C 
ENDBRANCH  11  15
BRANCH  12  17
ATOM     17  O2  <0> d           5.425   1.753   0.740  0.00  0.00    -0.356 OA
ATOM     18  H6  <0> d           5.966   1.288   0.087  0.00  0.00     0.218 HD
ENDBRANCH  12  17
BRANCH  13  19
ATOM     19  O3  <0> d           3.654   3.111  -0.866  0.00  0.00    -0.353 OA
ATOM     20  C8  <0> d           2.680   3.773  -1.675  0.00  0.00     0.210 C 
ENDBRANCH  13  19
ENDBRANCH   8   9
ENDBRANCH   1   8
BRANCH   4  21
ATOM     21  C13 <0> d          -4.364   1.535  -1.290  0.00  0.00     0.236 C 
BRANCH  21  22
ATOM     22  C14 <0> d          -5.257   1.988  -0.164  0.00  0.00     0.240 C 
ATOM     23  O5  <0> d          -4.772   2.447   0.848  0.00  0.00    -0.271 OA
ATOM     24  N2  <0> d          -6.596   1.882  -0.282  0.00  0.00    -0.326 N 
ATOM     25  H13 <0> d          -6.982   1.457  -1.064  0.00  0.00     0.169 HD
BRANCH  24  26
ATOM     26  C15 <0> d          -7.428   2.387   0.723  0.00  0.00     0.034 A 
ATOM     27  C20 <0> d          -7.019   3.473   1.486  0.00  0.00     0.031 A 
ATOM     28  C19 <0> d          -7.843   3.969   2.477  0.00  0.00     0.026 A 
ATOM     29  C18 <0> d          -9.075   3.385   2.711  0.00  0.00     0.034 A 
ATOM     30  C17 <0> d          -9.485   2.302   1.953  0.00  0.00     0.026 A 
ATOM     31 Cl1  <0> d         -10.109   4.011   3.957  0.00  0.00    -0.084 Cl
ATOM     32  C16 <0> d          -8.668   1.806   0.957  0.00  0.00     0.031 A 
ENDBRANCH  24  26
ENDBRANCH  21  22
ENDBRANCH   4  21
TORSDOF 8
