REMARK  6 active torsions:
REMARK  status: ('A' for Active; 'I' for Inactive)
REMARK    1  A    between atoms: C2_2  and  C3_3 
REMARK    2  A    between atoms: C2_2  and  N2_8 
REMARK    3  A    between atoms: C3_3  and  C4_4 
REMARK    4  A    between atoms: C4_4  and  N1_5 
REMARK       I    between atoms: N2_8  and  C7_9 
REMARK    5  A    between atoms: C7_9  and  C8_11 
REMARK       I    between atoms: C8_11  and  N3_13 
REMARK    6  A    between atoms: N3_13  and  C9_14 
ROOT
ATOM      1  C8  <0> d           0.773  -1.130   3.564  0.00  0.00     0.314 C 
ATOM      2  O2  <0> d           1.955  -1.396   3.499  0.00  0.00    -0.262 OA
ATOM      3  N3  <0> d           0.114  -1.272   4.732  0.00  0.00    -0.317 N 
ATOM      4  H16 <0> d          -0.810  -0.985   4.806  0.00  0.00     0.169 HD
ENDROOT
BRANCH   1   5
ATOM      5  C7  <0> d           0.048  -0.647   2.352  0.00  0.00     0.310 C 
ATOM      6  N2  <0> d           0.706  -0.505   1.185  0.00  0.00    -0.349 N 
ATOM      7  H15 <0> d           1.651  -0.717   1.132  0.00  0.00     0.163 HD
ATOM      8  O1  <0> d          -1.135  -0.382   2.418  0.00  0.00    -0.262 OA
BRANCH   6   9
ATOM      9  C2  <0> d          -0.005  -0.031  -0.005  0.00  0.00     0.082 C 
ATOM     10  C1  <0> d          -0.035   1.499  -0.005  0.00  0.00     0.032 C 
BRANCH   9  11
ATOM     11  C3  <0> d           0.714  -0.527  -1.261  0.00  0.00     0.052 C 
BRANCH  11  12
ATOM     12  C4  <0> d           0.636  -2.053  -1.324  0.00  0.00     0.236 C 
BRANCH  12  13
ATOM     13  N1  <0> d           1.326  -2.530  -2.530  0.00  0.00    -0.079 N 
ATOM     14  C5  <0> d           2.758  -2.218  -2.430  0.00  0.00     0.269 C 
ATOM     15  C6  <0> d           1.149  -3.982  -2.655  0.00  0.00     0.269 C 
ATOM     16  H23 <0> d           0.939  -2.073  -3.342  0.00  0.00     0.278 HD
ENDBRANCH  12  13
ENDBRANCH  11  12
ENDBRANCH   9  11
ENDBRANCH   6   9
ENDBRANCH   1   5
BRANCH   3  17
ATOM     17  C9  <0> d           0.760  -1.832   5.833  0.00  0.00     0.065 A 
ATOM     18  C14 <0> d           0.330  -1.524   7.143  0.00  0.00     0.093 A 
ATOM     19  C13 <0> d           1.001  -2.112   8.243  0.00  0.00    -0.005 A 
ATOM     20  N4  <0> d          -0.698  -0.698   7.354  0.00  0.00    -0.258 NA
ATOM     21  C12 <0> d           2.084  -2.976   8.018  0.00  0.00     0.014 A 
ATOM     22  C17 <0> d           0.566  -1.809   9.548  0.00  0.00     0.015 A 
ATOM     23  C11 <0> d           2.481  -3.250   6.744  0.00  0.00     0.003 A 
ATOM     24  C10 <0> d           1.828  -2.685   5.653  0.00  0.00     0.032 A 
ATOM     25  C16 <0> d          -0.484  -0.947   9.693  0.00  0.00     0.020 A 
ATOM     26  C15 <0> d          -1.103  -0.409   8.567  0.00  0.00     0.117 A 
ENDBRANCH   3  17
TORSDOF 6
