REMARK  4 active torsions:
REMARK  status: ('A' for Active; 'I' for Inactive)
REMARK    1  A    between atoms: C8_9  and  C10_11 
REMARK    2  A    between atoms: C10_11  and  N2_12 
REMARK    3  A    between atoms: C13_16  and  C15_18 
REMARK    4  A    between atoms: C15_18  and  N3_19 
ROOT
ATOM      1  N2  <0> d           1.425  -2.696   1.336  0.00  0.00     0.097 N 
ATOM      2  C11 <0> d           0.315  -2.355   2.237  0.00  0.00     0.299 C 
ATOM      3  C12 <0> d           0.645  -2.840   3.651  0.00  0.00     0.198 C 
ATOM      4  O1  <0> d           0.904  -4.245   3.620  0.00  0.00    -0.381 OA
ATOM      5  C13 <0> d           1.980  -4.613   2.753  0.00  0.00     0.175 C 
ATOM      6  C14 <0> d           1.664  -4.147   1.329  0.00  0.00     0.306 C 
ENDROOT
BRANCH   1   7
ATOM      7  C10 <0> d           1.173  -2.197  -0.022  0.00  0.00     0.313 C 
BRANCH   7   8
ATOM      8  C8  <0> d           1.177  -0.691  -0.013  0.00  0.00    -0.001 A 
ATOM      9  C7  <0> d           2.395   0.011  -0.021  0.00  0.00     0.074 A 
ATOM     10  C3  <0> d           2.373   1.428  -0.013  0.00  0.00    -0.007 A 
ATOM     11  N1  <0> d           3.565  -0.636  -0.035  0.00  0.00    -0.260 NA
ATOM     12  C2  <0> d           1.142   2.103   0.002  0.00  0.00     0.014 A 
ATOM     13  C4  <0> d           3.594   2.130  -0.020  0.00  0.00     0.015 A 
ATOM     14  C1  <0> d          -0.017   1.389   0.010  0.00  0.00     0.002 A 
ATOM     15  C9  <0> d           0.002  -0.004   0.002  0.00  0.00     0.011 A 
ATOM     16  C5  <0> d           4.752   1.407  -0.035  0.00  0.00     0.020 A 
ATOM     17  C6  <0> d           4.703   0.014  -0.042  0.00  0.00     0.117 A 
ENDBRANCH   7   8
ENDBRANCH   1   7
BRANCH   5  18
ATOM     18  C15 <0> d           2.151  -6.133   2.767  0.00  0.00     0.263 C 
BRANCH  18  19
ATOM     19  N3  <0> d           2.450  -6.580   4.134  0.00  0.00    -0.077 N 
ATOM     20  H18 <0> d           2.563  -7.582   4.144  0.00  0.00     0.274 HD
ATOM     21  H19 <0> d           3.302  -6.143   4.452  0.00  0.00     0.274 HD
ATOM     22  H20 <0> d           1.691  -6.321   4.746  0.00  0.00     0.274 HD
ENDBRANCH  18  19
ENDBRANCH   5  18
TORSDOF 4
