REMARK  3 active torsions:
REMARK  status: ('A' for Active; 'I' for Inactive)
REMARK    1  A    between atoms: C6_6  and  N1_8 
REMARK       I    between atoms: N1_8  and  C8_9 
REMARK    2  A    between atoms: C8_9  and  C9_11 
REMARK    3  A    between atoms: N2_20  and  N3_21 
REMARK       I    between atoms: N3_21  and  C17_22 
REMARK       I    between atoms: C17_22  and  N4_24 
ROOT
ATOM      1  C9  <0> d           0.277  -2.880   4.818  0.00  0.00     0.150 A 
ATOM      2  C10 <0> d           0.379  -2.330   6.066  0.00  0.00    -0.008 A 
ATOM      3  C11 <0> d           0.478  -3.403   6.960  0.00  0.00     0.029 A 
ATOM      4  C12 <0> d           0.435  -4.561   6.220  0.00  0.00     0.067 A 
ATOM      5  O2  <0> d           0.306  -4.226   4.938  0.00  0.00    -0.308 OA
ATOM      6  C13 <0> d           0.521  -5.933   6.839  0.00  0.00     0.075 C 
ATOM      7  C14 <0> d           1.158  -5.826   8.227  0.00  0.00    -0.037 C 
ATOM      8  C15 <0> d           0.422  -4.787   9.081  0.00  0.00     0.071 C 
ATOM      9  C16 <0> d           0.607  -3.422   8.434  0.00  0.00     0.069 C 
ATOM     10  N2  <0> d           0.859  -2.353   9.124  0.00  0.00    -0.174 NA
ATOM     11  C18 <0> d           1.089  -7.188   8.921  0.00  0.00     0.015 C 
ATOM     12  C19 <0> d           2.623  -5.410   8.079  0.00  0.00     0.015 C 
ATOM     13  C20 <0> d           0.383  -0.863   6.410  0.00  0.00     0.052 C 
ENDROOT
BRANCH   1  14
ATOM     14  C8  <0> d           0.150  -2.134   3.561  0.00  0.00     0.280 C 
ATOM     15  N1  <0> d           0.052  -2.797   2.392  0.00  0.00    -0.321 N 
ATOM     16  H7  <0> d          -0.016  -3.765   2.387  0.00  0.00     0.169 HD
ATOM     17  O1  <0> d           0.134  -0.918   3.574  0.00  0.00    -0.265 OA
BRANCH  15  18
ATOM     18  C6  <0> d           0.047  -2.090   1.185  0.00  0.00     0.041 A 
ATOM     19  C5  <0> d          -0.544  -2.642   0.057  0.00  0.00    -0.035 A 
ATOM     20  C4  <0> d          -0.547  -1.941  -1.133  0.00  0.00     0.009 A 
ATOM     21  C21 <0> d          -1.183  -4.005   0.131  0.00  0.00     0.050 C 
ATOM     22  C3  <0> d           0.038  -0.690  -1.201  0.00  0.00     0.007 A 
ATOM     23  C2  <0> d           0.628  -0.137  -0.079  0.00  0.00    -0.060 A 
ATOM     24  C1  <0> d           1.265   1.227  -0.158  0.00  0.00     0.048 C 
ATOM     25  C7  <0> d           0.639  -0.835   1.112  0.00  0.00     0.037 A 
ENDBRANCH  15  18
ENDBRANCH   1  14
BRANCH  10  26
ATOM     26  N3  <0> d           0.971  -2.430  10.519  0.00  0.00    -0.229 N 
ATOM     27  C17 <0> d           1.233  -1.320  11.236  0.00  0.00     0.334 C 
ATOM     28  O3  <0> d           1.330  -1.387  12.447  0.00  0.00    -0.246 OA
ATOM     29  N4  <0> d           1.387  -0.135  10.612  0.00  0.00    -0.351 N 
ATOM     30  H13 <0> d           1.310  -0.082   9.647  0.00  0.00     0.160 HD
ATOM     31  H14 <0> d           1.576   0.664  11.128  0.00  0.00     0.160 HD
ATOM     32  H12 <0> d           0.860  -3.283  10.968  0.00  0.00     0.194 HD
ENDBRANCH  10  26
TORSDOF 3
