REMARK  3 active torsions:
REMARK  status: ('A' for Active; 'I' for Inactive)
REMARK       I    between atoms: C2_2  and  N1_4 
REMARK    1  A    between atoms: C7_10  and  N3_14 
REMARK       I    between atoms: N3_14  and  C10_15 
REMARK    2  A    between atoms: C10_15  and  C11_17 
REMARK    3  A    between atoms: N4_22  and  S2_23 
ROOT
ATOM      1  C1  <0> d           3.814  -2.172 -10.915  0.00  0.00     0.117 C 
ATOM      2  C2  <0> d           5.173  -2.065 -10.273  0.00  0.00     0.216 C 
ATOM      3  O1  <0> d           6.138  -1.763 -10.943  0.00  0.00    -0.274 OA
ATOM      4  N1  <0> d           5.316  -2.303  -8.954  0.00  0.00    -0.347 N 
ATOM      5  C3  <0> d           6.629  -2.206  -8.299  0.00  0.00     0.131 C 
ATOM      6  C4  <0> d           6.609  -1.071  -7.274  0.00  0.00     0.061 C 
ATOM      7  C5  <0> d           5.358  -1.195  -6.414  0.00  0.00    -0.018 A 
ATOM      8  C6  <0> d           4.290  -1.913  -6.827  0.00  0.00     0.011 A 
ATOM      9  S1  <0> d           3.106  -1.759  -5.521  0.00  0.00    -0.073 SA
ATOM     10  C7  <0> d           4.011  -0.750  -4.441  0.00  0.00     0.098 A 
ATOM     11  C8  <0> d           5.209  -0.562  -5.114  0.00  0.00     0.086 A 
ATOM     12  C9  <0> d           6.262   0.226  -4.548  0.00  0.00     0.103 C 
ATOM     13  N2  <0> d           7.097   0.851  -4.098  0.00  0.00    -0.191 NA
ATOM     14  C17 <0> d           4.160  -2.672  -8.113  0.00  0.00     0.172 C 
ENDROOT
BRANCH  10  15
ATOM     15  N3  <0> d           3.632  -0.255  -3.201  0.00  0.00    -0.318 N 
ATOM     16  C10 <0> d           2.414  -0.546  -2.703  0.00  0.00     0.246 C 
ATOM     17  O2  <0> d           1.649  -1.242  -3.339  0.00  0.00    -0.271 OA
ATOM     18  H9  <0> d           4.243   0.301  -2.693  0.00  0.00     0.169 HD
BRANCH  16  19
ATOM     19  C11 <0> d           2.001  -0.009  -1.357  0.00  0.00     0.188 C 
ATOM     20  N4  <0> d           1.522  -1.111  -0.512  0.00  0.00    -0.297 N 
ATOM     21  C15 <0> d           0.930  -0.794   0.795  0.00  0.00     0.136 C 
ATOM     22  C14 <0> d          -0.191   0.230   0.593  0.00  0.00     0.021 C 
ATOM     23  C13 <0> d           0.360   1.444  -0.159  0.00  0.00     0.004 C 
ATOM     24  C12 <0> d           0.868   1.006  -1.535  0.00  0.00     0.036 C 
BRANCH  20  25
ATOM     25  S2  <0> d           1.644  -2.681  -1.024  0.00  0.00     0.225 S 
ATOM     26  O3  <0> d           2.790  -2.700  -1.865  0.00  0.00    -0.206 OA
ATOM     27  O4  <0> d           1.607  -3.455   0.167  0.00  0.00    -0.206 OA
ATOM     28  C16 <0> d           0.145  -2.971  -2.004  0.00  0.00     0.186 C 
ENDBRANCH  20  25
ENDBRANCH  16  19
ENDBRANCH  10  15
TORSDOF 3
