REMARK  2 active torsions:
REMARK  status: ('A' for Active; 'I' for Inactive)
REMARK    1  A    between atoms: C7_11  and  C8_12 
REMARK    2  A    between atoms: C11_15  and  C14_18 
ROOT
ATOM      1  C1  <0> d          -0.018   1.503   0.010  0.00  0.00     0.073 C 
ATOM      2  C2  <0> d           0.002  -0.004   0.002  0.00  0.00     0.062 A 
ATOM      3  C3  <0> d           0.008  -0.812  -1.130  0.00  0.00     0.026 A 
ATOM      4  C4  <0> d           0.026  -2.115  -0.713  0.00  0.00     0.131 A 
ATOM      5  N1  <0> d           0.035  -2.115   0.635  0.00  0.00    -0.262 N 
ATOM      6  H1  <0> d           0.051  -2.898   1.208  0.00  0.00     0.191 HD
ATOM      7  N2  <0> d           0.023  -0.777   1.061  0.00  0.00    -0.178 NA
ATOM      8  N3  <0> d           0.026  -3.200  -1.597  0.00  0.00    -0.342 N 
ATOM      9  C5  <0> d          -0.207  -2.893  -2.911  0.00  0.00     0.048 A 
ATOM     10  C6  <0> d          -0.235  -1.632  -3.414  0.00  0.00     0.055 A 
ATOM     11  C7  <0> d          -0.001  -0.391  -2.580  0.00  0.00     0.098 C 
ATOM     12  C15 <0> d          -0.508  -1.691  -4.789  0.00  0.00     0.292 A 
ATOM     13  O1  <0> d          -0.600  -0.718  -5.515  0.00  0.00    -0.259 OA
ATOM     14  O2  <0> d          -0.655  -2.966  -5.200  0.00  0.00    -0.312 OA
ATOM     15  C16 <0> d          -0.478  -3.822  -4.061  0.00  0.00     0.237 A 
ATOM     16  H6  <0> d           0.182  -4.110  -1.298  0.00  0.00     0.167 HD
ENDROOT
BRANCH  11  17
ATOM     17  C8  <0> d           1.326   0.226  -2.942  0.00  0.00    -0.045 A 
ATOM     18  C13 <0> d           1.382   1.531  -3.394  0.00  0.00     0.009 A 
ATOM     19  C12 <0> d           2.599   2.097  -3.721  0.00  0.00     0.017 A 
ATOM     20  C11 <0> d           3.760   1.356  -3.606  0.00  0.00     0.047 A 
ATOM     21  C10 <0> d           3.704   0.049  -3.159  0.00  0.00     0.017 A 
ATOM     22  C9  <0> d           2.487  -0.516  -2.827  0.00  0.00     0.009 A 
BRANCH  20  23
ATOM     23  C14 <0> d           5.087   1.972  -3.966  0.00  0.00     0.417 C 
ATOM     24  F1  <0> d           5.355   1.744  -5.321  0.00  0.00    -0.166 F 
ATOM     25  F2  <0> d           5.042   3.350  -3.726  0.00  0.00    -0.166 F 
ATOM     26  F3  <0> d           6.096   1.396  -3.188  0.00  0.00    -0.166 F 
ENDBRANCH  20  23
ENDBRANCH  11  17
TORSDOF 2
