REMARK  6 active torsions:
REMARK  status: ('A' for Active; 'I' for Inactive)
REMARK    1  A    between atoms: C6_6  and  C15_18 
REMARK    2  A    between atoms: N1_8  and  C8_9 
REMARK    3  A    between atoms: C12_13  and  O1_15 
REMARK       I    between atoms: C15_18  and  N2_20 
REMARK    4  A    between atoms: N2_20  and  C16_21 
REMARK    5  A    between atoms: C22_28  and  C24_31 
REMARK    6  A    between atoms: C24_31  and  O4_32 
ROOT
ATOM      1  C1  <0> d           0.586   7.252   0.097  0.00  0.00     0.073 C 
ATOM      2  C2  <0> d           0.814   5.762   0.079  0.00  0.00     0.065 A 
ATOM      3  C3  <0> d           2.108   5.263   0.051  0.00  0.00     0.113 A 
ATOM      4  C4  <0> d           2.296   3.867   0.037  0.00  0.00     0.011 A 
ATOM      5  C5  <0> d           3.653   3.320   0.015  0.00  0.00     0.036 C 
ATOM      6  C6  <0> d           4.690   4.190   0.276  0.00  0.00     0.084 C 
ATOM      7  C7  <0> d           4.338   5.596   0.556  0.00  0.00     0.164 C 
ATOM      8  N1  <0> d           5.120   6.355   1.292  0.00  0.00    -0.336 N 
ATOM      9  O2  <0> d           3.183   6.085   0.034  0.00  0.00    -0.290 OA
ATOM     10  C22 <0> d           1.167   3.039   0.049  0.00  0.00    -0.004 A 
ATOM     11  C23 <0> d          -0.081   3.628   0.070  0.00  0.00     0.127 A 
ATOM     12  N3  <0> d          -0.217   4.941   0.090  0.00  0.00    -0.262 NA
ATOM     13  H21 <0> d           6.091   5.970   1.638  0.00  0.00     0.168 HD
ENDROOT
BRANCH   6  14
ATOM     14  C15 <0> d           6.092   3.735   0.275  0.00  0.00     0.260 C 
ATOM     15  O3  <0> d           6.353   2.571   0.040  0.00  0.00    -0.267 OA
ATOM     16  N2  <0> d           7.084   4.610   0.533  0.00  0.00    -0.321 N 
ATOM     17  H12 <0> d           6.844   5.645   0.816  0.00  0.00     0.169 HD
BRANCH  16  18
ATOM     18  C16 <0> d           8.419   4.201   0.440  0.00  0.00     0.056 A 
ATOM     19  C21 <0> d           9.389   5.086  -0.015  0.00  0.00     0.060 A 
ATOM     20  C20 <0> d          10.707   4.680  -0.100  0.00  0.00     0.026 A 
ATOM     21 Cl1  <0> d           8.946   6.702  -0.470  0.00  0.00    -0.082 Cl
ATOM     22  C19 <0> d          11.059   3.391   0.257  0.00  0.00     0.002 A 
ATOM     23  C18 <0> d          10.095   2.507   0.705  0.00  0.00     0.002 A 
ATOM     24  C17 <0> d           8.777   2.908   0.798  0.00  0.00     0.031 A 
ENDBRANCH  16  18
ENDBRANCH   6  14
BRANCH   8  25
ATOM     25  C8  <0> d           4.728   7.621   1.625  0.00  0.00     0.036 A 
ATOM     26  C13 <0> d           4.092   7.860   2.845  0.00  0.00     0.066 A 
ATOM     27  C12 <0> d           3.699   9.145   3.176  0.00  0.00     0.070 A 
ATOM     28  C11 <0> d           3.936  10.193   2.296  0.00  0.00     0.037 A 
ATOM     29  C10 <0> d           4.566   9.959   1.087  0.00  0.00     0.005 A 
ATOM     30  C9  <0> d           4.968   8.684   0.749  0.00  0.00     0.029 A 
BRANCH  27  31
ATOM     31  O1  <0> d           3.079   9.381   4.362  0.00  0.00    -0.356 OA
ATOM     32  C14 <0> d           2.700  10.731   4.638  0.00  0.00     0.210 C 
ENDBRANCH  27  31
ENDBRANCH   8  25
BRANCH  10  33
ATOM     33  C24 <0> d           1.311   1.539   0.032  0.00  0.00     0.205 C 
BRANCH  33  34
ATOM     34  O4  <0> d           0.015   0.936   0.048  0.00  0.00    -0.396 OA
ATOM     35  H20 <0> d          -0.081  -0.160   0.039  0.00  0.00     0.209 HD
ENDBRANCH  33  34
ENDBRANCH  10  33
TORSDOF 6
