REMARK  5 active torsions:
REMARK  status: ('A' for Active; 'I' for Inactive)
REMARK    1  A    between atoms: N2_10  and  C9_11 
REMARK    2  A    between atoms: C9_11  and  C10_12 
REMARK    3  A    between atoms: C10_12  and  N3_13 
REMARK       I    between atoms: N3_13  and  C11_14 
REMARK    4  A    between atoms: C11_14  and  C12_16 
REMARK    5  A    between atoms: C13_19  and  C15_21 
ROOT
ATOM      1  N3  <0> d          -0.899  -1.169   4.461  0.00  0.00    -0.354 N 
ATOM      2  C11 <0> d          -1.715  -2.031   5.100  0.00  0.00     0.268 C 
ATOM      3  O1  <0> d          -2.161  -2.997   4.510  0.00  0.00    -0.266 OA
ATOM      4  H14 <0> d          -0.544  -0.399   4.931  0.00  0.00     0.162 HD
ENDROOT
BRANCH   1   5
ATOM      5  C10 <0> d          -0.550  -1.396   3.057  0.00  0.00     0.143 C 
BRANCH   5   6
ATOM      6  C9  <0> d           0.382  -0.281   2.577  0.00  0.00     0.145 C 
BRANCH   6   7
ATOM      7  N2  <0> d           0.731  -0.507   1.172  0.00  0.00    -0.356 N 
ATOM      8  C2  <0> d           0.002  -0.004   0.002  0.00  0.00     0.180 A 
ATOM      9  C1  <0> d          -0.019   1.526   0.010  0.00  0.00     0.055 C 
ATOM     10  N1  <0> d           0.738  -0.494  -1.170  0.00  0.00    -0.367 N 
ATOM     11  C3  <0> d           1.829  -1.237  -0.697  0.00  0.00     0.056 A 
ATOM     12  H5  <0> d           0.511  -0.335  -2.099  0.00  0.00     0.161 HD
ATOM     13  C8  <0> d           1.826  -1.244   0.695  0.00  0.00     0.058 A 
ATOM     14  C4  <0> d           2.829  -1.910  -1.388  0.00  0.00     0.031 A 
ATOM     15  C7  <0> d           2.824  -1.925   1.382  0.00  0.00     0.032 A 
ATOM     16  C6  <0> d           3.814  -2.592   0.686  0.00  0.00     0.002 A 
ATOM     17  C5  <0> d           3.817  -2.584  -0.696  0.00  0.00     0.002 A 
ENDBRANCH   6   7
ENDBRANCH   5   6
ENDBRANCH   1   5
BRANCH   2  18
ATOM     18  C12 <0> d          -2.066  -1.804   6.506  0.00  0.00     0.130 A 
ATOM     19  C14 <0> d          -2.963  -2.658   7.386  0.00  0.00     0.129 A 
ATOM     20  C13 <0> d          -2.914  -1.897   8.701  0.00  0.00     0.073 A 
ATOM     21  N5  <0> d          -2.136  -0.867   8.464  0.00  0.00    -0.153 NA
ATOM     22  N4  <0> d          -1.679  -0.819   7.274  0.00  0.00    -0.149 NA
BRANCH  20  23
ATOM     23  C15 <0> d          -3.591  -2.237   9.958  0.00  0.00    -0.009 A 
ATOM     24  C20 <0> d          -3.441  -1.416  11.083  0.00  0.00     0.013 A 
ATOM     25  C19 <0> d          -4.086  -1.739  12.258  0.00  0.00     0.001 A 
ATOM     26  C18 <0> d          -4.869  -2.878  12.331  0.00  0.00     0.000 A 
ATOM     27  C17 <0> d          -5.018  -3.699  11.226  0.00  0.00     0.001 A 
ATOM     28  C16 <0> d          -4.386  -3.387  10.042  0.00  0.00     0.013 A 
ENDBRANCH  20  23
ENDBRANCH   2  18
TORSDOF 5
