REMARK  3 active torsions:
REMARK  status: ('A' for Active; 'I' for Inactive)
REMARK    1  A    between atoms: C10_10  and  N1_11 
REMARK    2  A    between atoms: N1_11  and  S1_12 
REMARK    3  A    between atoms: S1_12  and  C11_15 
ROOT
ATOM      1  S1  <0> d          -0.233   1.770  -3.868  0.00  0.00     0.259 S 
ATOM      2  O1  <0> d           0.283   0.873  -4.841  0.00  0.00    -0.201 OA
ATOM      3  O2  <0> d          -1.520   2.361  -3.982  0.00  0.00    -0.201 OA
ENDROOT
BRANCH   1   4
ATOM      4  N1  <0> d          -0.209   0.964  -2.421  0.00  0.00    -0.306 N 
ATOM      5  H12 <0> d           0.301  -0.008  -2.356  0.00  0.00     0.173 HD
BRANCH   4   6
ATOM      6  C10 <0> d          -0.665   1.635  -1.201  0.00  0.00     0.126 C 
ATOM      7  C4  <0> d          -1.753   0.814  -0.561  0.00  0.00    -0.029 A 
ATOM      8  C3  <0> d          -2.717   0.256  -1.391  0.00  0.00     0.010 A 
ATOM      9  C5  <0> d          -1.820   0.603   0.798  0.00  0.00    -0.050 A 
ATOM     10  C2  <0> d          -3.741  -0.503  -0.865  0.00  0.00     0.001 A 
ATOM     11  C1  <0> d          -3.811  -0.711   0.500  0.00  0.00     0.001 A 
ATOM     12  C6  <0> d          -2.854  -0.160   1.326  0.00  0.00     0.007 A 
ATOM     13  C7  <0> d          -0.805   1.169   1.757  0.00  0.00     0.039 C 
ATOM     14  C8  <0> d          -0.019   2.303   1.101  0.00  0.00     0.007 C 
ATOM     15  C9  <0> d           0.515   1.802  -0.247  0.00  0.00     0.031 C 
ENDBRANCH   4   6
ENDBRANCH   1   4
BRANCH   1  16
ATOM     16  C11 <0> d           0.921   3.096  -3.745  0.00  0.00     0.080 A 
ATOM     17  C16 <0> d           0.503   4.330  -3.289  0.00  0.00     0.042 A 
ATOM     18  C15 <0> d           1.418   5.379  -3.186  0.00  0.00     0.041 A 
ATOM     19  C14 <0> d           2.748   5.167  -3.558  0.00  0.00    -0.025 A 
ATOM     20  C17 <0> d           1.280   6.778  -2.740  0.00  0.00     0.252 A 
ATOM     21  C13 <0> d           3.153   3.935  -4.017  0.00  0.00     0.011 A 
ATOM     22  C18 <0> d           3.466   6.475  -3.339  0.00  0.00     0.162 A 
ATOM     23  C12 <0> d           2.240   2.897  -4.111  0.00  0.00     0.026 A 
ATOM     24  N2  <0> d           2.461   7.414  -2.827  0.00  0.00    -0.353 N 
ATOM     25  H16 <0> d           2.747   8.449  -2.588  0.00  0.00     0.163 HD
ATOM     26  O3  <0> d           0.246   7.284  -2.350  0.00  0.00    -0.268 OA
ENDBRANCH   1  16
TORSDOF 3
