REMARK  3 active torsions:
REMARK  status: ('A' for Active; 'I' for Inactive)
REMARK    1  A    between atoms: C4_5  and  C11_19 
REMARK    2  A    between atoms: C5_7  and  N1_10 
REMARK    3  A    between atoms: C9_13  and  N3_17 
ROOT
ATOM      1  C1  <0> d          -0.397   4.545  -0.104  0.00  0.00     0.078 C 
ATOM      2  C2  <0> d           0.455   3.516  -0.850  0.00  0.00     0.158 C 
ATOM      3  O1  <0> d           1.596   3.131  -0.029  0.00  0.00    -0.345 OA
ATOM      4  C3  <0> d           1.546   1.742  -0.003  0.00  0.00     0.188 C 
ATOM      5  C4  <0> d           1.966   0.785   1.070  0.00  0.00     0.165 C 
ATOM      6  O2  <0> d           1.032  -0.326   0.983  0.00  0.00    -0.355 OA
ATOM      7  C5  <0> d           0.002  -0.004   0.002  0.00  0.00     0.264 C 
ATOM      8  C6  <0> d          -0.018   1.511   0.010  0.00  0.00     0.206 C 
ATOM      9  O3  <0> d          -0.334   2.313  -1.107  0.00  0.00    -0.344 OA
ATOM     10  C12 <0> d           0.944   4.109  -2.172  0.00  0.00     0.078 C 
ENDROOT
BRANCH   7  11
ATOM     11  N1  <0> d          -1.296  -0.542   0.418  0.00  0.00    -0.275 N 
ATOM     12  C10 <0> d          -1.734  -0.334   1.673  0.00  0.00     0.352 A 
ATOM     13  N2  <0> d          -2.912  -0.806   2.077  0.00  0.00    -0.173 NA
ATOM     14  O4  <0> d          -1.044   0.301   2.453  0.00  0.00    -0.244 OA
ATOM     15  C9  <0> d          -3.681  -1.506   1.253  0.00  0.00     0.167 A 
ATOM     16  C8  <0> d          -3.249  -1.747  -0.069  0.00  0.00     0.177 A 
ATOM     17  C7  <0> d          -2.050  -1.255  -0.467  0.00  0.00     0.144 A 
ATOM     18  F1  <0> d          -4.018  -2.456  -0.924  0.00  0.00    -0.201 F 
BRANCH  15  19
ATOM     19  N3  <0> d          -4.894  -1.993   1.684  0.00  0.00    -0.381 N 
ATOM     20  H9  <0> d          -5.228  -1.804   2.715  0.00  0.00     0.157 HD
ATOM     21  H10 <0> d          -5.529  -2.573   0.998  0.00  0.00     0.157 HD
ENDBRANCH  15  19
ENDBRANCH   7  11
BRANCH   5  22
ATOM     22  C11 <0> d           1.868   1.453   2.443  0.00  0.00     0.114 C 
ATOM     23  I1  <0> d           2.559   0.079   3.963  0.00  0.00    -0.087 I 
ENDBRANCH   5  22
TORSDOF 3
