REMARK  3 active torsions:
REMARK  status: ('A' for Active; 'I' for Inactive)
REMARK    1  A    between atoms: C4_4  and  C7_7 
REMARK    2  A    between atoms: C7_7  and  P1_8 
REMARK    3  A    between atoms: C12_16  and  O3_23 
ROOT
ATOM      1  P1  <0> d           4.260  -1.012   1.674  0.00  0.00     0.315 P 
ATOM      2  O1  <0> d           3.282  -1.870   2.380  0.00  0.00    -0.265 OA
ATOM      3  N1  <0> d           5.752  -1.716   1.680  0.00  0.00    -0.175 N 
ATOM      4  N2  <0> d           6.499  -1.632   2.836  0.00  0.00     0.018 N 
ATOM      5  C8  <0> d           7.806  -2.229   2.520  0.00  0.00     0.268 C 
ATOM      6  C9  <0> d           8.724  -2.210   3.735  0.00  0.00     0.029 C 
ATOM      7  C10 <0> d           8.105  -3.015   4.883  0.00  0.00     0.093 C 
ATOM      8  C11 <0> d           9.108  -3.014   6.019  0.00  0.00     0.182 C 
ATOM      9  C12 <0> d           9.831  -1.763   6.293  0.00  0.00     0.108 C 
ATOM     10  C13 <0> d           9.757  -0.734   5.454  0.00  0.00     0.019 C 
ATOM     11  C14 <0> d           8.930  -0.767   4.200  0.00  0.00     0.019 C 
ATOM     12  C15 <0> d           7.561  -0.144   4.481  0.00  0.00     0.046 C 
ATOM     13  C16 <0> d           6.663  -0.234   3.241  0.00  0.00     0.238 C 
ATOM     14  C17 <0> d           5.319   0.407   3.611  0.00  0.00     0.213 C 
ATOM     15  O2  <0> d           4.449   0.397   2.466  0.00  0.00    -0.316 OA
ATOM     16  O4  <0> d           9.308  -4.011   6.680  0.00  0.00    -0.290 OA
ATOM     17  H11 <0> d           6.093  -2.174   0.896  0.00  0.00     0.197 HD
ATOM     18  H22 <0> d           6.043  -2.148   3.574  0.00  0.00     0.309 HD
ENDROOT
BRANCH   1  19
ATOM     19  C7  <0> d           3.711  -0.707  -0.038  0.00  0.00     0.164 C 
BRANCH  19  20
ATOM     20  C4  <0> d           2.396   0.029  -0.020  0.00  0.00    -0.048 A 
ATOM     21  C3  <0> d           2.377   1.411  -0.013  0.00  0.00     0.007 A 
ATOM     22  C2  <0> d           1.171   2.086   0.002  0.00  0.00     0.001 A 
ATOM     23  C1  <0> d          -0.017   1.378   0.010  0.00  0.00     0.000 A 
ATOM     24  C6  <0> d           0.002  -0.004   0.002  0.00  0.00     0.001 A 
ATOM     25  C5  <0> d           1.208  -0.679  -0.012  0.00  0.00     0.007 A 
ENDBRANCH  19  20
ENDBRANCH   1  19
BRANCH   9  26
ATOM     26  O3  <0> d          10.585  -1.657   7.420  0.00  0.00    -0.357 OA
ATOM     27  H20 <0> d          10.582  -2.451   7.972  0.00  0.00     0.217 HD
ENDBRANCH   9  26
TORSDOF 3
