REMARK  4 active torsions:
REMARK  status: ('A' for Active; 'I' for Inactive)
REMARK    1  A    between atoms: C3_3  and  N3_8 
REMARK       I    between atoms: N3_8  and  C5_9 
REMARK    2  A    between atoms: C5_9  and  C6_11 
REMARK    3  A    between atoms: C6_11  and  N4_13 
REMARK       I    between atoms: N4_13  and  C8_14 
REMARK    4  A    between atoms: C8_14  and  C9_16 
ROOT
ATOM      1  C6  <0> d          -0.010  -0.794  -4.913  0.00  0.00     0.173 C 
ATOM      2  C7  <0> d           1.226   0.069  -5.175  0.00  0.00     0.042 C 
ENDROOT
BRANCH   1   3
ATOM      3  C5  <0> d           0.003  -1.269  -3.483  0.00  0.00     0.244 C 
ATOM      4  N3  <0> d          -0.004  -0.375  -2.475  0.00  0.00    -0.322 N 
ATOM      5  H7  <0> d          -0.019   0.576  -2.670  0.00  0.00     0.169 HD
ATOM      6  O1  <0> d           0.021  -2.458  -3.239  0.00  0.00    -0.271 OA
BRANCH   4   7
ATOM      7  C3  <0> d           0.008  -0.819  -1.140  0.00  0.00     0.078 A 
ATOM      8  C2  <0> d           0.002  -0.004   0.002  0.00  0.00     0.079 A 
ATOM      9  C1  <0> d          -0.018   1.503   0.010  0.00  0.00     0.075 C 
ATOM     10  N2  <0> d           0.023  -0.776   1.058  0.00  0.00    -0.178 NA
ATOM     11  N1  <0> d           0.034  -2.109   0.631  0.00  0.00    -0.287 N 
ATOM     12  C4  <0> d           0.028  -2.112  -0.727  0.00  0.00     0.141 A 
ATOM     13  H1  <0> d           0.048  -2.892   1.203  0.00  0.00     0.188 HD
ENDBRANCH   4   7
ENDBRANCH   1   3
BRANCH   1  14
ATOM     14  N4  <0> d           0.002  -1.950  -5.812  0.00  0.00    -0.344 N 
ATOM     15  C8  <0> d          -0.499  -1.840  -7.059  0.00  0.00     0.259 C 
ATOM     16  O2  <0> d          -0.961  -0.779  -7.437  0.00  0.00    -0.267 OA
ATOM     17  H11 <0> d           0.370  -2.795  -5.511  0.00  0.00     0.163 HD
BRANCH  15  18
ATOM     18  C9  <0> d          -0.487  -2.996  -7.958  0.00  0.00     0.073 A 
ATOM     19  S1  <0> d           0.122  -4.644  -7.661  0.00  0.00    -0.077 SA
ATOM     20  C12 <0> d          -0.232  -5.333  -9.151  0.00  0.00     0.052 A 
ATOM     21  C11 <0> d          -0.796  -4.321  -9.859  0.00  0.00     0.028 A 
ATOM     22 Br1  <0> d           0.088  -7.109  -9.716  0.00  0.00    -0.043 Br
ATOM     23  C10 <0> d          -0.942  -3.092  -9.265  0.00  0.00     0.026 A 
ENDBRANCH  15  18
ENDBRANCH   1  14
TORSDOF 4
