REMARK  6 active torsions:
REMARK  status: ('A' for Active; 'I' for Inactive)
REMARK    1  A    between atoms: S1_2  and  C2_5 
REMARK    2  A    between atoms: C2_5  and  C3_6 
REMARK    3  A    between atoms: C3_6  and  C4_7 
REMARK    4  A    between atoms: C4_7  and  N1_8 
REMARK    5  A    between atoms: N1_8  and  S2_9 
REMARK    6  A    between atoms: S2_9  and  C5_12 
ROOT
ATOM      1  N1  <0> d           1.828  -3.675  -3.163  0.00  0.00    -0.315 N 
ATOM      2  H10 <0> d           1.657  -4.258  -2.407  0.00  0.00     0.172 HD
ENDROOT
BRANCH   1   3
ATOM      3  C4  <0> d           1.724  -2.223  -3.006  0.00  0.00     0.133 C 
BRANCH   3   4
ATOM      4  C3  <0> d           0.986  -1.902  -1.705  0.00  0.00     0.035 C 
BRANCH   4   5
ATOM      5  C2  <0> d           0.877  -0.385  -1.541  0.00  0.00     0.141 C 
BRANCH   5   6
ATOM      6  S1  <0> d           0.002  -0.004   0.002  0.00  0.00     0.140 S 
ATOM      7  C1  <0> d          -0.022   1.810   0.012  0.00  0.00     0.161 C 
ATOM      8  O1  <0> d           0.798  -0.449   1.092  0.00  0.00    -0.228 OA
ATOM      9  O2  <0> d          -1.335  -0.471  -0.113  0.00  0.00    -0.228 OA
ENDBRANCH   5   6
ENDBRANCH   4   5
ENDBRANCH   3   4
ENDBRANCH   1   3
BRANCH   1  10
ATOM     10  S2  <0> d           2.238  -4.322  -4.631  0.00  0.00     0.266 S 
ATOM     11  O3  <0> d           2.281  -5.732  -4.456  0.00  0.00    -0.200 OA
ATOM     12  O4  <0> d           1.401  -3.700  -5.597  0.00  0.00    -0.200 OA
BRANCH  10  13
ATOM     13  C5  <0> d           3.885  -3.808  -4.986  0.00  0.00     0.140 A 
ATOM     14  S3  <0> d           4.465  -2.354  -5.845  0.00  0.00    -0.043 SA
ATOM     15  C7  <0> d           6.116  -2.658  -5.726  0.00  0.00     0.168 A 
ATOM     16  N2  <0> d           6.165  -3.797  -5.078  0.00  0.00    -0.239 NA
ATOM     17 Cl1  <0> d           7.436  -1.700  -6.322  0.00  0.00    -0.054 Cl
ATOM     18  C6  <0> d           5.064  -4.409  -4.686  0.00  0.00     0.151 A 
ENDBRANCH  10  13
ENDBRANCH   1  10
TORSDOF 6
