REMARK  5 active torsions:
REMARK  status: ('A' for Active; 'I' for Inactive)
REMARK       I    between atoms: N1_2  and  C2_3 
REMARK    1  A    between atoms: C2_3  and  C3_5 
REMARK    2  A    between atoms: C6_8  and  C9_11 
REMARK    3  A    between atoms: C9_11  and  N2_12 
REMARK    4  A    between atoms: N2_12  and  C10_13 
REMARK    5  A    between atoms: C13_17  and  C14_19 
ROOT
ATOM      1  C10 <0> d          -0.731  -8.284  -1.871  0.00  0.00     0.134 A 
ATOM      2  C11 <0> d          -1.862  -8.773  -2.530  0.00  0.00     0.012 A 
ATOM      3  C12 <0> d          -2.025 -10.139  -2.640  0.00  0.00     0.047 A 
ATOM      4  N3  <0> d          -1.107 -10.943  -2.121  0.00  0.00    -0.232 NA
ATOM      5  C13 <0> d          -0.044 -10.452  -1.502  0.00  0.00     0.162 A 
ATOM      6  N4  <0> d           0.150  -9.147  -1.379  0.00  0.00    -0.211 NA
ATOM      7  C19 <0> d          -3.306 -10.442  -3.384  0.00  0.00     0.060 C 
ATOM      8  C20 <0> d          -4.122  -9.133  -3.334  0.00  0.00     0.011 C 
ATOM      9  C21 <0> d          -3.020  -8.061  -3.189  0.00  0.00     0.045 C 
ENDROOT
BRANCH   1  10
ATOM     10  N2  <0> d          -0.530  -6.919  -1.738  0.00  0.00    -0.370 N 
ATOM     11  H11 <0> d          -1.179  -6.296  -2.100  0.00  0.00     0.161 HD
BRANCH  10  12
ATOM     12  C9  <0> d           0.663  -6.419  -1.050  0.00  0.00     0.160 C 
BRANCH  12  13
ATOM     13  C6  <0> d           0.642  -4.912  -1.042  0.00  0.00    -0.041 A 
ATOM     14  C5  <0> d           0.038  -4.237   0.004  0.00  0.00     0.010 A 
ATOM     15  C4  <0> d           0.016  -2.857   0.018  0.00  0.00     0.017 A 
ATOM     16  C3  <0> d           0.605  -2.143  -1.026  0.00  0.00     0.032 A 
ATOM     17  C8  <0> d           1.208  -2.830  -2.081  0.00  0.00     0.017 A 
ATOM     18  C7  <0> d           1.228  -4.209  -2.079  0.00  0.00     0.010 A 
BRANCH  16  19
ATOM     19  C2  <0> d           0.585  -0.664  -1.018  0.00  0.00     0.251 C 
ATOM     20  N1  <0> d           0.002  -0.004   0.002  0.00  0.00    -0.361 N 
ATOM     21  C1  <0> d          -0.018   1.461   0.010  0.00  0.00     0.149 C 
ATOM     22  H4  <0> d          -0.404  -0.499   0.731  0.00  0.00     0.162 HD
ATOM     23  O1  <0> d           1.094  -0.045  -1.931  0.00  0.00    -0.268 OA
ENDBRANCH  16  19
ENDBRANCH  12  13
ENDBRANCH  10  12
ENDBRANCH   1  10
BRANCH   5  24
ATOM     24  C14 <0> d           0.959 -11.389  -0.935  0.00  0.00     0.015 A 
ATOM     25  C18 <0> d           2.094 -10.911  -0.274  0.00  0.00     0.034 A 
ATOM     26  C17 <0> d           2.998 -11.817   0.243  0.00  0.00     0.117 A 
ATOM     27  N5  <0> d           2.807 -13.115   0.110  0.00  0.00    -0.273 NA
ATOM     28  C16 <0> d           1.752 -13.607  -0.511  0.00  0.00     0.117 A 
ATOM     29  C15 <0> d           0.796 -12.771  -1.053  0.00  0.00     0.034 A 
ENDBRANCH   5  24
TORSDOF 5
