REMARK  6 active torsions:
REMARK  status: ('A' for Active; 'I' for Inactive)
REMARK    1  A    between atoms: C4_5  and  C5_7 
REMARK    2  A    between atoms: C5_7  and  C6_8 
REMARK    3  A    between atoms: C6_8  and  C7_9 
REMARK    4  A    between atoms: C7_9  and  C8_10 
REMARK    5  A    between atoms: N3_18  and  C17_20 
REMARK    6  A    between atoms: C17_20  and  C18_21 
ROOT
ATOM      1  C1  <0> d           7.602  -1.051  -6.004  0.00  0.00     0.070 C 
ATOM      2  C2  <0> d           6.817  -1.663  -4.873  0.00  0.00     0.031 A 
ATOM      3  C3  <0> d           6.174  -2.834  -4.903  0.00  0.00     0.063 A 
ATOM      4  N1  <0> d           5.596  -3.009  -3.669  0.00  0.00    -0.335 N 
ATOM      5  C4  <0> d           5.902  -1.933  -2.929  0.00  0.00     0.084 A 
ATOM      6  N2  <0> d           6.637  -1.127  -3.652  0.00  0.00    -0.348 N 
ATOM      7  C14 <0> d           4.788  -4.179  -3.316  0.00  0.00     0.160 C 
ATOM      8  C15 <0> d           4.392  -4.897  -4.613  0.00  0.00     0.293 C 
ATOM      9  N3  <0> d           5.581  -5.105  -5.452  0.00  0.00     0.101 N 
ATOM     10  C16 <0> d           6.060  -3.834  -6.024  0.00  0.00     0.332 C 
ATOM     11  H29 <0> d           7.085  -0.152  -3.408  0.00  0.00     0.167 HD
ENDROOT
BRANCH   9  12
ATOM     12  C17 <0> d           5.313  -6.091  -6.508  0.00  0.00     0.329 C 
BRANCH  12  13
ATOM     13  C18 <0> d           5.065  -7.440  -5.885  0.00  0.00     0.041 A 
ATOM     14  N4  <0> d           6.089  -8.209  -5.598  0.00  0.00    -0.357 N 
ATOM     15  C26 <0> d           5.927  -9.413  -5.039  0.00  0.00     0.045 A 
ATOM     16  H28 <0> d           7.111  -7.867  -5.818  0.00  0.00     0.166 HD
ATOM     17  C21 <0> d           4.625  -9.890  -4.754  0.00  0.00     0.027 A 
ATOM     18  C25 <0> d           7.034 -10.224  -4.733  0.00  0.00     0.030 A 
ATOM     19  C20 <0> d           3.514  -9.074  -5.063  0.00  0.00     0.121 A 
ATOM     20  C22 <0> d           4.462 -11.157  -4.173  0.00  0.00     0.017 A 
ATOM     21  C19 <0> d           3.757  -7.838  -5.635  0.00  0.00     0.067 A 
ATOM     22  O1  <0> d           2.249  -9.489  -4.807  0.00  0.00    -0.191 OA
ATOM     23  C23 <0> d           5.558 -11.914  -3.890  0.00  0.00     0.001 A 
ATOM     24  C24 <0> d           6.840 -11.448  -4.170  0.00  0.00     0.002 A 
ENDBRANCH  12  13
ENDBRANCH   9  12
BRANCH   5  25
ATOM     25  C5  <0> d           5.478  -1.695  -1.503  0.00  0.00     0.077 C 
BRANCH  25  26
ATOM     26  C6  <0> d           4.142  -0.948  -1.486  0.00  0.00     0.012 C 
BRANCH  26  27
ATOM     27  C7  <0> d           3.711  -0.707  -0.038  0.00  0.00     0.039 C 
BRANCH  27  28
ATOM     28  C8  <0> d           2.396   0.029  -0.021  0.00  0.00    -0.058 A 
ATOM     29  C13 <0> d           2.377   1.411  -0.014  0.00  0.00     0.007 A 
ATOM     30  C12 <0> d           1.171   2.086   0.002  0.00  0.00     0.001 A 
ATOM     31  C11 <0> d          -0.017   1.378   0.010  0.00  0.00     0.000 A 
ATOM     32  C10 <0> d           0.002  -0.004   0.002  0.00  0.00     0.001 A 
ATOM     33  C9  <0> d           1.208  -0.679  -0.014  0.00  0.00     0.007 A 
ENDBRANCH  27  28
ENDBRANCH  26  27
ENDBRANCH  25  26
ENDBRANCH   5  25
TORSDOF 6
