REMARK  3 active torsions:
REMARK  status: ('A' for Active; 'I' for Inactive)
REMARK    1  A    between atoms: C5_5  and  C6_7 
REMARK    2  A    between atoms: C6_7  and  N1_8 
REMARK       I    between atoms: N1_8  and  C7_9 
REMARK       I    between atoms: C7_9  and  N2_11 
REMARK    3  A    between atoms: N2_11  and  C8_12 
ROOT
ATOM      1  N1  <0> d           1.210  -4.510  -1.412  0.00  0.00    -0.338 N 
ATOM      2  C7  <0> d           1.680  -5.747  -1.667  0.00  0.00     0.316 C 
ATOM      3  O1  <0> d           1.965  -6.491  -0.749  0.00  0.00    -0.247 OA
ATOM      4  N2  <0> d           1.834  -6.159  -2.941  0.00  0.00    -0.338 N 
ATOM      5  H9  <0> d           0.983  -3.917  -2.144  0.00  0.00     0.164 HD
ATOM      6  H10 <0> d           1.606  -5.566  -3.674  0.00  0.00     0.164 HD
ENDROOT
BRANCH   1   7
ATOM      7  C6  <0> d           1.043  -4.062  -0.027  0.00  0.00     0.170 C 
BRANCH   7   8
ATOM      8  C5  <0> d           0.507  -2.653  -0.016  0.00  0.00     0.001 A 
ATOM      9  C4  <0> d          -0.780  -2.230  -0.007  0.00  0.00     0.017 A 
ATOM     10  C3  <0> d          -1.039  -0.872   0.002  0.00  0.00     0.015 A 
ATOM     11  C2  <0> d           0.002  -0.004   0.002  0.00  0.00    -0.021 A 
ATOM     12  C1  <0> d          -0.018   1.503   0.010  0.00  0.00     0.056 C 
ATOM     13  S1  <0> d           1.404  -1.109  -0.018  0.00  0.00    -0.098 SA
ENDBRANCH   7   8
ENDBRANCH   1   7
BRANCH   4  14
ATOM     14  C8  <0> d           2.345  -7.504  -3.219  0.00  0.00     0.101 C 
ATOM     15  C11 <0> d           3.028  -7.517  -4.608  0.00  0.00     0.165 C 
ATOM     16  S2  <0> d           2.712  -9.229  -5.199  0.00  0.00     0.146 S 
ATOM     17  C10 <0> d           1.686  -9.850  -3.800  0.00  0.00     0.142 C 
ATOM     18  O2  <0> d           1.910  -9.171  -6.371  0.00  0.00    -0.228 OA
ATOM     19  O3  <0> d           3.939  -9.945  -5.225  0.00  0.00    -0.228 OA
ATOM     20  C9  <0> d           1.179  -8.507  -3.201  0.00  0.00     0.041 C 
ENDBRANCH   4  14
TORSDOF 3
