REMARK  7 active torsions:
REMARK  status: ('A' for Active; 'I' for Inactive)
REMARK    1  A    between atoms: C5_6  and  C6_7 
REMARK    2  A    between atoms: N3_9  and  C11_16 
REMARK    3  A    between atoms: N4_12  and  C8_13 
REMARK    4  A    between atoms: C11_16  and  N5_17 
REMARK    5  A    between atoms: C15_21  and  C17_23 
REMARK    6  A    between atoms: C17_23  and  C18_24 
REMARK    7  A    between atoms: C18_24  and  C19_25 
REMARK       I    between atoms: C19_25  and  N6_27 
ROOT
ATOM      1  C6  <0> d          -1.254  -0.797   0.138  0.00  0.00     0.163 A 
ATOM      2  N2  <0> d          -2.456  -0.295   0.195  0.00  0.00    -0.149 NA
ATOM      3  N3  <0> d          -3.372  -1.338   0.003  0.00  0.00    -0.216 N 
ATOM      4  C7  <0> d          -2.665  -2.473  -0.170  0.00  0.00     0.200 A 
ATOM      5  S1  <0> d          -3.311  -4.035  -0.442  0.00  0.00    -0.039 SA
ATOM      6  N4  <0> d          -1.357  -2.155  -0.094  0.00  0.00    -0.300 N 
ENDROOT
BRANCH   3   7
ATOM      7  C11 <0> d          -4.832  -1.217  -0.009  0.00  0.00     0.388 C 
BRANCH   7   8
ATOM      8  N5  <0> d          -5.263  -0.606  -1.274  0.00  0.00    -0.053 N 
ATOM      9  C16 <0> d          -6.729  -0.594  -1.335  0.00  0.00     0.241 C 
ATOM     10  C15 <0> d          -7.183  -0.033  -2.685  0.00  0.00     0.012 C 
ATOM     11  C14 <0> d          -6.652   1.395  -2.842  0.00  0.00     0.008 C 
ATOM     12  C13 <0> d          -5.127   1.381  -2.702  0.00  0.00     0.028 C 
ATOM     13  C12 <0> d          -4.750   0.767  -1.351  0.00  0.00     0.237 C 
ATOM     14  H27 <0> d          -4.899  -1.143  -2.046  0.00  0.00     0.281 HD
BRANCH  10  15
ATOM     15  C17 <0> d          -8.711  -0.020  -2.746  0.00  0.00     0.015 C 
BRANCH  15  16
ATOM     16  C18 <0> d          -9.162   0.428  -4.138  0.00  0.00     0.103 C 
BRANCH  16  17
ATOM     17  C19 <0> d         -10.668   0.441  -4.199  0.00  0.00     0.215 C 
ATOM     18  O1  <0> d         -11.316   0.123  -3.225  0.00  0.00    -0.274 OA
ATOM     19  N6  <0> d         -11.293   0.805  -5.336  0.00  0.00    -0.370 N 
ATOM     20  H25 <0> d         -10.774   1.059  -6.115  0.00  0.00     0.159 HD
ATOM     21  H26 <0> d         -12.262   0.813  -5.375  0.00  0.00     0.159 HD
ENDBRANCH  16  17
ENDBRANCH  15  16
ENDBRANCH  10  15
ENDBRANCH   7   8
ENDBRANCH   3   7
BRANCH   1  22
ATOM     22  C5  <0> d           0.007  -0.040   0.290  0.00  0.00     0.015 A 
ATOM     23  C1  <0> d           0.005   1.359   0.343  0.00  0.00     0.034 A 
ATOM     24  C2  <0> d           1.204   2.025   0.486  0.00  0.00     0.117 A 
ATOM     25  N1  <0> d           2.341   1.361   0.572  0.00  0.00    -0.273 NA
ATOM     26  C3  <0> d           2.388   0.044   0.527  0.00  0.00     0.117 A 
ATOM     27  C4  <0> d           1.236  -0.702   0.386  0.00  0.00     0.034 A 
ENDBRANCH   1  22
BRANCH   6  28
ATOM     28  C8  <0> d          -0.237  -3.090  -0.230  0.00  0.00     0.094 A 
ATOM     29  C10 <0> d           0.674  -2.928  -1.448  0.00  0.00     0.028 A 
ATOM     30  C9  <0> d          -0.300  -4.105  -1.373  0.00  0.00     0.028 A 
ENDBRANCH   6  28
TORSDOF 7
