REMARK  5 active torsions:
REMARK  status: ('A' for Active; 'I' for Inactive)
REMARK    1  A    between atoms: C8_9  and  C9_11 
REMARK    2  A    between atoms: C9_11  and  O4_13 
REMARK    3  A    between atoms: O4_13  and  C10_14 
REMARK    4  A    between atoms: C16_21  and  N2_33 
REMARK    5  A    between atoms: C18_23  and  C19_24 
ROOT
ATOM      1  C10 <0> d           6.287  -4.553  -0.117  0.00  0.00     0.082 A 
ATOM      2  C11 <0> d           7.287  -3.853  -0.778  0.00  0.00     0.038 A 
ATOM      3  C12 <0> d           8.450  -4.497  -1.150  0.00  0.00     0.014 A 
ATOM      4  C13 <0> d           8.625  -5.839  -0.866  0.00  0.00    -0.010 A 
ATOM      5  C14 <0> d           7.631  -6.543  -0.205  0.00  0.00     0.087 A 
ATOM      6  C15 <0> d           6.462  -5.895   0.175  0.00  0.00     0.075 A 
ATOM      7  O5  <0> d           7.784  -7.859   0.083  0.00  0.00    -0.292 OA
ATOM      8  C16 <0> d           9.011  -8.406   0.089  0.00  0.00     0.159 C 
ATOM      9  C17 <0> d          10.059  -7.821  -0.539  0.00  0.00     0.086 C 
ATOM     10  C18 <0> d           9.901  -6.524  -1.280  0.00  0.00     0.102 C 
ATOM     11  C25 <0> d          11.344  -8.452  -0.496  0.00  0.00     0.100 C 
ATOM     12  N1  <0> d          12.363  -8.953  -0.461  0.00  0.00    -0.191 NA
ENDROOT
BRANCH   8  13
ATOM     13  N2  <0> d           9.209  -9.591   0.752  0.00  0.00    -0.379 N 
ATOM     14  H16 <0> d           8.469 -10.022   1.206  0.00  0.00     0.158 HD
ATOM     15  H17 <0> d          10.090  -9.998   0.765  0.00  0.00     0.158 HD
ENDBRANCH   8  13
BRANCH  10  16
ATOM     16  C19 <0> d           9.862  -6.796  -2.762  0.00  0.00    -0.044 A 
ATOM     17  C24 <0> d          10.824  -6.248  -3.591  0.00  0.00     0.011 A 
ATOM     18  C23 <0> d          10.792  -6.502  -4.949  0.00  0.00     0.043 A 
ATOM     19  C22 <0> d           9.791  -7.296  -5.481  0.00  0.00     0.116 A 
ATOM     20  C21 <0> d           8.825  -7.840  -4.651  0.00  0.00     0.043 A 
ATOM     21  F1  <0> d           9.756  -7.541  -6.809  0.00  0.00    -0.206 F 
ATOM     22  C20 <0> d           8.862  -7.590  -3.292  0.00  0.00     0.011 A 
ENDBRANCH  10  16
BRANCH   1  23
ATOM     23  O4  <0> d           5.142  -3.920   0.250  0.00  0.00    -0.277 OA
BRANCH  23  24
ATOM     24  C9  <0> d           4.222  -3.681  -0.699  0.00  0.00     0.296 C 
ATOM     25  O3  <0> d           4.463  -3.944  -1.853  0.00  0.00    -0.262 OA
BRANCH  24  26
ATOM     26  C8  <0> d           2.890  -3.084  -0.325  0.00  0.00     0.253 C 
ATOM     27  C7  <0> d           2.114  -4.066   0.562  0.00  0.00     0.218 C 
ATOM     28  O1  <0> d           0.851  -3.475   0.888  0.00  0.00    -0.345 OA
ATOM     29  C5  <0> d           0.160  -2.904  -0.137  0.00  0.00     0.102 A 
ATOM     30  C4  <0> d           0.795  -2.583  -1.331  0.00  0.00     0.103 A 
ATOM     31  C6  <0> d          -1.192  -2.638   0.019  0.00  0.00     0.039 A 
ATOM     32  C3  <0> d           0.073  -1.995  -2.359  0.00  0.00     0.040 A 
ATOM     33  O2  <0> d           2.120  -2.841  -1.506  0.00  0.00    -0.331 OA
ATOM     34  C2  <0> d          -1.273  -1.730  -2.196  0.00  0.00     0.003 A 
ATOM     35  C1  <0> d          -1.905  -2.052  -1.010  0.00  0.00     0.003 A 
ENDBRANCH  24  26
ENDBRANCH  23  24
ENDBRANCH   1  23
TORSDOF 5
