REMARK  3 active torsions:
REMARK  status: ('A' for Active; 'I' for Inactive)
REMARK    1  A    between atoms: C12_12  and  N1_14 
REMARK       I    between atoms: N1_14  and  C14_15 
REMARK    2  A    between atoms: C14_15  and  C15_17 
REMARK    3  A    between atoms: N3_19  and  C19_24 
ROOT
ATOM      1  N1  <0> d          -6.788   4.153   0.087  0.00  0.00    -0.322 N 
ATOM      2  C14 <0> d          -7.303   5.393   0.200  0.00  0.00     0.272 C 
ATOM      3  O1  <0> d          -6.566   6.361   0.198  0.00  0.00    -0.266 OA
ATOM      4  H11 <0> d          -7.458   3.284   0.012  0.00  0.00     0.169 HD
ENDROOT
BRANCH   2   5
ATOM      5  C15 <0> d          -8.753   5.576   0.324  0.00  0.00     0.123 C 
ATOM      6  C18 <0> d          -9.318   6.965   0.456  0.00  0.00     0.076 C 
ATOM      7  C17 <0> d         -10.676   7.034  -0.254  0.00  0.00     0.111 C 
ATOM      8  C16 <0> d         -11.513   5.853   0.168  0.00  0.00     0.240 C 
ATOM      9  N3  <0> d         -10.919   4.674   0.439  0.00  0.00    -0.232 N 
ATOM     10  O2  <0> d         -12.716   5.964   0.264  0.00  0.00    -0.272 OA
ATOM     11  N2  <0> d          -9.531   4.538   0.325  0.00  0.00    -0.168 NA
BRANCH   9  12
ATOM     12  C19 <0> d         -11.731   3.528   0.855  0.00  0.00     0.128 C 
ATOM     13  C22 <0> d         -11.280   3.062   2.260  0.00  0.00     0.167 C 
ATOM     14  S1  <0> d         -11.589   1.250   2.204  0.00  0.00     0.146 S 
ATOM     15  C21 <0> d         -12.166   1.093   0.461  0.00  0.00     0.142 C 
ATOM     16  O3  <0> d         -10.352   0.565   2.345  0.00  0.00    -0.228 OA
ATOM     17  O4  <0> d         -12.665   0.938   3.077  0.00  0.00    -0.228 OA
ATOM     18  C20 <0> d         -11.557   2.385  -0.158  0.00  0.00     0.043 C 
ENDBRANCH   9  12
ENDBRANCH   2   5
BRANCH   1  19
ATOM     19  C12 <0> d          -5.403   3.971   0.065  0.00  0.00     0.035 A 
ATOM     20  C11 <0> d          -4.839   2.847   0.658  0.00  0.00     0.030 A 
ATOM     21  C10 <0> d          -3.474   2.665   0.639  0.00  0.00     0.015 A 
ATOM     22  C9  <0> d          -2.650   3.611   0.023  0.00  0.00    -0.019 A 
ATOM     23  C4  <0> d          -1.177   3.663  -0.139  0.00  0.00    -0.019 A 
ATOM     24  C8  <0> d          -3.221   4.735  -0.568  0.00  0.00    -0.041 A 
ATOM     25  C3  <0> d          -0.174   2.783   0.275  0.00  0.00     0.013 A 
ATOM     26  C5  <0> d          -0.826   4.821  -0.827  0.00  0.00    -0.043 A 
ATOM     27  C2  <0> d           1.147   3.063  -0.004  0.00  0.00     0.001 A 
ATOM     28  C1  <0> d           1.485   4.214  -0.693  0.00  0.00     0.001 A 
ATOM     29  C6  <0> d           0.497   5.090  -1.106  0.00  0.00     0.008 A 
ATOM     30  C7  <0> d          -2.100   5.565  -1.144  0.00  0.00     0.078 A 
ATOM     31  C13 <0> d          -4.587   4.915  -0.548  0.00  0.00     0.038 A 
ENDBRANCH   1  19
TORSDOF 3
