REMARK  8 active torsions:
REMARK  status: ('A' for Active; 'I' for Inactive)
REMARK    1  A    between atoms: O1_2  and  C2_3 
REMARK    2  A    between atoms: C2_3  and  C3_4 
REMARK    3  A    between atoms: C3_4  and  O2_5 
REMARK    4  A    between atoms: O2_5  and  C4_6 
REMARK    5  A    between atoms: C13_15  and  C14_16 
REMARK    6  A    between atoms: C14_16  and  N1_17 
REMARK    7  A    between atoms: C18_21  and  C20_23 
REMARK       I    between atoms: C20_23  and  N2_25 
REMARK    8  A    between atoms: N2_25  and  N3_26 
ROOT
ATOM      1  C4  <0> d          -0.953  -3.885  -1.046  0.00  0.00     0.077 A 
ATOM      2  C5  <0> d           0.137  -4.749  -0.899  0.00  0.00     0.038 A 
ATOM      3  C6  <0> d          -0.043  -6.095  -0.825  0.00  0.00     0.015 A 
ATOM      4  C7  <0> d          -1.341  -6.630  -0.896  0.00  0.00    -0.025 A 
ATOM      5  C8  <0> d          -1.563  -8.015  -0.822  0.00  0.00     0.012 A 
ATOM      6  C9  <0> d          -2.833  -8.499  -0.893  0.00  0.00     0.001 A 
ATOM      7  C10 <0> d          -3.921  -7.640  -1.039  0.00  0.00     0.001 A 
ATOM      8  C11 <0> d          -3.745  -6.293  -1.115  0.00  0.00     0.013 A 
ATOM      9  C12 <0> d          -2.448  -5.756  -1.044  0.00  0.00    -0.015 A 
ATOM     10  C13 <0> d          -2.228  -4.371  -1.113  0.00  0.00     0.012 A 
ENDROOT
BRANCH  10  11
ATOM     11  C14 <0> d          -3.392  -3.425  -1.265  0.00  0.00     0.277 C 
BRANCH  11  12
ATOM     12  N1  <0> d          -3.663  -3.208  -2.692  0.00  0.00    -0.066 N 
ATOM     13  C19 <0> d          -4.717  -2.197  -2.840  0.00  0.00     0.249 C 
ATOM     14  C18 <0> d          -4.947  -1.909  -4.325  0.00  0.00     0.105 C 
ATOM     15  C17 <0> d          -5.373  -3.199  -5.031  0.00  0.00     0.017 C 
ATOM     16  C16 <0> d          -4.301  -4.269  -4.807  0.00  0.00     0.029 C 
ATOM     17  C15 <0> d          -4.095  -4.471  -3.304  0.00  0.00     0.235 C 
ATOM     18  H28 <0> d          -2.823  -2.886  -3.148  0.00  0.00     0.280 HD
BRANCH  14  19
ATOM     19  C20 <0> d          -6.030  -0.872  -4.475  0.00  0.00     0.237 C 
ATOM     20  O3  <0> d          -6.564  -0.406  -3.491  0.00  0.00    -0.272 OA
ATOM     21  N2  <0> d          -6.406  -0.462  -5.703  0.00  0.00    -0.294 N 
ATOM     22  H25 <0> d          -5.979  -0.835  -6.490  0.00  0.00     0.183 HD
BRANCH  21  23
ATOM     23  N3  <0> d          -7.388   0.477  -5.839  0.00  0.00    -0.247 NA
ATOM     24  H26 <0> d          -7.159   1.316  -5.328  0.00  0.00     0.143 HD
ATOM     25  H27 <0> d          -7.560   0.682  -6.812  0.00  0.00     0.143 HD
ENDBRANCH  21  23
ENDBRANCH  14  19
ENDBRANCH  11  12
ENDBRANCH  10  11
BRANCH   1  26
ATOM     26  O2  <0> d          -0.742  -2.545  -1.117  0.00  0.00    -0.348 OA
BRANCH  26  27
ATOM     27  C3  <0> d           0.613  -2.097  -1.041  0.00  0.00     0.201 C 
BRANCH  27  28
ATOM     28  C2  <0> d           0.652  -0.570  -1.138  0.00  0.00     0.193 C 
BRANCH  28  29
ATOM     29  O1  <0> d           0.002  -0.004   0.002  0.00  0.00    -0.394 OA
ATOM     30  C1  <0> d          -0.017   1.425   0.010  0.00  0.00     0.201 C 
ENDBRANCH  28  29
ENDBRANCH  27  28
ENDBRANCH  26  27
ENDBRANCH   1  26
TORSDOF 8
