REMARK  3 active torsions:
REMARK  status: ('A' for Active; 'I' for Inactive)
REMARK    1  A    between atoms: C6_6  and  C7_7 
REMARK    2  A    between atoms: C7_7  and  C8_8 
REMARK    3  A    between atoms: C7_7  and  O2_13 
ROOT
ATOM      1  C1  <0> d          -0.017   1.379   0.010  0.00  0.00     0.012 A 
ATOM      2  C2  <0> d           1.169   2.072   0.002  0.00  0.00     0.031 A 
ATOM      3  C3  <0> d           2.408   1.409  -0.018  0.00  0.00     0.041 A 
ATOM      4  C4  <0> d           2.420   0.030  -0.030  0.00  0.00    -0.031 A 
ATOM      5  C5  <0> d           1.210  -0.664  -0.016  0.00  0.00     0.019 A 
ATOM      6  C6  <0> d           0.002  -0.004   0.002  0.00  0.00    -0.029 A 
ATOM      7  C12 <0> d           3.648  -0.820  -0.064  0.00  0.00     0.041 C 
ATOM      8  C13 <0> d           4.790  -0.281  -0.868  0.00  0.00     0.014 C 
ATOM      9  C14 <0> d           5.556   0.814  -0.165  0.00  0.00     0.103 C 
ATOM     10  C15 <0> d           4.796   2.091  -0.133  0.00  0.00     0.222 C 
ATOM     11  O3  <0> d           5.446   3.109  -0.237  0.00  0.00    -0.273 OA
ATOM     12  N1  <0> d           3.507   2.235  -0.006  0.00  0.00    -0.327 N 
ATOM     13  H19 <0> d           3.260   3.163   0.131  0.00  0.00     0.169 HD
ENDROOT
BRANCH   6  14
ATOM     14  C7  <0> d          -1.289  -0.782   0.014  0.00  0.00     0.157 C 
BRANCH  14  15
ATOM     15  C8  <0> d          -1.837  -0.838   1.442  0.00  0.00     0.045 C 
ATOM     16  C11 <0> d          -2.296   0.560   1.899  0.00  0.00     0.175 C 
ATOM     17  O1  <0> d          -3.716   0.487   2.129  0.00  0.00    -0.391 OA
ATOM     18  C10 <0> d          -4.018  -0.885   2.463  0.00  0.00     0.168 C 
ATOM     19  C9  <0> d          -3.122  -1.699   1.495  0.00  0.00     0.036 C 
ENDBRANCH  14  15
BRANCH  14  20
ATOM     20  O2  <0> d          -2.240  -0.139  -0.836  0.00  0.00    -0.390 OA
ATOM     21  H12 <0> d          -2.451   0.768  -0.576  0.00  0.00     0.210 HD
ENDBRANCH  14  20
ENDBRANCH   6  14
TORSDOF 3
