REMARK  5 active torsions:
REMARK  status: ('A' for Active; 'I' for Inactive)
REMARK    1  A    between atoms: N1_6  and  C6_7 
REMARK    2  A    between atoms: C9_10  and  C12_13 
REMARK    3  A    between atoms: C16_17  and  C17_18 
REMARK    4  A    between atoms: C18_19  and  N2_20 
REMARK    5  A    between atoms: C22_29  and  C23_30 
REMARK       I    between atoms: C23_30  and  N6_32 
ROOT
ATOM      1  C17 <0> d           0.615  -3.268  -2.750  0.00  0.00     0.082 C 
ATOM      2  C18 <0> d           1.238  -2.036  -3.308  0.00  0.00     0.160 C 
ATOM      3  N3  <0> d           1.003  -1.868  -4.688  0.00  0.00    -0.212 N 
ATOM      4  C19 <0> d           0.737  -3.000  -5.433  0.00  0.00     0.199 A 
ATOM      5  N4  <0> d           0.549  -4.213  -4.989  0.00  0.00    -0.182 NA
ATOM      6  C20 <0> d           0.549  -4.440  -3.655  0.00  0.00     0.283 C 
ATOM      7  O1  <0> d           0.493  -5.574  -3.209  0.00  0.00    -0.265 OA
ATOM      8  S1  <0> d           0.708  -2.390  -7.098  0.00  0.00    -0.031 SA
ATOM      9  C21 <0> d           0.928  -0.655  -6.731  0.00  0.00     0.098 A 
ATOM     10  N5  <0> d           1.027  -0.661  -5.357  0.00  0.00    -0.283 N 
ATOM     11  C22 <0> d           0.985   0.403  -7.590  0.00  0.00     0.113 C 
ATOM     12  H22 <0> d           1.112   0.171  -4.866  0.00  0.00     0.188 HD
ENDROOT
BRANCH   1  13
ATOM     13  C16 <0> d           0.129  -3.318  -1.459  0.00  0.00     0.034 C 
ATOM     14  C4  <0> d           0.050  -2.132  -0.685  0.00  0.00    -0.011 A 
ATOM     15  C3  <0> d          -0.069  -0.754  -1.185  0.00  0.00     0.038 A 
ATOM     16  C5  <0> d           0.070  -2.033   0.697  0.00  0.00     0.023 A 
ATOM     17  C2  <0> d          -0.111   0.040  -0.103  0.00  0.00     0.014 A 
ATOM     18  C1  <0> d          -0.231   1.542  -0.127  0.00  0.00     0.068 C 
ATOM     19  N1  <0> d          -0.021  -0.729   1.025  0.00  0.00    -0.319 N 
ATOM     20  C15 <0> d           0.180  -3.183   1.664  0.00  0.00     0.069 C 
BRANCH  19  21
ATOM     21  C6  <0> d          -0.027  -0.232   2.335  0.00  0.00     0.039 A 
ATOM     22  C11 <0> d          -1.158   0.402   2.833  0.00  0.00     0.030 A 
ATOM     23  C10 <0> d          -1.163   0.885   4.127  0.00  0.00     0.010 A 
ATOM     24  C9  <0> d          -0.039   0.749   4.922  0.00  0.00    -0.055 A 
ATOM     25  C8  <0> d           1.090   0.123   4.426  0.00  0.00     0.010 A 
ATOM     26  C7  <0> d           1.099  -0.367   3.135  0.00  0.00     0.030 A 
BRANCH  24  27
ATOM     27  C12 <0> d          -0.045   1.283   6.331  0.00  0.00     0.010 C 
ATOM     28  C13 <0> d          -0.299   2.792   6.303  0.00  0.00     0.015 C 
ATOM     29  C14 <0> d          -1.152   0.595   7.132  0.00  0.00     0.015 C 
ENDBRANCH  24  27
ENDBRANCH  19  21
ENDBRANCH   1  13
BRANCH   2  30
ATOM     30  N2  <0> d           1.935  -1.194  -2.590  0.00  0.00    -0.281 NA
ATOM     31  H20 <0> d           2.259  -0.371  -2.987  0.00  0.00     0.188 HD
ENDBRANCH   2  30
BRANCH  11  32
ATOM     32  C23 <0> d           1.167   1.703  -7.092  0.00  0.00     0.246 C 
ATOM     33  O2  <0> d           1.171   1.900  -5.889  0.00  0.00    -0.268 OA
ATOM     34  N6  <0> d           1.337   2.733  -7.944  0.00  0.00    -0.345 N 
ATOM     35  C27 <0> d           1.228   2.540  -9.399  0.00  0.00     0.152 C 
ATOM     36  C24 <0> d           1.643   4.084  -7.447  0.00  0.00     0.152 C 
ATOM     37  C26 <0> d           2.462   3.147 -10.065  0.00  0.00     0.187 C 
ATOM     38  O3  <0> d           2.629   4.493  -9.614  0.00  0.00    -0.388 OA
ATOM     39  C25 <0> d           2.862   4.615  -8.209  0.00  0.00     0.187 C 
ENDBRANCH  11  32
TORSDOF 5
