REMARK  6 active torsions:
REMARK  status: ('A' for Active; 'I' for Inactive)
REMARK    1  A    between atoms: C4_4  and  C7_7 
REMARK    2  A    between atoms: C7_7  and  N1_8 
REMARK    3  A    between atoms: C9_11  and  N4_13 
REMARK       I    between atoms: N4_13  and  C10_14 
REMARK       I    between atoms: C10_14  and  N5_16 
REMARK    4  A    between atoms: N5_16  and  C11_17 
REMARK    5  A    between atoms: C11_17  and  C12_18 
REMARK    6  A    between atoms: C12_18  and  O2_28 
ROOT
ATOM      1  N4  <0> d           4.512  -0.116   4.855  0.00  0.00    -0.136 N 
ATOM      2  C10 <0> d           5.055  -0.874   5.828  0.00  0.00     0.334 C 
ATOM      3  O1  <0> d           5.095  -2.083   5.707  0.00  0.00    -0.247 OA
ATOM      4  N5  <0> d           5.555  -0.291   6.936  0.00  0.00    -0.339 N 
ATOM      5  H9  <0> d           4.481   0.848   4.952  0.00  0.00     0.189 HD
ATOM      6  H10 <0> d           5.524   0.673   7.033  0.00  0.00     0.164 HD
ENDROOT
BRANCH   1   7
ATOM      7  C9  <0> d           3.993  -0.721   3.705  0.00  0.00     0.748 A 
ATOM      8  N2  <0> d           3.978  -2.034   3.456  0.00  0.00    -0.055 NA
ATOM      9  C8  <0> d           3.421  -2.258   2.293  0.00  0.00     0.249 A 
ATOM     10  N1  <0> d           3.063  -1.075   1.765  0.00  0.00    -0.243 N 
ATOM     11  N3  <0> d           3.447  -0.092   2.692  0.00  0.00     0.022 NA
BRANCH  10  12
ATOM     12  C7  <0> d           2.407  -0.854   0.474  0.00  0.00     0.191 C 
BRANCH  12  13
ATOM     13  C4  <0> d           1.147  -0.054   0.681  0.00  0.00    -0.038 A 
ATOM     14  C3  <0> d           1.189   1.327   0.634  0.00  0.00     0.009 A 
ATOM     15  C2  <0> d           0.033   2.061   0.824  0.00  0.00     0.001 A 
ATOM     16  C1  <0> d          -1.166   1.414   1.059  0.00  0.00     0.000 A 
ATOM     17  C6  <0> d          -1.208   0.033   1.105  0.00  0.00     0.001 A 
ATOM     18  C5  <0> d          -0.052  -0.701   0.918  0.00  0.00     0.009 A 
ENDBRANCH  12  13
ENDBRANCH  10  12
ENDBRANCH   1   7
BRANCH   4  19
ATOM     19  C11 <0> d           6.146  -1.115   7.994  0.00  0.00     0.167 C 
BRANCH  19  20
ATOM     20  C12 <0> d           6.510  -0.228   9.187  0.00  0.00     0.101 C 
ATOM     21  C17 <0> d           7.082  -1.085  10.286  0.00  0.00    -0.016 A 
ATOM     22  C16 <0> d           6.751  -0.909  11.611  0.00  0.00    -0.049 A 
ATOM     23  C18 <0> d           7.977  -2.084   9.927  0.00  0.00     0.011 A 
ATOM     24  C15 <0> d           5.783   0.149  12.071  0.00  0.00     0.039 C 
ATOM     25  C21 <0> d           7.320  -1.730  12.576  0.00  0.00     0.007 A 
ATOM     26  C14 <0> d           5.593   1.210  10.990  0.00  0.00     0.008 C 
ATOM     27  C13 <0> d           5.260   0.503   9.671  0.00  0.00     0.045 C 
ATOM     28  C20 <0> d           8.211  -2.720  12.218  0.00  0.00     0.001 A 
ATOM     29  C19 <0> d           8.540  -2.899  10.888  0.00  0.00     0.001 A 
BRANCH  20  30
ATOM     30  O2  <0> d           7.488   0.731   8.780  0.00  0.00    -0.383 OA
ATOM     31  H23 <0> d           8.309   0.340   8.450  0.00  0.00     0.211 HD
ENDBRANCH  20  30
ENDBRANCH  19  20
ENDBRANCH   4  19
TORSDOF 6
