REMARK  6 active torsions:
REMARK  status: ('A' for Active; 'I' for Inactive)
REMARK    1  A    between atoms: C5_5  and  N1_8 
REMARK       I    between atoms: N1_8  and  C8_9 
REMARK    2  A    between atoms: C8_9  and  C9_11 
REMARK       I    between atoms: C9_11  and  N2_13 
REMARK    3  A    between atoms: N2_13  and  C10_14 
REMARK    4  A    between atoms: C10_14  and  C11_15 
REMARK    5  A    between atoms: C11_15  and  C12_16 
REMARK    6  A    between atoms: C11_15  and  N3_21 
ROOT
ATOM      1  C9  <0> d           0.654  -6.334   1.112  0.00  0.00     0.309 C 
ATOM      2  O2  <0> d           0.672  -6.934   0.057  0.00  0.00    -0.262 OA
ATOM      3  N2  <0> d           0.647  -7.016   2.275  0.00  0.00    -0.351 N 
ATOM      4  H10 <0> d           0.633  -6.536   3.118  0.00  0.00     0.162 HD
ENDROOT
BRANCH   3   5
ATOM      5  C10 <0> d           0.662  -8.480   2.266  0.00  0.00     0.161 C 
BRANCH   5   6
ATOM      6  C11 <0> d           0.544  -9.001   3.700  0.00  0.00     0.245 C 
BRANCH   6   7
ATOM      7  C12 <0> d           1.768  -8.600   4.482  0.00  0.00     0.015 A 
ATOM      8  S1  <0> d           3.387  -9.352   4.500  0.00  0.00    -0.104 SA
ATOM      9  C15 <0> d           4.165  -8.248   5.668  0.00  0.00     0.050 A 
ATOM     10  C14 <0> d           3.153  -7.397   5.966  0.00  0.00     0.008 A 
ATOM     11  C13 <0> d           1.924  -7.578   5.359  0.00  0.00     0.017 A 
ENDBRANCH   6   7
BRANCH   6  12
ATOM     12  N3  <0> d           0.433 -10.465   3.682  0.00  0.00    -0.061 N 
ATOM     13  C19 <0> d           0.303 -10.970   5.061  0.00  0.00     0.236 C 
ATOM     14  C18 <0> d          -1.034 -11.736   5.143  0.00  0.00     0.029 C 
ATOM     15  C17 <0> d          -1.316 -12.108   3.663  0.00  0.00     0.029 C 
ATOM     16  C16 <0> d          -0.769 -10.864   2.919  0.00  0.00     0.236 C 
ATOM     17  H24 <0> d           1.254 -10.864   3.251  0.00  0.00     0.280 HD
ENDBRANCH   6  12
ENDBRANCH   5   6
ENDBRANCH   3   5
BRANCH   1  18
ATOM     18  C8  <0> d           0.638  -4.841   1.121  0.00  0.00     0.313 C 
ATOM     19  N1  <0> d           0.645  -4.160  -0.041  0.00  0.00    -0.319 N 
ATOM     20  H9  <0> d           0.588  -4.637  -0.884  0.00  0.00     0.169 HD
ATOM     21  O1  <0> d           0.620  -4.241   2.176  0.00  0.00    -0.262 OA
BRANCH  19  22
ATOM     22  C5  <0> d           0.733  -2.765  -0.034  0.00  0.00     0.035 A 
ATOM     23  C4  <0> d           0.086  -2.021  -1.013  0.00  0.00     0.030 A 
ATOM     24  C3  <0> d           0.176  -0.643  -1.002  0.00  0.00     0.009 A 
ATOM     25  C2  <0> d           0.907  -0.004  -0.018  0.00  0.00    -0.062 A 
ATOM     26  C1  <0> d           1.002   1.500  -0.009  0.00  0.00     0.048 C 
ATOM     27  C7  <0> d           1.556  -0.741   0.955  0.00  0.00     0.009 A 
ATOM     28  C6  <0> d           1.467  -2.120   0.953  0.00  0.00     0.030 A 
ENDBRANCH  19  22
ENDBRANCH   1  18
TORSDOF 6
