REMARK  6 active torsions:
REMARK  status: ('A' for Active; 'I' for Inactive)
REMARK    1  A    between atoms: C2_2  and  C3_3 
REMARK    2  A    between atoms: C2_2  and  O3_11 
REMARK       I    between atoms: C3_3  and  N1_5 
REMARK    3  A    between atoms: O3_11  and  C7_12 
REMARK    4  A    between atoms: C7_12  and  C8_14 
REMARK    5  A    between atoms: C8_14  and  C9_15 
REMARK    6  A    between atoms: C9_15  and  N3_16 
ROOT
ATOM      1  C7  <0> d          -1.601   0.578  -1.695  0.00  0.00     0.261 C 
ATOM      2  O4  <0> d          -1.902  -0.392  -1.041  0.00  0.00    -0.265 OA
ENDROOT
BRANCH   1   3
ATOM      3  O3  <0> d          -0.642   1.409  -1.259  0.00  0.00    -0.307 OA
BRANCH   3   4
ATOM      4  C2  <0> d          -0.010   1.082   0.006  0.00  0.00     0.220 C 
ATOM      5  C1  <0> d          -0.781   1.746   1.149  0.00  0.00     0.050 C 
BRANCH   4   6
ATOM      6  C3  <0> d           1.412   1.582   0.003  0.00  0.00     0.257 C 
ATOM      7  O1  <0> d           1.802   2.292  -0.899  0.00  0.00    -0.270 OA
ATOM      8  N1  <0> d           2.249   1.239   1.001  0.00  0.00    -0.266 N 
ATOM      9  C6  <0> d           3.503   1.687   1.151  0.00  0.00     0.325 A 
ATOM     10  C4  <0> d           1.935   0.308   2.095  0.00  0.00     0.156 A 
ATOM     11  N2  <0> d           4.129   1.198   2.230  0.00  0.00    -0.341 N 
ATOM     12  O2  <0> d           4.024   2.469   0.381  0.00  0.00    -0.247 OA
ATOM     13  C5  <0> d           3.224   0.280   2.939  0.00  0.00     0.145 A 
ATOM     14  H9  <0> d           5.142   1.380   2.618  0.00  0.00     0.164 HD
ENDBRANCH   4   6
ENDBRANCH   3   4
ENDBRANCH   1   3
BRANCH   1  15
ATOM     15  C8  <0> d          -2.301   0.854  -3.001  0.00  0.00     0.131 C 
BRANCH  15  16
ATOM     16  C9  <0> d          -3.341  -0.238  -3.262  0.00  0.00     0.143 C 
BRANCH  16  17
ATOM     17  N3  <0> d          -4.022   0.031  -4.531  0.00  0.00    -0.307 N 
ATOM     18  C13 <0> d          -3.521  -0.483  -5.670  0.00  0.00     0.261 A 
ATOM     19  C12 <0> d          -4.194  -0.215  -6.907  0.00  0.00     0.068 A 
ATOM     20  O5  <0> d          -2.510  -1.164  -5.649  0.00  0.00    -0.267 OA
ATOM     21  C11 <0> d          -5.349   0.582  -6.810  0.00  0.00     0.114 A 
ATOM     22  C14 <0> d          -3.857  -0.648  -8.250  0.00  0.00     0.027 A 
ATOM     23  N4  <0> d          -5.783   1.053  -5.645  0.00  0.00    -0.235 NA
ATOM     24  S1  <0> d          -5.907   0.704  -8.490  0.00  0.00    -0.081 SA
ATOM     25  C10 <0> d          -5.150   0.787  -4.534  0.00  0.00     0.213 A 
ATOM     26  C15 <0> d          -4.640  -0.274  -9.274  0.00  0.00     0.053 A 
ENDBRANCH  16  17
ENDBRANCH  15  16
ENDBRANCH   1  15
TORSDOF 6
