REMARK  6 active torsions:
REMARK  status: ('A' for Active; 'I' for Inactive)
REMARK    1  A    between atoms: N1_6  and  C7_8 
REMARK    2  A    between atoms: C7_8  and  C8_9 
REMARK    3  A    between atoms: C8_9  and  N2_10 
REMARK    4  A    between atoms: N2_10  and  C9_11 
REMARK    5  A    between atoms: C9_11  and  C10_12 
REMARK    6  A    between atoms: C12_16  and  C13_17 
ROOT
ATOM      1  N2  <0> d           1.211  -2.552   4.900  0.00  0.00     0.089 N 
ATOM      2  H16 <0> d           1.366  -3.549   4.858  0.00  0.00     0.316 HD
ENDROOT
BRANCH   1   3
ATOM      3  C8  <0> d           0.566  -2.069   3.672  0.00  0.00     0.297 C 
BRANCH   3   4
ATOM      4  C7  <0> d           1.413  -2.463   2.461  0.00  0.00     0.264 C 
BRANCH   4   5
ATOM      5  N1  <0> d           0.768  -1.979   1.233  0.00  0.00    -0.069 N 
ATOM      6  C5  <0> d           1.518  -2.460   0.066  0.00  0.00     0.239 C 
ATOM      7  C4  <0> d           0.805  -2.027  -1.217  0.00  0.00     0.008 C 
ATOM      8  C3  <0> d           0.721  -0.499  -1.257  0.00  0.00     0.011 C 
ATOM      9  C19 <0> d          -0.606  -2.618  -1.242  0.00  0.00     0.011 C 
ATOM     10  C2  <0> d           0.002  -0.004   0.002  0.00  0.00     0.008 C 
ATOM     11  C1  <0> d          -0.019   1.526   0.010  0.00  0.00     0.011 C 
ATOM     12  C6  <0> d           0.744  -0.512   1.240  0.00  0.00     0.239 C 
ATOM     13  H30 <0> d          -0.177  -2.330   1.192  0.00  0.00     0.280 HD
ENDBRANCH   4   5
ENDBRANCH   3   4
ENDBRANCH   1   3
BRANCH   1  14
ATOM     14  C9  <0> d           0.423  -2.191   6.086  0.00  0.00     0.312 C 
BRANCH  14  15
ATOM     15  C10 <0> d           1.114  -2.703   7.323  0.00  0.00     0.018 A 
ATOM     16  C12 <0> d           2.206  -2.095   7.975  0.00  0.00     0.097 A 
ATOM     17  N4  <0> d           2.521  -2.838   9.015  0.00  0.00    -0.172 NA
ATOM     18  N3  <0> d           1.651  -3.936   9.046  0.00  0.00    -0.284 N 
ATOM     19  C11 <0> d           0.802  -3.828   8.001  0.00  0.00     0.123 A 
ATOM     20  C18 <0> d           1.660  -5.012  10.039  0.00  0.00     0.179 C 
BRANCH  16  21
ATOM     21  C13 <0> d           2.878  -0.838   7.564  0.00  0.00    -0.002 A 
ATOM     22  C17 <0> d           3.386   0.049   8.517  0.00  0.00     0.033 A 
ATOM     23  C16 <0> d           4.009   1.204   8.092  0.00  0.00     0.117 A 
ATOM     24  N5  <0> d           4.118   1.480   6.806  0.00  0.00    -0.273 NA
ATOM     25  C15 <0> d           3.648   0.673   5.875  0.00  0.00     0.117 A 
ATOM     26  C14 <0> d           3.016  -0.506   6.213  0.00  0.00     0.033 A 
ENDBRANCH  16  21
ENDBRANCH  14  15
ENDBRANCH   1  14
TORSDOF 6
