REMARK  3 active torsions:
REMARK  status: ('A' for Active; 'I' for Inactive)
REMARK    1  A    between atoms: C2_2  and  C9_16 
REMARK    2  A    between atoms: C3_4  and  N2_6 
REMARK       I    between atoms: N2_6  and  C4_7 
REMARK    3  A    between atoms: C4_7  and  C5_9 
ROOT
ATOM      1  N2  <0> d          -0.011   0.966   0.007  0.00  0.00    -0.305 N 
ATOM      2  C4  <0> d          -1.187   1.624   0.017  0.00  0.00     0.228 C 
ATOM      3  O1  <0> d          -1.204   2.837   0.023  0.00  0.00    -0.273 OA
ATOM      4  H3  <0> d           0.004  -0.134   0.006  0.00  0.00     0.171 HD
ENDROOT
BRANCH   1   5
ATOM      5  C3  <0> d           1.183   1.677  -0.000  0.00  0.00     0.173 A 
ATOM      6  N1  <0> d           2.420   1.220  -0.015  0.00  0.00    -0.219 NA
ATOM      7  C2  <0> d           3.452   2.041  -0.020  0.00  0.00     0.149 A 
ATOM      8  C1  <0> d           3.216   3.375  -0.011  0.00  0.00     0.089 A 
ATOM      9  S1  <0> d           1.429   3.396  -0.001  0.00  0.00    -0.061 SA
BRANCH   7  10
ATOM     10  C9  <0> d           4.861   1.507  -0.037  0.00  0.00     0.435 C 
ATOM     11  F1  <0> d           4.831   0.114  -0.159  0.00  0.00    -0.165 F 
ATOM     12  F2  <0> d           5.554   2.055  -1.121  0.00  0.00    -0.165 F 
ATOM     13  F3  <0> d           5.507   1.857   1.154  0.00  0.00    -0.165 F 
ENDBRANCH   7  10
ENDBRANCH   1   5
BRANCH   2  14
ATOM     14  C5  <0> d          -2.482   0.853   0.018  0.00  0.00     0.093 C 
ATOM     15  C8  <0> d          -3.671   1.844   0.006  0.00  0.00     0.154 C 
ATOM     16  S2  <0> d          -4.961   0.939   0.954  0.00  0.00     0.145 S 
ATOM     17  C7  <0> d          -4.002  -0.565   1.415  0.00  0.00     0.141 C 
ATOM     18  O2  <0> d          -5.268   1.671   2.133  0.00  0.00    -0.228 OA
ATOM     19  O3  <0> d          -6.009   0.567   0.070  0.00  0.00    -0.228 OA
ATOM     20  C6  <0> d          -2.549  -0.029   1.276  0.00  0.00     0.030 C 
ENDBRANCH   2  14
TORSDOF 3
