REMARK  6 active torsions:
REMARK  status: ('A' for Active; 'I' for Inactive)
REMARK    1  A    between atoms: C7_7  and  N1_8 
REMARK    2  A    between atoms: N1_8  and  C8_9 
REMARK    3  A    between atoms: C9_11  and  C11_16 
REMARK    4  A    between atoms: C10_13  and  N5_15 
REMARK    5  A    between atoms: C11_16  and  N7_32 
REMARK       I    between atoms: N6_19  and  C16_22 
REMARK    6  A    between atoms: C16_22  and  C17_24 
ROOT
ATOM      1  C8  <0> d          -0.308  -2.749  -1.323  0.00  0.00     0.744 A 
ATOM      2  N2  <0> d          -0.336  -1.420  -1.253  0.00  0.00    -0.044 NA
ATOM      3  C9  <0> d           0.566  -0.776  -0.534  0.00  0.00     0.190 A 
ATOM      4  N3  <0> d           1.502  -1.448   0.115  0.00  0.00    -0.045 NA
ATOM      5  C10 <0> d           1.532  -2.777   0.055  0.00  0.00     0.737 A 
ATOM      6  N4  <0> d           0.627  -3.428  -0.668  0.00  0.00     0.130 NA
ENDROOT
BRANCH   3   7
ATOM      7  C11 <0> d           0.532   0.728  -0.457  0.00  0.00     0.316 C 
BRANCH   7   8
ATOM      8  N7  <0> d          -0.298   1.127   0.698  0.00  0.00    -0.061 N 
ATOM      9  C12 <0> d          -1.711   0.764   0.454  0.00  0.00     0.255 C 
ATOM     10  C13 <0> d          -2.519   1.048   1.725  0.00  0.00     0.154 C 
ATOM     11  N6  <0> d          -2.306   2.451   2.110  0.00  0.00    -0.343 N 
ATOM     12  C14 <0> d          -0.924   2.941   2.217  0.00  0.00     0.154 C 
ATOM     13  C16 <0> d          -3.350   3.266   2.358  0.00  0.00     0.277 C 
ATOM     14  C15 <0> d          -0.179   2.583   0.927  0.00  0.00     0.255 C 
ATOM     15  O1  <0> d          -3.163   4.451   2.562  0.00  0.00    -0.265 OA
ATOM     16  H24 <0> d           0.033   0.631   1.534  0.00  0.00     0.280 HD
BRANCH  13  17
ATOM     17  C17 <0> d          -4.713   2.725   2.383  0.00  0.00     0.142 A 
ATOM     18  O2  <0> d          -5.067   1.455   2.096  0.00  0.00    -0.317 OA
ATOM     19  C20 <0> d          -6.394   1.323   2.226  0.00  0.00     0.143 A 
ATOM     20  C19 <0> d          -6.916   2.515   2.590  0.00  0.00     0.027 A 
ATOM     21  C18 <0> d          -5.847   3.420   2.693  0.00  0.00     0.045 A 
ENDBRANCH  13  17
ENDBRANCH   7   8
ENDBRANCH   3   7
BRANCH   1  22
ATOM     22  N1  <0> d          -1.252  -3.422  -2.075  0.00  0.00    -0.187 N 
ATOM     23  H8  <0> d          -1.988  -2.935  -2.479  0.00  0.00     0.184 HD
BRANCH  22  24
ATOM     24  C7  <0> d          -1.146  -4.805  -2.256  0.00  0.00     0.055 A 
ATOM     25  C2  <0> d          -2.277  -5.557  -2.545  0.00  0.00    -0.035 A 
ATOM     26  C1  <0> d          -3.620  -4.884  -2.665  0.00  0.00     0.050 C 
ATOM     27  C3  <0> d          -2.170  -6.923  -2.722  0.00  0.00     0.009 A 
ATOM     28  C4  <0> d          -0.938  -7.540  -2.612  0.00  0.00     0.001 A 
ATOM     29  C5  <0> d           0.191  -6.794  -2.325  0.00  0.00     0.002 A 
ATOM     30  C6  <0> d           0.091  -5.428  -2.152  0.00  0.00     0.030 A 
ENDBRANCH  22  24
ENDBRANCH   1  22
BRANCH   5  31
ATOM     31  N5  <0> d           2.506  -3.478   0.737  0.00  0.00    -0.230 N 
ATOM     32  H9  <0> d           2.529  -4.447   0.689  0.00  0.00     0.174 HD
ATOM     33  H10 <0> d           3.166  -3.002   1.264  0.00  0.00     0.174 HD
ENDBRANCH   5  31
TORSDOF 6
