REMARK  5 active torsions:
REMARK  status: ('A' for Active; 'I' for Inactive)
REMARK    1  A    between atoms: C2_2  and  C4_4 
REMARK    2  A    between atoms: C4_4  and  C5_5 
REMARK    3  A    between atoms: C5_5  and  C6_6 
REMARK    4  A    between atoms: C5_5  and  N1_9 
REMARK    5  A    between atoms: N1_9  and  C7_10 
ROOT
ATOM      1  C7  <0> d          -0.657  -4.018  -1.365  0.00  0.00     0.315 A 
ATOM      2  C8  <0> d          -2.030  -4.641  -1.257  0.00  0.00     0.026 A 
ATOM      3  C9  <0> d          -2.041  -5.357  -0.066  0.00  0.00     0.045 A 
ATOM      4  C10 <0> d          -3.198  -6.044   0.296  0.00  0.00     0.030 A 
ATOM      5  C11 <0> d          -4.310  -6.008  -0.520  0.00  0.00     0.004 A 
ATOM      6  C12 <0> d          -4.287  -5.292  -1.702  0.00  0.00     0.020 A 
ATOM      7  C13 <0> d          -3.141  -4.606  -2.070  0.00  0.00     0.022 A 
ATOM      8 Br1  <0> d          -3.102  -3.626  -3.686  0.00  0.00    -0.050 Br
ATOM      9  N2  <0> d          -0.809  -5.241   0.578  0.00  0.00    -0.324 N 
ATOM     10  C14 <0> d           0.059  -4.478  -0.113  0.00  0.00     0.257 A 
ATOM     11  O3  <0> d           1.198  -4.208   0.206  0.00  0.00    -0.270 OA
ATOM     12  H16 <0> d          -0.601  -5.664   1.426  0.00  0.00     0.169 HD
ENDROOT
BRANCH   1  13
ATOM     13  N1  <0> d          -0.757  -2.553  -1.392  0.00  0.00    -0.044 N 
ATOM     14  H12 <0> d          -1.336  -2.270  -2.169  0.00  0.00     0.279 HD
ATOM     15  H17 <0> d           0.164  -2.155  -1.497  0.00  0.00     0.279 HD
BRANCH  13  16
ATOM     16  C5  <0> d          -1.356  -2.080  -0.137  0.00  0.00     0.287 C 
BRANCH  16  17
ATOM     17  C4  <0> d          -1.222  -0.558  -0.050  0.00  0.00     0.048 C 
BRANCH  17  18
ATOM     18  C2  <0> d           0.258  -0.180   0.040  0.00  0.00    -0.020 C 
ATOM     19  C1  <0> d           0.398   1.343   0.001  0.00  0.00     0.009 C 
ATOM     20  C3  <0> d           0.841  -0.713   1.350  0.00  0.00     0.009 C 
ENDBRANCH  17  18
ENDBRANCH  16  17
BRANCH  16  21
ATOM     21  C6  <0> d          -2.814  -2.459  -0.102  0.00  0.00     0.204 C 
ATOM     22  O1  <0> d          -3.499  -2.341  -1.104  0.00  0.00    -0.646 OA
ATOM     23  O2  <0> d          -3.309  -2.884   0.928  0.00  0.00    -0.646 OA
ENDBRANCH  16  21
ENDBRANCH  13  16
ENDBRANCH   1  13
TORSDOF 5
