REMARK  3 active torsions:
REMARK  status: ('A' for Active; 'I' for Inactive)
REMARK    1  A    between atoms: C7_8  and  C9_12 
REMARK    2  A    between atoms: C7_8  and  O2_19 
REMARK    3  A    between atoms: C9_12  and  C10_13 
ROOT
ATOM      1  C1  <0> d          -0.017   1.379   0.010  0.00  0.00     0.021 A 
ATOM      2  C2  <0> d           1.164   2.093   0.002  0.00  0.00     0.031 A 
ATOM      3  C3  <0> d           2.386   1.423  -0.013  0.00  0.00     0.044 A 
ATOM      4  C4  <0> d           2.392   0.034  -0.021  0.00  0.00     0.014 A 
ATOM      5  C5  <0> d           1.213  -0.676  -0.012  0.00  0.00     0.032 A 
ATOM      6  C6  <0> d           0.002  -0.004   0.002  0.00  0.00     0.011 A 
ATOM      7 Br1  <0> d          -1.621  -0.975   0.012  0.00  0.00    -0.051 Br
ATOM      8  C7  <0> d           3.844  -0.385  -0.038  0.00  0.00     0.172 A 
ATOM      9  C8  <0> d           4.605   0.924  -0.038  0.00  0.00     0.262 A 
ATOM     10  O1  <0> d           5.810   1.057  -0.049  0.00  0.00    -0.269 OA
ATOM     11  N1  <0> d           3.694   1.911  -0.024  0.00  0.00    -0.324 N 
ATOM     12  H4  <0> d           3.919   2.855  -0.022  0.00  0.00     0.169 HD
ENDROOT
BRANCH   8  13
ATOM     13  C9  <0> d           4.156  -1.187  -1.303  0.00  0.00     0.091 C 
BRANCH  13  14
ATOM     14  C10 <0> d           5.608  -1.592  -1.295  0.00  0.00    -0.052 A 
ATOM     15  C14 <0> d           6.007  -2.790  -0.723  0.00  0.00     0.026 A 
ATOM     16  C13 <0> d           7.346  -3.131  -0.741  0.00  0.00     0.116 A 
ATOM     17  N2  <0> d           8.240  -2.327  -1.282  0.00  0.00    -0.273 NA
ATOM     18  C12 <0> d           7.897  -1.177  -1.830  0.00  0.00     0.116 A 
ATOM     19  C11 <0> d           6.576  -0.773  -1.855  0.00  0.00     0.026 A 
ENDBRANCH  13  14
ENDBRANCH   8  13
BRANCH   8  20
ATOM     20  O2  <0> d           4.159  -1.146   1.130  0.00  0.00    -0.375 OA
ATOM     21  H11 <0> d           4.008  -0.674   1.960  0.00  0.00     0.211 HD
ENDBRANCH   8  20
TORSDOF 3
