REMARK  7 active torsions:
REMARK  status: ('A' for Active; 'I' for Inactive)
REMARK    1  A    between atoms: C5_5  and  C6_7 
REMARK    2  A    between atoms: C6_7  and  N1_9 
REMARK       I    between atoms: N1_9  and  C8_10 
REMARK    3  A    between atoms: C8_10  and  C9_12 
REMARK       I    between atoms: C9_12  and  N2_14 
REMARK    4  A    between atoms: N2_14  and  C10_15 
REMARK    5  A    between atoms: C13_18  and  C16_21 
REMARK    6  A    between atoms: C16_21  and  C17_22 
REMARK    7  A    between atoms: C17_22  and  N3_23 
ROOT
ATOM      1  C9  <0> d           3.701  -7.636  -2.236  0.00  0.00     0.314 C 
ATOM      2  O2  <0> d           4.343  -8.663  -2.311  0.00  0.00    -0.262 OA
ATOM      3  N2  <0> d           4.058  -6.562  -2.968  0.00  0.00    -0.319 N 
ATOM      4  H11 <0> d           3.507  -5.764  -2.959  0.00  0.00     0.169 HD
ENDROOT
BRANCH   3   5
ATOM      5  C10 <0> d           5.222  -6.599  -3.740  0.00  0.00     0.035 A 
ATOM      6  C15 <0> d           5.611  -7.782  -4.357  0.00  0.00     0.030 A 
ATOM      7  C14 <0> d           6.759  -7.813  -5.124  0.00  0.00     0.009 A 
ATOM      8  C13 <0> d           7.527  -6.672  -5.269  0.00  0.00    -0.057 A 
ATOM      9  C12 <0> d           7.145  -5.495  -4.652  0.00  0.00     0.009 A 
ATOM     10  C11 <0> d           5.995  -5.455  -3.888  0.00  0.00     0.030 A 
BRANCH   8  11
ATOM     11  C16 <0> d           8.782  -6.711  -6.102  0.00  0.00     0.066 C 
BRANCH  11  12
ATOM     12  C17 <0> d           9.971  -7.090  -5.216  0.00  0.00     0.239 C 
BRANCH  12  13
ATOM     13  N3  <0> d          11.194  -7.128  -6.028  0.00  0.00    -0.071 N 
ATOM     14  C22 <0> d          12.350  -7.373  -5.157  0.00  0.00     0.235 C 
ATOM     15  C21 <0> d          13.636  -7.334  -5.986  0.00  0.00     0.028 C 
ATOM     16  C20 <0> d          13.572  -8.415  -7.068  0.00  0.00     0.003 C 
ATOM     17  C19 <0> d          12.322  -8.193  -7.925  0.00  0.00     0.028 C 
ATOM     18  C18 <0> d          11.085  -8.201  -7.024  0.00  0.00     0.235 C 
ATOM     19  H30 <0> d          11.312  -6.244  -6.500  0.00  0.00     0.279 HD
ENDBRANCH  12  13
ENDBRANCH  11  12
ENDBRANCH   8  11
ENDBRANCH   3   5
BRANCH   1  20
ATOM     20  C8  <0> d           2.515  -7.562  -1.331  0.00  0.00     0.310 C 
ATOM     21  N1  <0> d           2.158  -8.636  -0.599  0.00  0.00    -0.344 N 
ATOM     22  H10 <0> d           2.671  -9.456  -0.659  0.00  0.00     0.163 HD
ATOM     23  O1  <0> d           1.873  -6.535  -1.255  0.00  0.00    -0.262 OA
BRANCH  21  24
ATOM     24  C6  <0> d           0.995  -8.563   0.289  0.00  0.00     0.121 C 
ATOM     25  C7  <0> d          -0.275  -8.868  -0.509  0.00  0.00     0.038 C 
BRANCH  24  26
ATOM     26  C5  <0> d           1.145  -9.572   1.398  0.00  0.00     0.005 A 
ATOM     27  C4  <0> d           0.840  -9.446   2.713  0.00  0.00     0.018 A 
ATOM     28  C3  <0> d           1.065 -10.516   3.558  0.00  0.00     0.015 A 
ATOM     29  C2  <0> d           1.585 -11.659   3.048  0.00  0.00    -0.021 A 
ATOM     30  C1  <0> d           1.919 -12.948   3.754  0.00  0.00     0.056 C 
ATOM     31  S1  <0> d           1.779 -11.239   1.324  0.00  0.00    -0.098 SA
ENDBRANCH  24  26
ENDBRANCH  21  24
ENDBRANCH   1  20
TORSDOF 7
