REMARK  3 active torsions:
REMARK  status: ('A' for Active; 'I' for Inactive)
REMARK    1  A    between atoms: C2_2  and  C3_3 
REMARK    2  A    between atoms: C2_2  and  N2_10 
REMARK    3  A    between atoms: N2_10  and  C9_11 
ROOT
ATOM      1  N2  <0> d           0.582  -0.479  -1.261  0.00  0.00    -0.063 N 
ATOM      2  H18 <0> d           1.508  -0.083  -1.320  0.00  0.00     0.278 HD
ATOM      3  H28 <0> d           0.643  -1.485  -1.300  0.00  0.00     0.278 HD
ENDROOT
BRANCH   1   4
ATOM      4  C2  <0> d          -0.044  -0.075   0.005  0.00  0.00     0.186 C 
ATOM      5  C1  <0> d           0.036   1.446   0.150  0.00  0.00     0.040 C 
BRANCH   4   6
ATOM      6  C3  <0> d           0.691  -0.737   1.171  0.00  0.00     0.019 C 
ATOM      7  C7  <0> d          -0.034  -0.418   2.482  0.00  0.00     0.034 C 
ATOM      8  C6  <0> d           0.750  -1.016   3.651  0.00  0.00     0.234 C 
ATOM      9  N1  <0> d           2.100  -0.442   3.686  0.00  0.00    -0.075 N 
ATOM     10  C5  <0> d           2.827  -0.805   2.463  0.00  0.00     0.234 C 
ATOM     11  C8  <0> d           2.822  -0.961   4.855  0.00  0.00     0.269 C 
ATOM     12  H27 <0> d           2.035   0.563   3.751  0.00  0.00     0.279 HD
ATOM     13  C4  <0> d           2.123  -0.198   1.247  0.00  0.00     0.034 C 
ENDBRANCH   4   6
ENDBRANCH   1   4
BRANCH   1  14
ATOM     14  C9  <0> d          -0.230   0.006  -2.386  0.00  0.00     0.220 C 
ATOM     15  C14 <0> d          -0.151   1.528  -2.454  0.00  0.00    -0.014 A 
ATOM     16  C13 <0> d          -1.271   2.260  -2.713  0.00  0.00    -0.009 A 
ATOM     17  C15 <0> d           1.032   2.241  -2.259  0.00  0.00     0.017 A 
ATOM     18  C12 <0> d          -2.654   1.754  -2.963  0.00  0.00     0.047 C 
ATOM     19  S1  <0> d          -0.694   3.937  -2.684  0.00  0.00    -0.106 SA
ATOM     20  C11 <0> d          -2.572   0.246  -3.246  0.00  0.00     0.007 C 
ATOM     21  C10 <0> d          -1.688  -0.407  -2.180  0.00  0.00     0.038 C 
ATOM     22  C16 <0> d           1.029   3.591  -2.333  0.00  0.00     0.051 A 
ENDBRANCH   1  14
TORSDOF 3
