REMARK  6 active torsions:
REMARK  status: ('A' for Active; 'I' for Inactive)
REMARK    1  A    between atoms: C4_4  and  C7_7 
REMARK    2  A    between atoms: C7_7  and  N1_8 
REMARK    3  A    between atoms: C14_16  and  O3_31 
REMARK    4  A    between atoms: C15_18  and  C16_20 
REMARK    5  A    between atoms: C17_21  and  C18_22 
REMARK    6  A    between atoms: C22_26  and  N4_28 
ROOT
ATOM      1  N1  <0> d           5.221  -0.662   1.319  0.00  0.00    -0.062 N 
ATOM      2  C8  <0> d           6.421  -1.498   1.450  0.00  0.00     0.240 C 
ATOM      3  C9  <0> d           6.825  -1.615   2.923  0.00  0.00     0.068 C 
ATOM      4  C10 <0> d           5.602  -2.064   3.710  0.00  0.00    -0.024 A 
ATOM      5  C11 <0> d           4.367  -1.951   3.165  0.00  0.00     0.018 A 
ATOM      6  S1  <0> d           3.269  -2.581   4.402  0.00  0.00    -0.074 SA
ATOM      7  C12 <0> d           4.374  -2.968   5.577  0.00  0.00     0.087 A 
ATOM      8  C13 <0> d           5.624  -2.628   5.044  0.00  0.00     0.057 A 
ATOM      9  C14 <0> d           6.820  -2.885   5.887  0.00  0.00     0.173 C 
ATOM     10  N2  <0> d           6.625  -3.170   7.146  0.00  0.00    -0.236 NA
ATOM     11  C15 <0> d           5.320  -3.191   7.796  0.00  0.00     0.232 C 
ATOM     12  N3  <0> d           4.242  -3.501   6.840  0.00  0.00    -0.357 N 
ATOM     13  C24 <0> d           4.045  -1.404   1.810  0.00  0.00     0.282 C 
ATOM     14  H13 <0> d           3.481  -4.050   7.086  0.00  0.00     0.162 HD
ATOM     15  H23 <0> d           5.337   0.181   1.861  0.00  0.00     0.280 HD
ENDROOT
BRANCH  11  16
ATOM     16  C16 <0> d           5.056  -1.841   8.412  0.00  0.00     0.022 C 
ATOM     17  C17 <0> d           4.992  -1.716   9.730  0.00  0.00     0.011 C 
BRANCH  17  18
ATOM     18  C18 <0> d           5.354  -2.854  10.600  0.00  0.00    -0.034 A 
ATOM     19  C23 <0> d           4.622  -3.112  11.758  0.00  0.00     0.047 A 
ATOM     20  C22 <0> d           4.962  -4.181  12.563  0.00  0.00     0.103 A 
ATOM     21  C21 <0> d           6.034  -4.988  12.229  0.00  0.00     0.036 A 
ATOM     22  C20 <0> d           6.769  -4.734  11.084  0.00  0.00     0.003 A 
ATOM     23  C19 <0> d           6.435  -3.673  10.268  0.00  0.00     0.011 A 
BRANCH  20  24
ATOM     24  N4  <0> d           4.181  -4.460  13.789  0.00  0.00    -0.116 N 
ATOM     25  O1  <0> d           4.481  -5.393  14.497  0.00  0.00    -0.532 OA
ATOM     26  O2  <0> d           3.243  -3.756  14.082  0.00  0.00    -0.532 OA
ENDBRANCH  20  24
ENDBRANCH  17  18
ENDBRANCH  11  16
BRANCH   9  27
ATOM     27  O3  <0> d           8.068  -2.827   5.368  0.00  0.00    -0.344 OA
ATOM     28  H20 <0> d           8.769  -3.012   6.008  0.00  0.00     0.219 HD
ENDBRANCH   9  27
BRANCH   1  29
ATOM     29  C7  <0> d           5.021  -0.310  -0.094  0.00  0.00     0.273 C 
BRANCH  29  30
ATOM     30  C4  <0> d           3.865   0.649  -0.214  0.00  0.00    -0.033 A 
ATOM     31  C3  <0> d           4.087   2.011  -0.146  0.00  0.00     0.009 A 
ATOM     32  C2  <0> d           3.027   2.891  -0.257  0.00  0.00     0.001 A 
ATOM     33  C1  <0> d           1.744   2.408  -0.437  0.00  0.00     0.000 A 
ATOM     34  C6  <0> d           1.522   1.046  -0.506  0.00  0.00     0.001 A 
ATOM     35  C5  <0> d           2.582   0.166  -0.393  0.00  0.00     0.009 A 
ENDBRANCH  29  30
ENDBRANCH   1  29
TORSDOF 6
