REMARK  2 active torsions:
REMARK  status: ('A' for Active; 'I' for Inactive)
REMARK    1  A    between atoms: C5_7  and  N3_11 
REMARK       I    between atoms: N3_11  and  C9_12 
REMARK       I    between atoms: C9_12  and  N4_14 
REMARK       I    between atoms: N5_17  and  C14_20 
REMARK    2  A    between atoms: C14_20  and  C15_22 
ROOT
ATOM      1  N3  <0> d           0.877  -4.842  -1.595  0.00  0.00    -0.334 N 
ATOM      2  C9  <0> d           0.551  -5.623  -0.546  0.00  0.00     0.319 C 
ATOM      3  O1  <0> d          -0.551  -5.533  -0.040  0.00  0.00    -0.247 OA
ATOM      4  N4  <0> d           1.446  -6.505  -0.058  0.00  0.00    -0.331 N 
ATOM      5  C10 <0> d           2.820  -6.542  -0.579  0.00  0.00     0.147 C 
ATOM      6  C11 <0> d           3.794  -6.375   0.593  0.00  0.00     0.146 C 
ATOM      7  N5  <0> d           3.414  -7.315   1.657  0.00  0.00    -0.345 N 
ATOM      8  C12 <0> d           2.041  -7.277   2.179  0.00  0.00     0.146 C 
ATOM      9  C13 <0> d           1.068  -7.441   1.010  0.00  0.00     0.147 C 
ATOM     10  C14 <0> d           4.310  -8.197   2.145  0.00  0.00     0.254 C 
ATOM     11  O2  <0> d           3.959  -9.036   2.953  0.00  0.00    -0.267 OA
ATOM     12  H12 <0> d           1.778  -4.863  -1.953  0.00  0.00     0.165 HD
ENDROOT
BRANCH   1  13
ATOM     13  C5  <0> d          -0.129  -3.962  -2.193  0.00  0.00     0.123 C 
ATOM     14  C3  <0> d          -0.184  -2.661  -1.431  0.00  0.00     0.008 A 
ATOM     15  C2  <0> d          -0.252  -1.438  -2.016  0.00  0.00     0.040 A 
ATOM     16  C4  <0> d          -0.174  -2.478  -0.050  0.00  0.00     0.150 A 
ATOM     17  N1  <0> d          -0.282  -0.516  -1.039  0.00  0.00    -0.278 N 
ATOM     18  C8  <0> d          -0.287  -1.214  -3.507  0.00  0.00     0.059 C 
ATOM     19  C1  <0> d          -0.352   0.935  -1.225  0.00  0.00     0.179 C 
ATOM     20  N2  <0> d          -0.227  -1.190   0.190  0.00  0.00    -0.184 NA
ATOM     21  C7  <0> d          -0.649  -2.540  -4.187  0.00  0.00     0.008 C 
ATOM     22  C6  <0> d           0.252  -3.654  -3.647  0.00  0.00     0.030 C 
ENDBRANCH   1  13
BRANCH  10  23
ATOM     23  C15 <0> d           5.712  -8.144   1.701  0.00  0.00     0.039 A 
ATOM     24  C18 <0> d           6.318  -6.953   1.369  0.00  0.00     0.066 A 
ATOM     25  S1  <0> d           7.879  -7.392   0.937  0.00  0.00    -0.113 SA
ATOM     26  C17 <0> d           7.782  -9.154   1.170  0.00  0.00     0.050 A 
ATOM     27  C16 <0> d           6.514  -9.338   1.588  0.00  0.00     0.024 A 
ENDBRANCH  10  23
TORSDOF 2
