REMARK  8 active torsions:
REMARK  status: ('A' for Active; 'I' for Inactive)
REMARK    1  A    between atoms: C2_2  and  O1_4 
REMARK    2  A    between atoms: O1_4  and  C4_5 
REMARK    3  A    between atoms: C4_5  and  C5_6 
REMARK    4  A    between atoms: C5_6  and  C6_7 
REMARK    5  A    between atoms: C6_7  and  N1_8 
REMARK    6  A    between atoms: C9_12  and  C11_15 
REMARK    7  A    between atoms: C10_13  and  N2_14 
REMARK    8  A    between atoms: C12_17  and  C14_20 
ROOT
ATOM      1  N1  <0> d          -0.742   1.580   1.184  0.00  0.00    -0.359 N 
ATOM      2  C7  <0> d          -0.013   1.086   0.008  0.00  0.00     0.208 A 
ATOM      3  C8  <0> d          -0.787   1.608  -1.183  0.00  0.00     0.183 A 
ATOM      4  O2  <0> d          -0.530   1.435  -2.359  0.00  0.00    -0.290 OA
ATOM      5  C9  <0> d          -1.863   2.335  -0.649  0.00  0.00     0.090 A 
ATOM      6  C10 <0> d          -1.811   2.300   0.741  0.00  0.00     0.114 A 
ENDROOT
BRANCH   5   7
ATOM      7  C11 <0> d          -2.894   3.031  -1.442  0.00  0.00     0.116 A 
ATOM      8  S1  <0> d          -4.301   3.981  -0.882  0.00  0.00    -0.079 SA
ATOM      9  C13 <0> d          -4.938   4.410  -2.497  0.00  0.00     0.084 A 
ATOM     10  C12 <0> d          -4.022   3.792  -3.304  0.00  0.00     0.075 A 
ATOM     11  N3  <0> d          -3.021   3.123  -2.757  0.00  0.00    -0.239 NA
BRANCH  10  12
ATOM     12  C14 <0> d          -4.148   3.876  -4.780  0.00  0.00    -0.007 A 
ATOM     13  C19 <0> d          -3.214   3.245  -5.599  0.00  0.00     0.014 A 
ATOM     14  C18 <0> d          -3.336   3.326  -6.971  0.00  0.00     0.001 A 
ATOM     15  C17 <0> d          -4.384   4.033  -7.534  0.00  0.00     0.000 A 
ATOM     16  C16 <0> d          -5.314   4.662  -6.726  0.00  0.00     0.001 A 
ATOM     17  C15 <0> d          -5.205   4.582  -5.352  0.00  0.00     0.014 A 
ENDBRANCH  10  12
ENDBRANCH   5   7
BRANCH   6  18
ATOM     18  N2  <0> d          -2.716   2.911   1.559  0.00  0.00    -0.385 N 
ATOM     19  H16 <0> d          -3.455   3.410   1.177  0.00  0.00     0.157 HD
ATOM     20  H17 <0> d          -2.620   2.847   2.522  0.00  0.00     0.157 HD
ENDBRANCH   6  18
BRANCH   1  21
ATOM     21  C6  <0> d          -0.383   1.340   2.584  0.00  0.00     0.127 C 
BRANCH  21  22
ATOM     22  C5  <0> d           0.549   2.452   3.069  0.00  0.00     0.046 C 
BRANCH  22  23
ATOM     23  C4  <0> d           0.924   2.201   4.531  0.00  0.00     0.169 C 
BRANCH  23  24
ATOM     24  O1  <0> d           1.795   3.240   4.985  0.00  0.00    -0.387 OA
BRANCH  24  25
ATOM     25  C2  <0> d           2.207   3.099   6.346  0.00  0.00     0.113 C 
ATOM     26  C1  <0> d           3.598   3.712   6.523  0.00  0.00     0.039 C 
ATOM     27  C3  <0> d           1.212   3.821   7.257  0.00  0.00     0.039 C 
ENDBRANCH  24  25
ENDBRANCH  23  24
ENDBRANCH  22  23
ENDBRANCH  21  22
ENDBRANCH   1  21
TORSDOF 8
