REMARK  6 active torsions:
REMARK  status: ('A' for Active; 'I' for Inactive)
REMARK    1  A    between atoms: C6_6  and  N1_8 
REMARK       I    between atoms: N1_8  and  C8_9 
REMARK    2  A    between atoms: C8_9  and  C9_11 
REMARK       I    between atoms: C9_11  and  N2_13 
REMARK    3  A    between atoms: N2_13  and  C10_14 
REMARK    4  A    between atoms: C10_14  and  C11_15 
REMARK    5  A    between atoms: C11_15  and  C12_16 
REMARK    6  A    between atoms: C11_15  and  N4_27 
ROOT
ATOM      1  C11 <0> d           2.503  -0.963   4.779  0.00  0.00     0.273 C 
ENDROOT
BRANCH   1   2
ATOM      2  C10 <0> d           3.544  -1.919   4.194  0.00  0.00     0.164 C 
BRANCH   2   3
ATOM      3  N2  <0> d           4.648  -1.147   3.617  0.00  0.00    -0.350 N 
ATOM      4  C9  <0> d           5.726  -1.783   3.118  0.00  0.00     0.309 C 
ATOM      5  O2  <0> d           5.783  -2.995   3.146  0.00  0.00    -0.262 OA
ATOM      6  H10 <0> d           4.596  -0.049   3.592  0.00  0.00     0.162 HD
BRANCH   4   7
ATOM      7  C8  <0> d           6.851  -0.996   2.530  0.00  0.00     0.313 C 
ATOM      8  N1  <0> d           7.929  -1.631   2.031  0.00  0.00    -0.319 N 
ATOM      9  H9  <0> d           7.949  -2.731   1.987  0.00  0.00     0.169 HD
ATOM     10  O1  <0> d           6.794   0.216   2.502  0.00  0.00    -0.262 OA
BRANCH   8  11
ATOM     11  C6  <0> d           9.023  -0.895   1.569  0.00  0.00     0.035 A 
ATOM     12  C5  <0> d           8.822   0.319   0.923  0.00  0.00     0.029 A 
ATOM     13  C4  <0> d           9.905   1.047   0.472  0.00  0.00     0.003 A 
ATOM     14  C3  <0> d          11.188   0.564   0.652  0.00  0.00     0.007 A 
ATOM     15  C2  <0> d          11.392  -0.646   1.290  0.00  0.00    -0.060 A 
ATOM     16  C1  <0> d          12.792  -1.168   1.485  0.00  0.00     0.048 C 
ATOM     17  C7  <0> d          10.314  -1.377   1.749  0.00  0.00     0.036 A 
ENDBRANCH   8  11
ENDBRANCH   4   7
ENDBRANCH   2   3
ENDBRANCH   1   2
BRANCH   1  18
ATOM     18  C12 <0> d           1.911  -0.128   3.673  0.00  0.00    -0.023 A 
ATOM     19  C17 <0> d           2.355   1.163   3.467  0.00  0.00     0.018 A 
ATOM     20  C16 <0> d           1.817   1.939   2.452  0.00  0.00    -0.036 A 
ATOM     21  C15 <0> d           0.830   1.416   1.635  0.00  0.00     0.016 A 
ATOM     22  C18 <0> d           2.332   3.346   2.284  0.00  0.00     0.041 C 
ATOM     23  C14 <0> d           0.383   0.111   1.850  0.00  0.00     0.025 A 
ATOM     24  N3  <0> d           0.252   2.134   0.590  0.00  0.00    -0.287 NA
ATOM     25  C13 <0> d           0.921  -0.653   2.863  0.00  0.00     0.011 A 
ATOM     26  C20 <0> d           0.421   3.582   0.724  0.00  0.00     0.095 C 
ATOM     27  C21 <0> d          -1.165   1.782   0.430  0.00  0.00     0.116 C 
ATOM     28  C19 <0> d           1.911   3.887   0.915  0.00  0.00     0.019 C 
ENDBRANCH   1  18
BRANCH   1  29
ATOM     29  N4  <0> d           1.439  -1.736   5.432  0.00  0.00     0.103 N 
ATOM     30  C25 <0> d           1.989  -2.604   6.484  0.00  0.00     0.299 C 
ATOM     31  C24 <0> d           0.857  -3.434   7.096  0.00  0.00     0.198 C 
ATOM     32  O3  <0> d          -0.156  -2.556   7.593  0.00  0.00    -0.388 OA
ATOM     33  C23 <0> d          -0.714  -1.697   6.596  0.00  0.00     0.198 C 
ATOM     34  C22 <0> d           0.402  -0.849   5.978  0.00  0.00     0.299 C 
ENDBRANCH   1  29
TORSDOF 6
