REMARK  5 active torsions:
REMARK  status: ('A' for Active; 'I' for Inactive)
REMARK    1  A    between atoms: C3_3  and  C16_18 
REMARK    2  A    between atoms: N1_5  and  C5_7 
REMARK    3  A    between atoms: C8_10  and  C11_13 
REMARK    4  A    between atoms: C18_20  and  N3_23 
REMARK       I    between atoms: N3_23  and  C21_24 
REMARK       I    between atoms: C21_24  and  N4_26 
REMARK    5  A    between atoms: N4_26  and  C22_27 
ROOT
ATOM      1  C1  <0> d          -1.249   2.171   0.020  0.00  0.00     0.073 C 
ATOM      2  C2  <0> d          -0.016   1.304   0.009  0.00  0.00     0.060 A 
ATOM      3  C3  <0> d           1.307   1.761  -0.001  0.00  0.00    -0.000 A 
ATOM      4  C4  <0> d           2.120   0.679  -0.015  0.00  0.00     0.042 A 
ATOM      5  N1  <0> d           1.339  -0.424  -0.013  0.00  0.00    -0.238 N 
ATOM      6  N2  <0> d           0.002  -0.004   0.002  0.00  0.00    -0.172 NA
ATOM      7  C15 <0> d           3.627   0.701  -0.028  0.00  0.00     0.071 C 
ENDROOT
BRANCH   3   8
ATOM      8  C16 <0> d           1.748   3.202   0.002  0.00  0.00     0.047 C 
ATOM      9  C20 <0> d           1.176   3.925   1.200  0.00  0.00    -0.019 C 
ATOM     10  C19 <0> d           0.696   5.091   0.857  0.00  0.00    -0.005 C 
ATOM     11  C18 <0> d           0.872   5.339  -0.623  0.00  0.00     0.110 C 
ATOM     12  C17 <0> d           1.167   3.945  -1.223  0.00  0.00     0.042 C 
BRANCH  11  13
ATOM     13  N3  <0> d           1.998   6.246  -0.861  0.00  0.00    -0.335 N 
ATOM     14  C21 <0> d           1.794   7.578  -0.895  0.00  0.00     0.316 C 
ATOM     15  O1  <0> d           0.677   8.027  -0.729  0.00  0.00    -0.247 OA
ATOM     16  N4  <0> d           2.830   8.413  -1.113  0.00  0.00    -0.339 N 
ATOM     17  H27 <0> d           3.841   8.007  -1.264  0.00  0.00     0.164 HD
ATOM     18  H26 <0> d           3.009   5.840  -1.011  0.00  0.00     0.164 HD
BRANCH  16  19
ATOM     19  C22 <0> d           2.609   9.860  -1.151  0.00  0.00     0.078 C 
ATOM     20  C23 <0> d           3.908  10.584  -0.789  0.00  0.00     0.032 C 
ATOM     21  C24 <0> d           2.170  10.273  -2.557  0.00  0.00     0.032 C 
ENDBRANCH  16  19
ENDBRANCH  11  13
ENDBRANCH   3   8
BRANCH   5  22
ATOM     22  C5  <0> d           1.786  -1.752  -0.024  0.00  0.00     0.058 A 
ATOM     23  C10 <0> d           1.082  -2.729   0.667  0.00  0.00     0.032 A 
ATOM     24  C9  <0> d           1.525  -4.037   0.653  0.00  0.00     0.010 A 
ATOM     25  C8  <0> d           2.669  -4.375  -0.047  0.00  0.00    -0.051 A 
ATOM     26  C7  <0> d           3.372  -3.404  -0.737  0.00  0.00     0.010 A 
ATOM     27  C6  <0> d           2.930  -2.095  -0.732  0.00  0.00     0.032 A 
BRANCH  25  28
ATOM     28  C11 <0> d           3.149  -5.803  -0.060  0.00  0.00    -0.024 C 
ATOM     29  C12 <0> d           2.067  -6.700  -0.664  0.00  0.00     0.019 C 
ATOM     30  C13 <0> d           4.424  -5.904  -0.901  0.00  0.00     0.019 C 
ATOM     31  C14 <0> d           3.445  -6.254   1.372  0.00  0.00     0.019 C 
ENDBRANCH  25  28
ENDBRANCH   5  22
TORSDOF 5
