REMARK  2 active torsions:
REMARK  status: ('A' for Active; 'I' for Inactive)
REMARK    1  A    between atoms: C3_3  and  N3_9 
REMARK    2  A    between atoms: N3_9  and  C7_10 
ROOT
ATOM      1  C7  <0> d           0.465   0.840  -2.904  0.00  0.00     0.212 A 
ATOM      2  C8  <0> d           1.008   0.810  -4.314  0.00  0.00     0.018 A 
ATOM      3  C9  <0> d           0.216   1.677  -5.056  0.00  0.00     0.045 A 
ATOM      4  C10 <0> d           0.492   1.850  -6.411  0.00  0.00     0.030 A 
ATOM      5  C11 <0> d           1.536   1.166  -6.998  0.00  0.00     0.004 A 
ATOM      6  C12 <0> d           2.317   0.306  -6.250  0.00  0.00     0.020 A 
ATOM      7  C13 <0> d           2.050   0.128  -4.902  0.00  0.00     0.022 A 
ATOM      8 Br1  <0> d           3.113  -1.048  -3.872  0.00  0.00    -0.050 Br
ATOM      9  N4  <0> d          -0.768   2.245  -4.246  0.00  0.00    -0.325 N 
ATOM     10  C14 <0> d          -0.694   1.812  -2.973  0.00  0.00     0.249 A 
ATOM     11  O1  <0> d          -1.417   2.137  -2.055  0.00  0.00    -0.270 OA
ATOM     12  H15 <0> d          -1.429   2.881  -4.562  0.00  0.00     0.169 HD
ENDROOT
BRANCH   1  13
ATOM     13  N3  <0> d          -0.004  -0.490  -2.506  0.00  0.00    -0.370 N 
ATOM     14  H11 <0> d          -0.805  -0.862  -2.908  0.00  0.00     0.161 HD
BRANCH  13  15
ATOM     15  C3  <0> d           0.707  -1.228  -1.540  0.00  0.00     0.079 A 
ATOM     16  C2  <0> d           1.264  -2.502  -1.721  0.00  0.00     0.079 A 
ATOM     17  C1  <0> d           1.204  -3.320  -2.985  0.00  0.00     0.075 C 
ATOM     18  N2  <0> d           1.840  -2.862  -0.602  0.00  0.00    -0.175 NA
ATOM     19  N1  <0> d           1.681  -1.828   0.329  0.00  0.00    -0.276 N 
ATOM     20  C4  <0> d           0.976  -0.832  -0.271  0.00  0.00     0.054 A 
ATOM     21  C5  <0> d           2.179  -1.823   1.707  0.00  0.00     0.179 C 
ATOM     22  C6  <0> d           0.567   0.474   0.360  0.00  0.00     0.072 C 
ENDBRANCH  13  15
ENDBRANCH   1  13
TORSDOF 2
