REMARK  3 active torsions:
REMARK  status: ('A' for Active; 'I' for Inactive)
REMARK    1  A    between atoms: C8_8  and  C10_11 
REMARK    2  A    between atoms: N3_20  and  C16_21 
REMARK    3  A    between atoms: C16_21  and  C17_22 
ROOT
ATOM      1  C10 <0> d           1.920  -2.581   2.991  0.00  0.00     0.068 C 
ATOM      2  C11 <0> d           1.813  -2.605   4.519  0.00  0.00     0.117 C 
ATOM      3  C12 <0> d           1.551  -3.992   5.030  0.00  0.00     0.224 C 
ATOM      4  O2  <0> d           0.822  -4.135   5.989  0.00  0.00    -0.273 OA
ATOM      5  N1  <0> d           2.099  -5.087   4.459  0.00  0.00    -0.311 N 
ATOM      6  C13 <0> d           2.821  -4.918   3.277  0.00  0.00     0.135 A 
ATOM      7  C14 <0> d           2.761  -3.753   2.556  0.00  0.00     0.016 A 
ATOM      8  C15 <0> d           3.578  -3.896   1.444  0.00  0.00     0.150 A 
ATOM      9  N2  <0> d           4.114  -5.093   1.482  0.00  0.00    -0.182 NA
ATOM     10  N3  <0> d           3.648  -5.753   2.634  0.00  0.00    -0.249 N 
ATOM     11  H12 <0> d           1.993  -5.964   4.859  0.00  0.00     0.170 HD
ENDROOT
BRANCH   1  12
ATOM     12  C8  <0> d           0.545  -2.690   2.384  0.00  0.00    -0.015 A 
ATOM     13  C7  <0> d          -0.240  -3.792   2.653  0.00  0.00     0.011 A 
ATOM     14  C6  <0> d          -1.503  -3.901   2.102  0.00  0.00     0.001 A 
ATOM     15  C5  <0> d          -1.980  -2.901   1.273  0.00  0.00     0.010 A 
ATOM     16  C4  <0> d          -1.196  -1.802   1.000  0.00  0.00    -0.021 A 
ATOM     17  C3  <0> d          -1.430  -0.572   0.143  0.00  0.00     0.079 C 
ATOM     18  C9  <0> d           0.072  -1.677   1.553  0.00  0.00     0.083 A 
ATOM     19  C2  <0> d           0.002  -0.004   0.002  0.00  0.00     0.064 C 
ATOM     20  C1  <0> d          -0.019   1.526   0.010  0.00  0.00     0.046 C 
ATOM     21  O1  <0> d           0.663  -0.511   1.174  0.00  0.00    -0.340 OA
ATOM     22  C22 <0> d           0.675  -0.528  -1.268  0.00  0.00     0.046 C 
ENDBRANCH   1  12
BRANCH  10  23
ATOM     23  C16 <0> d           4.005  -7.110   3.055  0.00  0.00     0.193 C 
BRANCH  23  24
ATOM     24  C17 <0> d           3.030  -8.093   2.460  0.00  0.00    -0.021 A 
ATOM     25  C21 <0> d           3.276  -8.664   1.226  0.00  0.00     0.125 A 
ATOM     26  N4  <0> d           2.431  -9.530   0.702  0.00  0.00    -0.273 NA
ATOM     27  C20 <0> d           1.319  -9.875   1.321  0.00  0.00     0.116 A 
ATOM     28  C19 <0> d           1.003  -9.341   2.556  0.00  0.00     0.020 A 
ATOM     29  C18 <0> d           1.871  -8.433   3.142  0.00  0.00     0.012 A 
ENDBRANCH  23  24
ENDBRANCH  10  23
TORSDOF 3
