REMARK  6 active torsions:
REMARK  status: ('A' for Active; 'I' for Inactive)
REMARK    1  A    between atoms: C4_4  and  N1_11 
REMARK    2  A    between atoms: C5_5  and  O1_9 
REMARK       I    between atoms: N1_11  and  C9_12 
REMARK    3  A    between atoms: C9_12  and  C10_14 
REMARK    4  A    between atoms: C10_14  and  N2_16 
REMARK    5  A    between atoms: C15_20  and  C17_22 
REMARK       I    between atoms: C17_22  and  N3_24 
REMARK    6  A    between atoms: N3_24  and  C18_25 
ROOT
ATOM      1  C10 <0> d          -0.199  -2.845  -4.889  0.00  0.00     0.275 C 
ATOM      2  C11 <0> d           1.021  -3.763  -4.996  0.00  0.00     0.050 C 
ENDROOT
BRANCH   1   3
ATOM      3  C9  <0> d          -0.146  -2.091  -3.586  0.00  0.00     0.253 C 
ATOM      4  N1  <0> d          -0.690  -2.626  -2.474  0.00  0.00    -0.323 N 
ATOM      5  H11 <0> d          -1.058  -3.523  -2.498  0.00  0.00     0.169 HD
ATOM      6  O2  <0> d           0.384  -1.001  -3.537  0.00  0.00    -0.271 OA
BRANCH   4   7
ATOM      7  C4  <0> d          -0.723  -1.886  -1.284  0.00  0.00     0.069 A 
ATOM      8  C3  <0> d           0.257  -0.939  -1.027  0.00  0.00     0.041 A 
ATOM      9  C2  <0> d           0.222  -0.210   0.147  0.00  0.00    -0.038 A 
ATOM     10  C1  <0> d           1.288   0.819   0.425  0.00  0.00     0.050 C 
ATOM     11  C7  <0> d          -0.786  -0.427   1.070  0.00  0.00     0.042 A 
ATOM     12  C6  <0> d          -1.770  -1.367   0.817  0.00  0.00     0.063 A 
ATOM     13 Cl1  <0> d          -0.820   0.487   2.546  0.00  0.00    -0.084 Cl
ATOM     14  C5  <0> d          -1.741  -2.100  -0.357  0.00  0.00     0.096 A 
BRANCH  14  15
ATOM     15  O1  <0> d          -2.704  -3.028  -0.605  0.00  0.00    -0.354 OA
ATOM     16  C8  <0> d          -3.716  -3.193   0.390  0.00  0.00     0.210 C 
ENDBRANCH  14  15
ENDBRANCH   4   7
ENDBRANCH   1   3
BRANCH   1  17
ATOM     17  N2  <0> d          -0.195  -1.893  -6.007  0.00  0.00    -0.058 N 
ATOM     18  C16 <0> d          -0.181  -2.630  -7.276  0.00  0.00     0.249 C 
ATOM     19  C15 <0> d          -0.095  -1.644  -8.443  0.00  0.00     0.104 C 
ATOM     20  C14 <0> d          -1.309  -0.711  -8.406  0.00  0.00     0.017 C 
ATOM     21  C13 <0> d          -1.355  -0.003  -7.049  0.00  0.00     0.029 C 
ATOM     22  C12 <0> d          -1.394  -1.050  -5.934  0.00  0.00     0.236 C 
ATOM     23  H29 <0> d           0.627  -1.311  -5.949  0.00  0.00     0.281 HD
BRANCH  19  24
ATOM     24  C17 <0> d          -0.083  -2.403  -9.745  0.00  0.00     0.223 C 
ATOM     25  O3  <0> d          -0.134  -3.615  -9.741  0.00  0.00    -0.273 OA
ATOM     26  N3  <0> d          -0.015  -1.735 -10.913  0.00  0.00    -0.356 N 
ATOM     27  H23 <0> d           0.025  -0.766 -10.916  0.00  0.00     0.162 HD
BRANCH  26  28
ATOM     28  C18 <0> d          -0.004  -2.473 -12.179  0.00  0.00     0.084 A 
ATOM     29  C20 <0> d          -0.505  -1.743 -13.427  0.00  0.00     0.027 A 
ATOM     30  C19 <0> d           0.989  -2.020 -13.251  0.00  0.00     0.027 A 
ENDBRANCH  26  28
ENDBRANCH  19  24
ENDBRANCH   1  17
TORSDOF 6
