REMARK  6 active torsions:
REMARK  status: ('A' for Active; 'I' for Inactive)
REMARK    1  A    between atoms: C2_2  and  O1_3 
REMARK    2  A    between atoms: O1_3  and  C3_4 
REMARK    3  A    between atoms: C6_7  and  C9_10 
REMARK       I    between atoms: C9_10  and  N1_12 
REMARK    4  A    between atoms: N1_12  and  C10_13 
REMARK    5  A    between atoms: N2_15  and  C11_16 
REMARK    6  A    between atoms: C15_20  and  O3_22 
ROOT
ATOM      1  C9  <0> d           2.228   7.959   0.327  0.00  0.00     0.257 C 
ATOM      2  O2  <0> d           3.289   7.367   0.314  0.00  0.00    -0.267 OA
ATOM      3  N1  <0> d           1.072   7.274   0.232  0.00  0.00    -0.299 N 
ATOM      4  H10 <0> d           0.225   7.747   0.242  0.00  0.00     0.171 HD
ENDROOT
BRANCH   3   5
ATOM      5  C10 <0> d           1.092   5.930   0.124  0.00  0.00     0.179 C 
ATOM      6  S1  <0> d           2.587   5.095   0.106  0.00  0.00    -0.040 SA
ATOM      7  N2  <0> d          -0.064   5.245   0.029  0.00  0.00    -0.333 N 
ATOM      8  H11 <0> d          -0.906   5.721  -0.041  0.00  0.00     0.168 HD
BRANCH   7   9
ATOM      9  C11 <0> d          -0.050   3.846   0.034  0.00  0.00     0.036 A 
ATOM     10  C16 <0> d          -0.868   3.140  -0.838  0.00  0.00     0.066 A 
ATOM     11  C15 <0> d          -0.847   1.754  -0.835  0.00  0.00     0.067 A 
ATOM     12  C14 <0> d          -0.018   1.076   0.047  0.00  0.00     0.036 A 
ATOM     13  C13 <0> d           0.796   1.780   0.914  0.00  0.00     0.005 A 
ATOM     14  C12 <0> d           0.782   3.161   0.910  0.00  0.00     0.029 A 
BRANCH  11  15
ATOM     15  O3  <0> d          -1.642   1.060  -1.691  0.00  0.00    -0.361 OA
ATOM     16  H16 <0> d          -2.518   0.855  -1.335  0.00  0.00     0.217 HD
ENDBRANCH  11  15
ENDBRANCH   7   9
ENDBRANCH   3   5
BRANCH   1  17
ATOM     17  C6  <0> d           2.207   9.430   0.446  0.00  0.00     0.032 A 
ATOM     18  C5  <0> d           3.405  10.143   0.543  0.00  0.00     0.020 A 
ATOM     19  C4  <0> d           3.380  11.515   0.654  0.00  0.00     0.038 A 
ATOM     20  C3  <0> d           2.165  12.191   0.668  0.00  0.00     0.068 A 
ATOM     21  C8  <0> d           0.971  11.486   0.571  0.00  0.00     0.038 A 
ATOM     22  C7  <0> d           0.988  10.114   0.455  0.00  0.00     0.020 A 
BRANCH  20  23
ATOM     23  O1  <0> d           2.145  13.544   0.776  0.00  0.00    -0.352 OA
BRANCH  23  24
ATOM     24  C2  <0> d           0.863  14.175   0.784  0.00  0.00     0.171 C 
ATOM     25  C1  <0> d           1.041  15.689   0.913  0.00  0.00     0.034 C 
ENDBRANCH  23  24
ENDBRANCH  20  23
ENDBRANCH   1  17
TORSDOF 6
