REMARK  5 active torsions:
REMARK  status: ('A' for Active; 'I' for Inactive)
REMARK    1  A    between atoms: C2_2  and  C3_3 
REMARK    2  A    between atoms: N1_6  and  C6_10 
REMARK    3  A    between atoms: C6_10  and  C7_11 
REMARK       I    between atoms: C7_11  and  N3_13 
REMARK    4  A    between atoms: N3_13  and  C9_15 
REMARK    5  A    between atoms: N4_18  and  C14_21 
ROOT
ATOM      1  C7  <0> d           2.941  -4.083  -2.652  0.00  0.00     0.238 C 
ATOM      2  O3  <0> d           2.619  -3.372  -3.580  0.00  0.00    -0.272 OA
ATOM      3  N3  <0> d           3.465  -5.303  -2.887  0.00  0.00    -0.350 N 
ATOM      4  C8  <0> d           3.854  -6.162  -1.766  0.00  0.00     0.153 C 
ENDROOT
BRANCH   3   5
ATOM      5  C9  <0> d           3.646  -5.769  -4.264  0.00  0.00     0.089 C 
ATOM      6  C13 <0> d           5.129  -6.056  -4.516  0.00  0.00     0.053 C 
ATOM      7  C12 <0> d           5.301  -6.618  -5.929  0.00  0.00     0.237 C 
ATOM      8  N4  <0> d           4.531  -7.860  -6.063  0.00  0.00    -0.067 N 
ATOM      9  C11 <0> d           3.100  -7.579  -5.894  0.00  0.00     0.237 C 
ATOM     10  H33 <0> d           4.829  -8.517  -5.359  0.00  0.00     0.280 HD
ATOM     11  C10 <0> d           2.843  -7.055  -4.479  0.00  0.00     0.053 C 
BRANCH   8  12
ATOM     12  C14 <0> d           4.761  -8.436  -7.395  0.00  0.00     0.192 C 
ATOM     13  C18 <0> d           6.253  -8.730  -7.575  0.00  0.00     0.059 C 
ATOM     14  C17 <0> d           6.472  -9.402  -8.933  0.00  0.00     0.169 C 
ATOM     15  O4  <0> d           5.689 -10.595  -9.005  0.00  0.00    -0.391 OA
ATOM     16  C16 <0> d           4.281 -10.376  -8.890  0.00  0.00     0.169 C 
ATOM     17  C15 <0> d           3.974  -9.743  -7.531  0.00  0.00     0.059 C 
ENDBRANCH   8  12
ENDBRANCH   3   5
BRANCH   1  18
ATOM     18  C6  <0> d           2.754  -3.604  -1.236  0.00  0.00     0.239 C 
BRANCH  18  19
ATOM     19  N1  <0> d           2.172  -2.259  -1.248  0.00  0.00    -0.259 N 
ATOM     20  C4  <0> d           0.848  -2.008  -1.239  0.00  0.00     0.256 A 
ATOM     21  C3  <0> d           0.718  -0.497  -1.257  0.00  0.00     0.112 A 
ATOM     22  O1  <0> d          -0.051  -2.820  -1.221  0.00  0.00    -0.270 OA
ATOM     23  N2  <0> d           2.115  -0.030  -1.275  0.00  0.00    -0.325 N 
ATOM     24  C19 <0> d          -0.022  -0.032  -2.513  0.00  0.00     0.049 C 
ATOM     25  C5  <0> d           2.889  -1.130  -1.269  0.00  0.00     0.326 A 
ATOM     26  H6  <0> d           2.418   0.892  -1.290  0.00  0.00     0.165 HD
ATOM     27  O2  <0> d           4.104  -1.101  -1.280  0.00  0.00    -0.247 OA
BRANCH  21  28
ATOM     28  C2  <0> d           0.002  -0.004   0.002  0.00  0.00     0.036 C 
ATOM     29  C1  <0> d          -0.019   1.526   0.010  0.00  0.00     0.008 C 
ENDBRANCH  21  28
ENDBRANCH  18  19
ENDBRANCH   1  18
TORSDOF 5
