REMARK  4 active torsions:
REMARK  status: ('A' for Active; 'I' for Inactive)
REMARK    1  A    between atoms: C2_2  and  C3_3 
REMARK    2  A    between atoms: C4_4  and  C10_16 
REMARK    3  A    between atoms: N2_6  and  C6_9 
REMARK    4  A    between atoms: C5_7  and  N3_8 
ROOT
ATOM      1  C3  <0> d          -1.684  -1.160   0.077  0.00  0.00     0.018 A 
ATOM      2  C4  <0> d          -2.384  -1.182   1.300  0.00  0.00     0.092 A 
ATOM      3  N1  <0> d          -3.616  -1.582   1.060  0.00  0.00    -0.293 N 
ATOM      4  N2  <0> d          -3.739  -1.827  -0.314  0.00  0.00    -0.270 N 
ATOM      5  C5  <0> d          -2.543  -1.556  -0.899  0.00  0.00     0.124 A 
ATOM      6  H20 <0> d          -4.318  -1.690   1.721  0.00  0.00     0.187 HD
ENDROOT
BRANCH   4   7
ATOM      7  C6  <0> d          -4.948  -2.289  -1.000  0.00  0.00     0.124 C 
ATOM      8  C9  <0> d          -5.383  -3.668  -0.427  0.00  0.00     0.167 C 
ATOM      9  S1  <0> d          -7.145  -3.715  -0.964  0.00  0.00     0.146 S 
ATOM     10  C8  <0> d          -7.438  -1.916  -1.206  0.00  0.00     0.142 C 
ATOM     11  O1  <0> d          -7.946  -4.172   0.118  0.00  0.00    -0.228 OA
ATOM     12  O2  <0> d          -7.229  -4.371  -2.221  0.00  0.00    -0.228 OA
ATOM     13  C7  <0> d          -6.093  -1.290  -0.766  0.00  0.00     0.043 C 
ENDBRANCH   4   7
BRANCH   5  14
ATOM     14  N3  <0> d          -2.249  -1.667  -2.255  0.00  0.00    -0.384 N 
ATOM     15  H7  <0> d          -1.360  -1.452  -2.578  0.00  0.00     0.157 HD
ATOM     16  H8  <0> d          -2.933  -1.959  -2.877  0.00  0.00     0.157 HD
ENDBRANCH   5  14
BRANCH   2  17
ATOM     17  C10 <0> d          -1.832  -0.818   2.623  0.00  0.00     0.109 A 
ATOM     18  O3  <0> d          -0.653  -1.230   3.127  0.00  0.00    -0.320 OA
ATOM     19  C13 <0> d          -0.480  -0.699   4.349  0.00  0.00     0.143 A 
ATOM     20  C12 <0> d          -1.555   0.056   4.647  0.00  0.00     0.034 A 
ATOM     21  C11 <0> d          -2.429  -0.016   3.543  0.00  0.00    -0.024 A 
ATOM     22  C14 <0> d          -3.766   0.666   3.409  0.00  0.00     0.051 C 
ENDBRANCH   2  17
BRANCH   1  23
ATOM     23  C2  <0> d          -0.243  -0.763  -0.115  0.00  0.00     0.040 C 
ATOM     24  C1  <0> d          -0.160   0.742  -0.380  0.00  0.00     0.010 C 
ENDBRANCH   1  23
TORSDOF 4
