REMARK  3 active torsions:
REMARK  status: ('A' for Active; 'I' for Inactive)
REMARK    1  A    between atoms: C8_9  and  C18_23 
REMARK    2  A    between atoms: C11_14  and  C14_18 
REMARK       I    between atoms: C18_23  and  N2_25 
REMARK    3  A    between atoms: N2_25  and  C19_26 
ROOT
ATOM      1  C1  <0> d           5.159   6.772  -0.175  0.00  0.00     0.020 C 
ATOM      2  C2  <0> d           4.428   5.435  -0.308  0.00  0.00     0.077 C 
ATOM      3  C3  <0> d           3.913   5.017   1.061  0.00  0.00     0.138 C 
ATOM      4  C4  <0> d           4.884   4.113   1.758  0.00  0.00     0.114 C 
ATOM      5  C5  <0> d           5.448   3.042   0.842  0.00  0.00     0.012 C 
ATOM      6  C6  <0> d           6.293   2.342   1.584  0.00  0.00     0.005 C 
ATOM      7  C7  <0> d           6.194   2.957   2.985  0.00  0.00     0.159 C 
ATOM      8  O1  <0> d           5.933   4.386   2.658  0.00  0.00    -0.363 OA
ATOM      9  C8  <0> d           4.774   2.462   3.465  0.00  0.00     0.127 C 
ATOM     10  C9  <0> d           3.866   3.436   2.760  0.00  0.00     0.134 C 
ATOM     11  C10 <0> d           2.767   3.117   1.830  0.00  0.00     0.229 C 
ATOM     12  O2  <0> d           2.057   2.134   1.854  0.00  0.00    -0.273 OA
ATOM     13  N1  <0> d           2.707   4.153   0.931  0.00  0.00    -0.332 N 
ATOM     14  C11 <0> d           1.619   4.365  -0.023  0.00  0.00     0.152 C 
ATOM     15  C12 <0> d           2.229   4.554  -1.419  0.00  0.00     0.111 C 
ATOM     16  C13 <0> d           3.326   5.582  -1.313  0.00  0.00     0.135 C 
ATOM     17  O3  <0> d           3.318   6.539  -2.050  0.00  0.00    -0.297 OA
ENDROOT
BRANCH   9  18
ATOM     18  C18 <0> d           4.512   1.050   3.010  0.00  0.00     0.231 C 
ATOM     19  O5  <0> d           4.191   0.833   1.861  0.00  0.00    -0.273 OA
ATOM     20  N2  <0> d           4.633   0.028   3.881  0.00  0.00    -0.305 N 
ATOM     21  H17 <0> d           4.889   0.202   4.800  0.00  0.00     0.171 HD
BRANCH  20  22
ATOM     22  C19 <0> d           4.390  -1.275   3.461  0.00  0.00     0.172 A 
ATOM     23  S1  <0> d           3.916  -1.845   1.891  0.00  0.00    -0.062 SA
ATOM     24  C21 <0> d           3.848  -3.586   2.286  0.00  0.00     0.072 A 
ATOM     25  C20 <0> d           4.191  -3.560   3.597  0.00  0.00     0.126 A 
ATOM     26  N3  <0> d           4.455  -2.394   4.155  0.00  0.00    -0.236 NA
ENDBRANCH  20  22
ENDBRANCH   9  18
BRANCH  14  27
ATOM     27  C14 <0> d           0.706   3.166  -0.027  0.00  0.00     0.075 A 
ATOM     28  O4  <0> d           1.075   1.898  -0.273  0.00  0.00    -0.325 OA
ATOM     29  C17 <0> d           0.001   1.095  -0.192  0.00  0.00     0.142 A 
ATOM     30  C16 <0> d          -1.073   1.850   0.104  0.00  0.00     0.027 A 
ATOM     31  C15 <0> d          -0.618   3.184   0.215  0.00  0.00     0.037 A 
ENDBRANCH  14  27
TORSDOF 3
