REMARK  3 active torsions:
REMARK  status: ('A' for Active; 'I' for Inactive)
REMARK       I    between atoms: N1_8  and  C11_12 
REMARK    1  A    between atoms: C11_12  and  C12_14 
REMARK       I    between atoms: C12_14  and  N2_16 
REMARK    2  A    between atoms: N2_16  and  C13_17 
REMARK    3  A    between atoms: C13_17  and  C14_18 
ROOT
ATOM      1  C12 <0> d           0.730   2.062   3.667  0.00  0.00     0.310 C 
ATOM      2  O2  <0> d           0.775   1.449   4.713  0.00  0.00    -0.262 OA
ATOM      3  N2  <0> d           0.887   3.401   3.664  0.00  0.00    -0.346 N 
ATOM      4  H12 <0> d           0.850   3.891   2.827  0.00  0.00     0.163 HD
ENDROOT
BRANCH   1   5
ATOM      5  C11 <0> d           0.499   1.334   2.384  0.00  0.00     0.316 C 
ATOM      6  N1  <0> d           0.452  -0.013   2.372  0.00  0.00    -0.309 N 
ATOM      7  C7  <0> d          -0.346  -0.689   1.441  0.00  0.00     0.050 A 
ATOM      8  C8  <0> d           1.237  -0.796   3.337  0.00  0.00     0.133 C 
ATOM      9  C2  <0> d          -1.296   0.024   0.719  0.00  0.00    -0.032 A 
ATOM     10  C6  <0> d          -0.198  -2.053   1.236  0.00  0.00    -0.028 A 
ATOM     11  C1  <0> d          -1.462   1.504   0.950  0.00  0.00     0.050 C 
ATOM     12  C3  <0> d          -2.084  -0.620  -0.214  0.00  0.00     0.051 A 
ATOM     13  C4  <0> d          -1.930  -1.980  -0.425  0.00  0.00     0.117 A 
ATOM     14  C5  <0> d          -0.990  -2.693   0.298  0.00  0.00     0.051 A 
ATOM     15  F1  <0> d          -2.699  -2.612  -1.338  0.00  0.00    -0.206 F 
ATOM     16  C10 <0> d           0.812  -2.860   2.009  0.00  0.00     0.042 C 
ATOM     17  C9  <0> d           1.906  -1.946   2.572  0.00  0.00     0.025 C 
ATOM     18  O1  <0> d           0.355   1.955   1.351  0.00  0.00    -0.262 OA
ENDBRANCH   1   5
BRANCH   3  19
ATOM     19  C13 <0> d           1.112   4.115   4.923  0.00  0.00     0.201 C 
BRANCH  19  20
ATOM     20  C14 <0> d           1.255   5.589   4.645  0.00  0.00     0.124 A 
ATOM     21  N4  <0> d           0.228   6.481   4.625  0.00  0.00    -0.336 N 
ATOM     22  C20 <0> d           0.766   7.721   4.340  0.00  0.00     0.064 A 
ATOM     23  C21 <0> d          -1.186   6.183   4.865  0.00  0.00     0.158 C 
ATOM     24  C15 <0> d           2.147   7.517   4.184  0.00  0.00     0.085 A 
ATOM     25  C19 <0> d           0.234   8.994   4.192  0.00  0.00     0.032 A 
ATOM     26  N3  <0> d           2.377   6.194   4.384  0.00  0.00    -0.231 NA
ATOM     27  C16 <0> d           2.972   8.603   3.881  0.00  0.00     0.034 A 
ATOM     28  C17 <0> d           2.431   9.850   3.738  0.00  0.00     0.002 A 
ATOM     29  C18 <0> d           1.067  10.051   3.892  0.00  0.00     0.002 A 
ENDBRANCH  19  20
ENDBRANCH   3  19
TORSDOF 3
