REMARK  4 active torsions:
REMARK  status: ('A' for Active; 'I' for Inactive)
REMARK    1  A    between atoms: C3_3  and  C6_8 
REMARK    2  A    between atoms: C6_8  and  N3_10 
REMARK    3  A    between atoms: N3_10  and  S1_11 
REMARK    4  A    between atoms: S1_11  and  C8_14 
ROOT
ATOM      1  N3  <0> d           0.478  -1.401  -3.398  0.00  0.00    -0.306 N 
ATOM      2  H12 <0> d           0.274  -2.325  -3.186  0.00  0.00     0.173 HD
ENDROOT
BRANCH   1   3
ATOM      3  C6  <0> d          -0.006  -0.327  -2.527  0.00  0.00     0.125 C 
ATOM      4  C7  <0> d          -1.434   0.050  -2.927  0.00  0.00     0.038 C 
BRANCH   3   5
ATOM      5  C3  <0> d           0.008  -0.796  -1.095  0.00  0.00     0.008 A 
ATOM      6  C2  <0> d           0.002  -0.004   0.002  0.00  0.00     0.036 A 
ATOM      7  C1  <0> d          -0.018   1.503   0.010  0.00  0.00     0.070 C 
ATOM      8  N2  <0> d           0.024  -0.805   1.088  0.00  0.00    -0.278 N 
ATOM      9  N1  <0> d           0.035  -2.134   0.643  0.00  0.00    -0.184 NA
ATOM     10  C5  <0> d           0.031  -0.364   2.485  0.00  0.00     0.179 C 
ATOM     11  C4  <0> d           0.028  -2.127  -0.666  0.00  0.00     0.150 A 
ENDBRANCH   3   5
ENDBRANCH   1   3
BRANCH   1  12
ATOM     12  S1  <0> d           1.372  -1.037  -4.743  0.00  0.00     0.262 S 
ATOM     13  O1  <0> d           1.708  -2.276  -5.354  0.00  0.00    -0.200 OA
ATOM     14  O2  <0> d           0.669  -0.013  -5.434  0.00  0.00    -0.200 OA
BRANCH  12  15
ATOM     15  C8  <0> d           2.884  -0.324  -4.187  0.00  0.00     0.114 A 
ATOM     16  C11 <0> d           3.989  -1.117  -3.925  0.00  0.00     0.146 A 
ATOM     17  N5  <0> d           5.109  -0.546  -3.514  0.00  0.00    -0.229 NA
ATOM     18  C10 <0> d           5.178   0.760  -3.342  0.00  0.00     0.222 A 
ATOM     19  N4  <0> d           4.145   1.546  -3.576  0.00  0.00    -0.229 NA
ATOM     20 Cl1  <0> d           6.668   1.464  -2.794  0.00  0.00    -0.041 Cl
ATOM     21  C9  <0> d           2.994   1.045  -3.995  0.00  0.00     0.146 A 
ENDBRANCH  12  15
ENDBRANCH   1  12
TORSDOF 4
