REMARK  6 active torsions:
REMARK  status: ('A' for Active; 'I' for Inactive)
REMARK    1  A    between atoms: C2_2  and  N3_18 
REMARK    2  A    between atoms: C4_5  and  S2_6 
REMARK    3  A    between atoms: S2_6  and  N1_9 
REMARK    4  A    between atoms: N2_12  and  C9_15 
REMARK    5  A    between atoms: C9_15  and  C10_16 
REMARK    6  A    between atoms: C10_16  and  O3_17 
ROOT
ATOM      1  S2  <0> d          -1.352  -1.131   0.009  0.00  0.00     0.267 S 
ATOM      2  O1  <0> d          -0.863  -2.351   0.549  0.00  0.00    -0.200 OA
ATOM      3  O2  <0> d          -2.455  -0.436   0.575  0.00  0.00    -0.200 OA
ENDROOT
BRANCH   1   4
ATOM      4  C4  <0> d           0.002  -0.004   0.002  0.00  0.00     0.122 A 
ATOM      5  C1  <0> d          -0.016   1.351   0.009  0.00  0.00     0.062 A 
ATOM      6  C2  <0> d           1.187   2.039   0.002  0.00  0.00     0.034 A 
ATOM      7  C3  <0> d           2.346   1.331  -0.013  0.00  0.00     0.080 A 
ATOM      8  S1  <0> d           1.753  -0.352  -0.017  0.00  0.00    -0.086 SA
BRANCH   6   9
ATOM      9  N3  <0> d           1.207   3.447   0.009  0.00  0.00    -0.399 N 
ATOM     10  H16 <0> d           0.374   3.944   0.019  0.00  0.00     0.156 HD
ATOM     11  H17 <0> d           2.054   3.920   0.003  0.00  0.00     0.156 HD
ENDBRANCH   6   9
ENDBRANCH   1   4
BRANCH   1  12
ATOM     12  N1  <0> d          -1.744  -1.436  -1.570  0.00  0.00    -0.303 N 
ATOM     13  C8  <0> d          -1.116  -2.545  -2.304  0.00  0.00     0.165 C 
ATOM     14  C7  <0> d          -0.565  -2.011  -3.625  0.00  0.00     0.293 C 
ATOM     15  N2  <0> d          -1.632  -1.310  -4.352  0.00  0.00     0.093 N 
ATOM     16  C6  <0> d          -2.107  -0.140  -3.603  0.00  0.00     0.293 C 
ATOM     17  C5  <0> d          -2.726  -0.601  -2.279  0.00  0.00     0.165 C 
BRANCH  15  18
ATOM     18  C9  <0> d          -1.188  -0.929  -5.699  0.00  0.00     0.298 C 
BRANCH  18  19
ATOM     19  C10 <0> d          -0.938  -2.190  -6.530  0.00  0.00     0.194 C 
BRANCH  19  20
ATOM     20  O3  <0> d          -2.171  -2.886  -6.721  0.00  0.00    -0.399 OA
ATOM     21  H15 <0> d          -2.088  -3.698  -7.240  0.00  0.00     0.209 HD
ENDBRANCH  19  20
ENDBRANCH  18  19
ENDBRANCH  15  18
ENDBRANCH   1  12
TORSDOF 6
