REMARK  6 active torsions:
REMARK  status: ('A' for Active; 'I' for Inactive)
REMARK    1  A    between atoms: C4_5  and  N2_7 
REMARK       I    between atoms: N2_7  and  C6_8 
REMARK    2  A    between atoms: C6_8  and  C7_10 
REMARK    3  A    between atoms: C12_15  and  O4_32 
REMARK    4  A    between atoms: N3_20  and  C16_21 
REMARK    5  A    between atoms: C20_25  and  O3_27 
REMARK    6  A    between atoms: O3_27  and  C22_28 
ROOT
ATOM      1  C7  <0> d           0.168  -4.203   0.239  0.00  0.00     0.084 C 
ATOM      2  C8  <0> d          -1.006  -4.942   0.236  0.00  0.00     0.035 C 
ATOM      3  C9  <0> d          -0.909  -6.355   0.316  0.00  0.00    -0.001 A 
ATOM      4  C10 <0> d          -2.043  -7.157   0.115  0.00  0.00     0.017 A 
ATOM      5  C11 <0> d          -1.929  -8.515   0.154  0.00  0.00     0.037 A 
ATOM      6  C12 <0> d          -0.695  -9.115   0.399  0.00  0.00     0.068 A 
ATOM      7  C13 <0> d           0.432  -8.339   0.620  0.00  0.00     0.074 A 
ATOM      8  C14 <0> d           0.334  -6.958   0.591  0.00  0.00     0.090 A 
ATOM      9  O2  <0> d           1.421  -6.189   0.848  0.00  0.00    -0.292 OA
ATOM     10  C15 <0> d           1.440  -4.950   0.287  0.00  0.00     0.164 C 
ATOM     11  N3  <0> d           2.552  -4.434  -0.192  0.00  0.00    -0.336 N 
ATOM     12  H15 <0> d           2.526  -3.597  -0.681  0.00  0.00     0.168 HD
ENDROOT
BRANCH   1  13
ATOM     13  C6  <0> d           0.147  -2.733   0.190  0.00  0.00     0.261 C 
ATOM     14  N2  <0> d           1.291  -2.037   0.337  0.00  0.00    -0.307 N 
ATOM     15  H5  <0> d           2.136  -2.505   0.427  0.00  0.00     0.170 HD
ATOM     16  O1  <0> d          -0.905  -2.145   0.018  0.00  0.00    -0.267 OA
BRANCH  14  17
ATOM     17  C4  <0> d           1.262  -0.644   0.360  0.00  0.00     0.129 A 
ATOM     18  N1  <0> d           2.273   0.025   0.890  0.00  0.00    -0.243 NA
ATOM     19  C3  <0> d           2.285   1.343   0.932  0.00  0.00     0.119 A 
ATOM     20  C2  <0> d           1.234   2.077   0.420  0.00  0.00     0.019 A 
ATOM     21  C1  <0> d           0.153   1.414  -0.145  0.00  0.00     0.005 A 
ATOM     22  C5  <0> d           0.169   0.031  -0.174  0.00  0.00     0.050 A 
ENDBRANCH  14  17
ENDBRANCH   1  13
BRANCH  11  23
ATOM     23  C16 <0> d           3.743  -5.077  -0.000  0.00  0.00     0.036 A 
ATOM     24  C21 <0> d           4.642  -5.218  -1.059  0.00  0.00     0.066 A 
ATOM     25  C20 <0> d           5.849  -5.865  -0.855  0.00  0.00     0.080 A 
ATOM     26  C19 <0> d           6.157  -6.384   0.396  0.00  0.00     0.037 A 
ATOM     27  C18 <0> d           5.265  -6.251   1.444  0.00  0.00     0.005 A 
ATOM     28  C17 <0> d           4.062  -5.602   1.255  0.00  0.00     0.029 A 
BRANCH  25  29
ATOM     29  O3  <0> d           6.730  -5.998  -1.881  0.00  0.00    -0.255 OA
BRANCH  29  30
ATOM     30  C22 <0> d           7.953  -6.683  -1.602  0.00  0.00     0.530 C 
ATOM     31  F1  <0> d           7.671  -7.985  -1.176  0.00  0.00    -0.144 F 
ATOM     32  F2  <0> d           8.736  -6.729  -2.760  0.00  0.00    -0.144 F 
ATOM     33  F3  <0> d           8.648  -6.003  -0.596  0.00  0.00    -0.144 F 
ENDBRANCH  29  30
ENDBRANCH  25  29
ENDBRANCH  11  23
BRANCH   6  34
ATOM     34  O4  <0> d          -0.597 -10.468   0.423  0.00  0.00    -0.361 OA
ATOM     35  H14 <0> d          -0.397 -10.863  -0.437  0.00  0.00     0.217 HD
ENDBRANCH   6  34
TORSDOF 6
