REMARK  1 active torsions:
REMARK  status: ('A' for Active; 'I' for Inactive)
REMARK    1  A    between atoms: C4_7  and  N1_8 
ROOT
ATOM      1  N1  <0> d          -1.485  -0.378   0.233  0.00  0.00    -0.350 N 
ATOM      2  C5  <0> d          -2.251  -1.177  -0.690  0.00  0.00     0.116 C 
ATOM      3  C6  <0> d          -2.585  -0.461  -1.998  0.00  0.00     0.166 C 
ATOM      4  S2  <0> d          -4.413  -0.292  -1.938  0.00  0.00     0.147 S 
ATOM      5  O3  <0> d          -4.981  -1.070  -2.983  0.00  0.00    -0.228 OA
ATOM      6  O4  <0> d          -4.744   1.086  -1.835  0.00  0.00    -0.228 OA
ATOM      7  C7  <0> d          -4.760  -1.110  -0.332  0.00  0.00     0.158 C 
ATOM      8  C8  <0> d          -3.463  -1.883  -0.060  0.00  0.00     0.093 C 
ATOM      9  S3  <0> d          -3.067  -1.631   1.726  0.00  0.00    -0.087 SA
ATOM     10  C9  <0> d          -1.912  -0.286   1.542  0.00  0.00     0.137 C 
ATOM     11  N2  <0> d          -1.566   0.596   2.439  0.00  0.00    -0.380 N 
ATOM     12  H14 <0> d          -0.869   1.241   2.241  0.00  0.00     0.158 HD
ATOM     13  H15 <0> d          -2.006   0.607   3.303  0.00  0.00     0.158 HD
ENDROOT
BRANCH   1  14
ATOM     14  C4  <0> d          -0.274   0.319  -0.209  0.00  0.00     0.101 C 
ATOM     15  C1  <0> d          -0.504   1.837  -0.138  0.00  0.00     0.041 C 
ATOM     16  C2  <0> d           0.872   2.544  -0.304  0.00  0.00     0.142 C 
ATOM     17  S1  <0> d           1.941   1.444   0.717  0.00  0.00     0.146 S 
ATOM     18  O1  <0> d           1.998   1.954   2.041  0.00  0.00    -0.228 OA
ATOM     19  O2  <0> d           3.149   1.190   0.012  0.00  0.00    -0.228 OA
ATOM     20  C3  <0> d           0.910  -0.079   0.706  0.00  0.00     0.165 C 
ENDBRANCH   1  14
TORSDOF 1
