REMARK  5 active torsions:
REMARK  status: ('A' for Active; 'I' for Inactive)
REMARK    1  A    between atoms: C2_2  and  N1_3 
REMARK    2  A    between atoms: C5_6  and  C8_9 
REMARK    3  A    between atoms: C8_9  and  N2_10 
REMARK    4  A    between atoms: N2_10  and  C9_11 
REMARK    5  A    between atoms: C9_11  and  C10_12 
ROOT
ATOM      1  N2  <0> d          -5.067  -4.023  -0.900  0.00  0.00    -0.071 N 
ATOM      2  H17 <0> d          -4.670  -4.386  -1.754  0.00  0.00     0.277 HD
ATOM      3  H23 <0> d          -4.539  -4.367  -0.111  0.00  0.00     0.277 HD
ENDROOT
BRANCH   1   4
ATOM      4  C8  <0> d          -5.014  -2.555  -0.920  0.00  0.00     0.237 C 
BRANCH   4   5
ATOM      5  C5  <0> d          -3.559  -2.099  -1.042  0.00  0.00     0.014 C 
ATOM      6  C4  <0> d          -3.511  -0.575  -1.189  0.00  0.00     0.034 C 
ATOM      7  C3  <0> d          -2.051  -0.118  -1.230  0.00  0.00     0.235 C 
ATOM      8  N1  <0> d          -1.376  -0.512   0.012  0.00  0.00    -0.071 N 
ATOM      9  C7  <0> d          -1.355  -1.976   0.125  0.00  0.00     0.235 C 
ATOM     10  H22 <0> d          -1.871  -0.123   0.800  0.00  0.00     0.279 HD
ATOM     11  C6  <0> d          -2.788  -2.505   0.218  0.00  0.00     0.034 C 
BRANCH   8  12
ATOM     12  C2  <0> d           0.002  -0.004   0.002  0.00  0.00     0.230 C 
ATOM     13  C1  <0> d          -0.019   1.526   0.010  0.00  0.00     0.034 C 
ENDBRANCH   8  12
ENDBRANCH   4   5
ENDBRANCH   1   4
BRANCH   1  14
ATOM     14  C9  <0> d          -6.464  -4.462  -0.783  0.00  0.00     0.274 C 
BRANCH  14  15
ATOM     15  C10 <0> d          -6.518  -5.968  -0.762  0.00  0.00     0.012 A 
ATOM     16  C15 <0> d          -6.447  -6.645   0.442  0.00  0.00     0.065 A 
ATOM     17  C14 <0> d          -6.502  -8.029   0.461  0.00  0.00     0.056 A 
ATOM     18 Cl1  <0> d          -6.297  -5.761   1.928  0.00  0.00    -0.082 Cl
ATOM     19  C13 <0> d          -6.616  -8.733  -0.724  0.00  0.00     0.027 A 
ATOM     20 Cl2  <0> d          -6.421  -8.880   1.972  0.00  0.00    -0.083 Cl
ATOM     21  C12 <0> d          -6.681  -8.055  -1.927  0.00  0.00     0.026 A 
ATOM     22  C11 <0> d          -6.632  -6.673  -1.946  0.00  0.00     0.043 A 
ATOM     23 Cl3  <0> d          -6.714  -5.823  -3.458  0.00  0.00    -0.084 Cl
ENDBRANCH  14  15
ENDBRANCH   1  14
TORSDOF 5
