REMARK  4 active torsions:
REMARK  status: ('A' for Active; 'I' for Inactive)
REMARK    1  A    between atoms: C2_2  and  C3_3 
REMARK    2  A    between atoms: C2_2  and  N2_6 
REMARK    3  A    between atoms: N2_6  and  S2_8 
REMARK    4  A    between atoms: S2_8  and  C5_11 
ROOT
ATOM      1  N2  <0> d           0.658  -0.457   1.267  0.00  0.00    -0.300 N 
ATOM      2  C4  <0> d           1.985   0.035   1.644  0.00  0.00     0.163 C 
ENDROOT
BRANCH   1   3
ATOM      3  C2  <0> d           0.039  -0.010   0.017  0.00  0.00     0.152 C 
ATOM      4  C1  <0> d          -0.004   1.520  -0.013  0.00  0.00     0.040 C 
BRANCH   3   5
ATOM      5  C3  <0> d           0.847  -0.512  -1.152  0.00  0.00     0.094 C 
ATOM      6  S1  <0> d           2.277  -1.184  -0.905  0.00  0.00    -0.064 SA
ATOM      7  N1  <0> d           0.364  -0.396  -2.405  0.00  0.00    -0.392 N 
ATOM      8  H5  <0> d          -0.503   0.011  -2.554  0.00  0.00     0.156 HD
ATOM      9  H6  <0> d           0.884  -0.720  -3.157  0.00  0.00     0.156 HD
ENDBRANCH   3   5
ENDBRANCH   1   3
BRANCH   1  10
ATOM     10  S2  <0> d          -0.143  -1.518   2.254  0.00  0.00     0.269 S 
ATOM     11  O1  <0> d           0.384  -1.334   3.561  0.00  0.00    -0.200 OA
ATOM     12  O2  <0> d          -1.527  -1.378   1.963  0.00  0.00    -0.200 OA
BRANCH  10  13
ATOM     13  C5  <0> d           0.315  -3.144   1.751  0.00  0.00     0.137 A 
ATOM     14  S3  <0> d           1.421  -3.646   0.442  0.00  0.00    -0.087 SA
ATOM     15  C8  <0> d           1.282  -5.413   0.659  0.00  0.00     0.052 A 
ATOM     16  C7  <0> d           0.411  -5.501   1.694  0.00  0.00     0.028 A 
ATOM     17  C6  <0> d          -0.085  -4.338   2.254  0.00  0.00     0.041 A 
ATOM     18 Br1  <0> d          -1.302  -4.411   3.699  0.00  0.00    -0.049 Br
ENDBRANCH  10  13
ENDBRANCH   1  10
TORSDOF 4
