REMARK  2 active torsions:
REMARK  status: ('A' for Active; 'I' for Inactive)
REMARK    1  A    between atoms: C6_6  and  C7_7 
REMARK    2  A    between atoms: C16_20  and  C17_21 
ROOT
ATOM      1  C7  <0> d           3.339  -0.761   1.165  0.00  0.00     0.021 C 
ATOM      2  C8  <0> d           2.264  -0.047   0.785  0.00  0.00    -0.030 C 
ATOM      3  C9  <0> d           0.879  -0.656   0.810  0.00  0.00     0.041 C 
ATOM      4  C10 <0> d           0.167  -0.192  -0.470  0.00  0.00     0.009 C 
ATOM      5  C11 <0> d           0.041   1.328  -0.439  0.00  0.00     0.039 C 
ATOM      6  C12 <0> d           1.379   1.992  -0.232  0.00  0.00    -0.025 C 
ATOM      7  C13 <0> d           2.404   1.351   0.332  0.00  0.00     0.060 C 
ATOM      8  N1  <0> d           3.653   1.971   0.500  0.00  0.00    -0.189 N 
ATOM      9  C14 <0> d           3.749   3.323   0.260  0.00  0.00     0.711 C 
ATOM     10  N2  <0> d           4.558   4.111   0.947  0.00  0.00     0.015 NA
ATOM     11  C15 <0> d           5.332   3.593   1.931  0.00  0.00     0.223 C 
ATOM     12  N3  <0> d           5.981   3.160   2.757  0.00  0.00    -0.169 NA
ATOM     13  N4  <0> d           2.938   3.795  -0.753  0.00  0.00    -0.211 N 
ATOM     14  C16 <0> d           1.517   3.433  -0.676  0.00  0.00     0.164 C 
ATOM     15  H13 <0> d           4.428   1.459   0.778  0.00  0.00     0.184 HD
ATOM     16  H14 <0> d           3.288   4.336  -1.478  0.00  0.00     0.178 HD
ENDROOT
BRANCH  14  17
ATOM     17  C17 <0> d           0.824   4.331   0.317  0.00  0.00    -0.030 A 
ATOM     18  C22 <0> d          -0.444   4.810   0.047  0.00  0.00     0.012 A 
ATOM     19  C21 <0> d          -1.080   5.633   0.956  0.00  0.00     0.043 A 
ATOM     20  C20 <0> d          -0.447   5.977   2.139  0.00  0.00     0.116 A 
ATOM     21  C19 <0> d           0.823   5.496   2.408  0.00  0.00     0.043 A 
ATOM     22  F1  <0> d          -1.068   6.782   3.029  0.00  0.00    -0.206 F 
ATOM     23  C18 <0> d           1.455   4.669   1.499  0.00  0.00     0.012 A 
ENDBRANCH  14  17
BRANCH   1  24
ATOM     24  C6  <0> d           3.162  -2.091   1.773  0.00  0.00    -0.035 A 
ATOM     25  C1  <0> d           2.046  -2.355   2.571  0.00  0.00     0.014 A 
ATOM     26  C2  <0> d           1.884  -3.604   3.134  0.00  0.00     0.043 A 
ATOM     27  C3  <0> d           2.831  -4.592   2.917  0.00  0.00     0.116 A 
ATOM     28  C4  <0> d           3.943  -4.335   2.131  0.00  0.00     0.043 A 
ATOM     29  F2  <0> d           2.670  -5.812   3.475  0.00  0.00    -0.206 F 
ATOM     30  C5  <0> d           4.114  -3.092   1.559  0.00  0.00     0.014 A 
ENDBRANCH   1  24
TORSDOF 2
