REMARK  5 active torsions:
REMARK  status: ('A' for Active; 'I' for Inactive)
REMARK    1  A    between atoms: C7_7  and  N1_8 
REMARK       I    between atoms: N1_8  and  C8_9 
REMARK    2  A    between atoms: C8_9  and  C9_11 
REMARK    3  A    between atoms: C9_11  and  N2_12 
REMARK       I    between atoms: N2_12  and  C11_14 
REMARK    4  A    between atoms: C11_14  and  C12_16 
REMARK    5  A    between atoms: C12_16  and  N3_19 
REMARK       I    between atoms: N3_19  and  C15_20 
REMARK       I    between atoms: C15_20  and  N4_22 
ROOT
ATOM      1  N2  <0> d          -0.009  -0.973   6.242  0.00  0.00    -0.346 N 
ATOM      2  C10 <0> d           1.136  -1.659   6.844  0.00  0.00     0.153 C 
ATOM      3  C11 <0> d          -1.263  -1.323   6.589  0.00  0.00     0.247 C 
ATOM      4  O2  <0> d          -2.207  -0.681   6.179  0.00  0.00    -0.271 OA
ENDROOT
BRANCH   1   5
ATOM      5  C9  <0> d           0.209   0.094   5.262  0.00  0.00     0.228 C 
BRANCH   5   6
ATOM      6  C8  <0> d           0.261  -0.498   3.877  0.00  0.00     0.240 C 
ATOM      7  N1  <0> d           0.455   0.301   2.810  0.00  0.00    -0.325 N 
ATOM      8  H7  <0> d           0.623   1.248   2.937  0.00  0.00     0.169 HD
ATOM      9  O1  <0> d           0.129  -1.694   3.724  0.00  0.00    -0.271 OA
BRANCH   7  10
ATOM     10  C7  <0> d           0.413  -0.235   1.518  0.00  0.00     0.040 A 
ATOM     11  C2  <0> d          -0.059   0.532   0.461  0.00  0.00    -0.034 A 
ATOM     12  C1  <0> d          -0.528   1.944   0.704  0.00  0.00     0.050 C 
ATOM     13  C3  <0> d          -0.093   0.003  -0.814  0.00  0.00     0.028 A 
ATOM     14  C4  <0> d           0.336  -1.293  -1.038  0.00  0.00     0.011 A 
ATOM     15  C5  <0> d           0.801  -2.062   0.014  0.00  0.00     0.021 A 
ATOM     16 Br1  <0> d           0.287  -2.015  -2.785  0.00  0.00    -0.051 Br
ATOM     17  C6  <0> d           0.838  -1.538   1.291  0.00  0.00     0.031 A 
ENDBRANCH   7  10
ENDBRANCH   5   6
ENDBRANCH   1   5
BRANCH   3  18
ATOM     18  C12 <0> d          -1.493  -2.512   7.486  0.00  0.00     0.108 C 
ATOM     19  C13 <0> d          -1.041  -2.173   8.908  0.00  0.00     0.049 C 
ATOM     20  C14 <0> d          -2.982  -2.864   7.495  0.00  0.00     0.049 C 
BRANCH  18  21
ATOM     21  N3  <0> d          -0.724  -3.655   6.988  0.00  0.00    -0.326 N 
ATOM     22  C15 <0> d          -0.700  -4.807   7.687  0.00  0.00     0.316 C 
ATOM     23  O3  <0> d          -1.317  -4.897   8.731  0.00  0.00    -0.247 OA
ATOM     24  N4  <0> d           0.008  -5.859   7.229  0.00  0.00    -0.347 N 
ATOM     25  C16 <0> d           0.034  -7.111   7.989  0.00  0.00     0.151 C 
ATOM     26  H20 <0> d           0.500  -5.786   6.397  0.00  0.00     0.163 HD
ATOM     27  H19 <0> d          -0.231  -3.583   6.156  0.00  0.00     0.165 HD
ENDBRANCH  18  21
ENDBRANCH   3  18
TORSDOF 5
