REMARK  7 active torsions:
REMARK  status: ('A' for Active; 'I' for Inactive)
REMARK    1  A    between atoms: C2_2  and  O1_3 
REMARK    2  A    between atoms: O1_3  and  C3_4 
REMARK    3  A    between atoms: C3_4  and  C4_5 
REMARK    4  A    between atoms: C4_5  and  C5_6 
REMARK    5  A    between atoms: C5_6  and  N1_7 
REMARK       I    between atoms: N1_7  and  C6_8 
REMARK    6  A    between atoms: C6_8  and  C7_10 
REMARK       I    between atoms: N2_12  and  C15_20 
REMARK    7  A    between atoms: C15_20  and  C16_22 
ROOT
ATOM      1  C7  <0> d           2.877  -5.799  -5.476  0.00  0.00     0.106 C 
ATOM      2  C8  <0> d           2.111  -5.449  -6.772  0.00  0.00     0.141 C 
ATOM      3  N2  <0> d           2.454  -6.539  -7.716  0.00  0.00    -0.346 N 
ATOM      4  C9  <0> d           2.461  -7.763  -6.879  0.00  0.00     0.136 C 
ATOM      5  C10 <0> d           3.104  -7.319  -5.551  0.00  0.00    -0.007 C 
ATOM      6  C11 <0> d           4.598  -7.630  -5.557  0.00  0.00     0.039 C 
ATOM      7  C12 <0> d           4.798  -9.148  -5.574  0.00  0.00     0.233 C 
ATOM      8  N3  <0> d           4.160  -9.740  -4.393  0.00  0.00    -0.075 N 
ATOM      9  C13 <0> d           2.710  -9.516  -4.441  0.00  0.00     0.233 C 
ATOM     10  C14 <0> d           2.421  -8.014  -4.377  0.00  0.00     0.039 C 
ATOM     11  C15 <0> d           2.703  -6.439  -9.037  0.00  0.00     0.254 C 
ATOM     12  O3  <0> d           2.885  -7.443  -9.698  0.00  0.00    -0.267 OA
ATOM     13  H22 <0> d           4.345 -10.732  -4.374  0.00  0.00     0.277 HD
ATOM     14  H34 <0> d           4.537  -9.315  -3.559  0.00  0.00     0.277 HD
ENDROOT
BRANCH  11  15
ATOM     15  C16 <0> d           2.755  -5.111  -9.681  0.00  0.00     0.044 A 
ATOM     16  C21 <0> d           3.844  -4.764 -10.490  0.00  0.00     0.005 A 
ATOM     17  C20 <0> d           3.875  -3.499 -11.099  0.00  0.00     0.027 A 
ATOM     18  C22 <0> d           5.068  -5.509 -10.877  0.00  0.00    -0.010 A 
ATOM     19  C19 <0> d           2.836  -2.601 -10.886  0.00  0.00     0.016 A 
ATOM     20  C28 <0> d           5.123  -3.409 -11.894  0.00  0.00     0.194 A 
ATOM     21  C18 <0> d           1.765  -2.951 -10.079  0.00  0.00     0.002 A 
ATOM     22  C17 <0> d           1.719  -4.191  -9.480  0.00  0.00     0.018 A 
ATOM     23  C27 <0> d           5.845  -4.692 -11.717  0.00  0.00     0.026 A 
ATOM     24  O4  <0> d           5.491  -2.459 -12.555  0.00  0.00    -0.287 OA
ATOM     25  C26 <0> d           7.051  -5.163 -12.219  0.00  0.00     0.016 A 
ATOM     26  C25 <0> d           7.485  -6.438 -11.891  0.00  0.00     0.001 A 
ATOM     27  C24 <0> d           6.723  -7.242 -11.066  0.00  0.00     0.001 A 
ATOM     28  C23 <0> d           5.517  -6.784 -10.558  0.00  0.00     0.013 A 
ENDBRANCH  11  15
BRANCH   1  29
ATOM     29  C6  <0> d           2.049  -5.451  -4.266  0.00  0.00     0.224 C 
ATOM     30  N1  <0> d           2.647  -5.248  -3.076  0.00  0.00    -0.361 N 
ATOM     31  H13 <0> d           3.611  -5.325  -2.998  0.00  0.00     0.162 HD
ATOM     32  O2  <0> d           0.844  -5.354  -4.364  0.00  0.00    -0.273 OA
BRANCH  30  33
ATOM     33  C5  <0> d           1.842  -4.909  -1.900  0.00  0.00     0.124 C 
BRANCH  33  34
ATOM     34  C4  <0> d           2.758  -4.732  -0.688  0.00  0.00     0.046 C 
BRANCH  34  35
ATOM     35  C3  <0> d           1.917  -4.379   0.540  0.00  0.00     0.169 C 
BRANCH  35  36
ATOM     36  O1  <0> d           2.773  -4.213   1.672  0.00  0.00    -0.391 OA
BRANCH  36  37
ATOM     37  C2  <0> d           2.084  -3.880   2.879  0.00  0.00     0.163 C 
ATOM     38  C1  <0> d           3.094  -3.728   4.018  0.00  0.00     0.033 C 
ENDBRANCH  36  37
ENDBRANCH  35  36
ENDBRANCH  34  35
ENDBRANCH  33  34
ENDBRANCH  30  33
ENDBRANCH   1  29
TORSDOF 7
