REMARK  8 active torsions:
REMARK  status: ('A' for Active; 'I' for Inactive)
REMARK    1  A    between atoms: C2_2  and  C3_3 
REMARK    2  A    between atoms: C3_3  and  C4_4 
REMARK    3  A    between atoms: C4_4  and  C5_5 
REMARK    4  A    between atoms: C5_5  and  C6_6 
REMARK    5  A    between atoms: C6_6  and  N1_7 
REMARK    6  A    between atoms: C7_8  and  N2_9 
REMARK    7  A    between atoms: C8_10  and  C18_23 
REMARK       I    between atoms: C18_23  and  N5_25 
REMARK    8  A    between atoms: N5_25  and  C19_26 
ROOT
ATOM      1  N1  <0> d           2.211  -4.501  -3.459  0.00  0.00    -0.316 N 
ATOM      2  C7  <0> d           1.470  -4.697  -4.533  0.00  0.00     0.118 A 
ATOM      3  C8  <0> d           2.042  -5.130  -5.751  0.00  0.00     0.077 A 
ATOM      4  C9  <0> d           3.419  -5.353  -5.816  0.00  0.00     0.042 A 
ATOM      5  C10 <0> d           4.171  -5.136  -4.665  0.00  0.00     0.080 A 
ATOM      6  C11 <0> d           3.531  -4.696  -3.474  0.00  0.00     0.149 A 
ATOM      7  N3  <0> d           4.272  -4.489  -2.381  0.00  0.00    -0.212 NA
ATOM      8  C12 <0> d           5.587  -4.677  -2.372  0.00  0.00     0.139 A 
ATOM      9  C13 <0> d           6.293  -4.435  -1.174  0.00  0.00     0.051 A 
ATOM     10  C14 <0> d           7.641  -4.620  -1.138  0.00  0.00     0.005 A 
ATOM     11  C15 <0> d           8.314  -5.049  -2.292  0.00  0.00     0.018 A 
ATOM     12  C16 <0> d           7.626  -5.277  -3.431  0.00  0.00     0.102 A 
ATOM     13  N4  <0> d           6.274  -5.095  -3.480  0.00  0.00    -0.273 N 
ATOM     14  C17 <0> d           5.620  -5.344  -4.639  0.00  0.00     0.267 A 
ATOM     15  O1  <0> d           6.219  -5.717  -5.631  0.00  0.00    -0.267 OA
ENDROOT
BRANCH   3  16
ATOM     16  C18 <0> d           1.196  -5.343  -6.936  0.00  0.00     0.260 C 
ATOM     17  O2  <0> d           0.016  -5.048  -6.902  0.00  0.00    -0.267 OA
ATOM     18  N5  <0> d           1.728  -5.864  -8.059  0.00  0.00    -0.322 N 
ATOM     19  H20 <0> d           2.653  -6.157  -8.066  0.00  0.00     0.169 HD
BRANCH  18  20
ATOM     20  C19 <0> d           0.947  -5.983  -9.213  0.00  0.00     0.041 A 
ATOM     21  C24 <0> d           1.524  -5.807 -10.464  0.00  0.00    -0.035 A 
ATOM     22  C23 <0> d           0.751  -5.930 -11.602  0.00  0.00     0.009 A 
ATOM     23  C25 <0> d           2.992  -5.487 -10.580  0.00  0.00     0.050 C 
ATOM     24  C22 <0> d          -0.598  -6.218 -11.496  0.00  0.00     0.001 A 
ATOM     25  C21 <0> d          -1.176  -6.388 -10.252  0.00  0.00     0.002 A 
ATOM     26  C20 <0> d          -0.408  -6.272  -9.110  0.00  0.00     0.030 A 
ENDBRANCH  18  20
ENDBRANCH   3  16
BRANCH   2  27
ATOM     27  N2  <0> d           0.111  -4.476  -4.466  0.00  0.00    -0.384 N 
ATOM     28  H14 <0> d          -0.303  -4.253  -3.617  0.00  0.00     0.157 HD
ATOM     29  H28 <0> d          -0.432  -4.542  -5.267  0.00  0.00     0.157 HD
ENDBRANCH   2  27
BRANCH   1  30
ATOM     30  C6  <0> d           1.570  -4.051  -2.221  0.00  0.00     0.132 C 
BRANCH  30  31
ATOM     31  C5  <0> d           1.545  -2.522  -2.185  0.00  0.00     0.020 C 
BRANCH  31  32
ATOM     32  C4  <0> d           0.875  -2.053  -0.892  0.00  0.00     0.002 C 
BRANCH  32  33
ATOM     33  C3  <0> d           0.850  -0.523  -0.857  0.00  0.00    -0.000 C 
BRANCH  33  34
ATOM     34  C2  <0> d           0.180  -0.054   0.436  0.00  0.00    -0.005 C 
ATOM     35  C1  <0> d           0.155   1.475   0.472  0.00  0.00     0.005 C 
ENDBRANCH  33  34
ENDBRANCH  32  33
ENDBRANCH  31  32
ENDBRANCH  30  31
ENDBRANCH   1  30
TORSDOF 8
