REMARK  5 active torsions:
REMARK  status: ('A' for Active; 'I' for Inactive)
REMARK    1  A    between atoms: C3_3  and  C12_20 
REMARK    2  A    between atoms: N2_7  and  O2_8 
REMARK    3  A    between atoms: C10_14  and  N3_15 
REMARK    4  A    between atoms: N3_15  and  N4_16 
REMARK    5  A    between atoms: N4_16  and  C11_17 
ROOT
ATOM      1  C1  <0> d          -0.028   1.595   0.104  0.00  0.00     0.041 C 
ATOM      2  C2  <0> d           0.181   0.086   0.008  0.00  0.00     0.080 C 
ATOM      3  C3  <0> d          -1.133  -0.644  -0.131  0.00  0.00     0.082 C 
ATOM      4  N1  <0> d          -1.417  -1.247   0.984  0.00  0.00    -0.193 N 
ATOM      5  O1  <0> d          -2.573  -2.046   1.144  0.00  0.00    -0.083 OA
ATOM      6  C4  <0> d          -0.404  -0.958   2.010  0.00  0.00     0.182 C 
ATOM      7  N2  <0> d           0.779  -0.461   1.251  0.00  0.00    -0.147 NA
ATOM      8  C5  <0> d          -0.910   0.243   2.858  0.00  0.00     0.059 C 
ATOM      9  C6  <0> d          -1.657  -0.203   4.131  0.00  0.00     0.004 C 
ATOM     10  C7  <0> d          -2.604  -1.333   3.918  0.00  0.00     0.001 C 
ATOM     11  C8  <0> d          -1.859  -2.608   4.272  0.00  0.00     0.006 C 
ATOM     12  C9  <0> d          -1.093  -3.203   3.174  0.00  0.00     0.061 C 
ATOM     13  C10 <0> d          -0.026  -2.157   2.787  0.00  0.00     0.080 C 
ATOM     14  C16 <0> d           1.088  -0.239  -1.188  0.00  0.00     0.041 C 
ENDROOT
BRANCH  13  15
ATOM     15  N3  <0> d           1.183  -2.330   3.184  0.00  0.00    -0.177 NA
BRANCH  15  16
ATOM     16  N4  <0> d           1.494  -3.398   4.036  0.00  0.00    -0.254 N 
ATOM     17  H15 <0> d           0.786  -3.958   4.391  0.00  0.00     0.191 HD
BRANCH  16  18
ATOM     18  C11 <0> d           2.778  -3.646   4.364  0.00  0.00     0.185 C 
ATOM     19  S1  <0> d           3.159  -4.950   5.406  0.00  0.00    -0.040 SA
ATOM     20  N5  <0> d           3.762  -2.868   3.872  0.00  0.00    -0.375 N 
ATOM     21  H16 <0> d           3.546  -2.129   3.281  0.00  0.00     0.158 HD
ATOM     22  H17 <0> d           4.686  -3.046   4.108  0.00  0.00     0.158 HD
ENDBRANCH  16  18
ENDBRANCH  15  16
ENDBRANCH  13  15
BRANCH   7  23
ATOM     23  O2  <0> d           1.698  -1.550   0.912  0.00  0.00    -0.309 OA
ATOM     24  H4  <0> d           2.427  -1.284   0.336  0.00  0.00     0.237 HD
ENDBRANCH   7  23
BRANCH   3  25
ATOM     25  C12 <0> d          -1.967  -0.672  -1.337  0.00  0.00     0.031 A 
ATOM     26  S2  <0> d          -1.689   0.110  -2.917  0.00  0.00    -0.100 SA
ATOM     27  C15 <0> d          -3.167  -0.454  -3.743  0.00  0.00     0.050 A 
ATOM     28  C14 <0> d          -3.778  -1.187  -2.775  0.00  0.00     0.008 A 
ATOM     29  C13 <0> d          -3.179  -1.308  -1.544  0.00  0.00     0.021 A 
ENDBRANCH   3  25
TORSDOF 5
