REMARK  4 active torsions:
REMARK  status: ('A' for Active; 'I' for Inactive)
REMARK    1  A    between atoms: C4_5  and  C5_7 
REMARK    2  A    between atoms: C9_11  and  N2_13 
REMARK    3  A    between atoms: N2_13  and  S1_14 
REMARK    4  A    between atoms: S1_14  and  C11_17 
ROOT
ATOM      1  S1  <0> d           2.272  -8.259  -0.061  0.00  0.00     0.283 S 
ATOM      2  O2  <0> d           2.956  -8.245  -1.307  0.00  0.00    -0.198 OA
ATOM      3  O3  <0> d           2.957  -8.264   1.184  0.00  0.00    -0.198 OA
ENDROOT
BRANCH   1   4
ATOM      4  N2  <0> d           1.282  -6.931  -0.051  0.00  0.00    -0.160 NA
BRANCH   4   5
ATOM      5  C9  <0> d           1.835  -5.648  -0.041  0.00  0.00     0.070 A 
ATOM      6  C8  <0> d           3.215  -5.485  -0.040  0.00  0.00     0.032 A 
ATOM      7  C7  <0> d           3.766  -4.218  -0.030  0.00  0.00     0.003 A 
ATOM      8  C6  <0> d           2.950  -3.105  -0.021  0.00  0.00     0.016 A 
ATOM      9  C5  <0> d           1.562  -3.258  -0.022  0.00  0.00     0.019 A 
ATOM     10  C10 <0> d           1.006  -4.536  -0.027  0.00  0.00     0.048 A 
BRANCH   9  11
ATOM     11  C4  <0> d           0.685  -2.068  -0.012  0.00  0.00     0.179 A 
ATOM     12  N1  <0> d          -0.627  -2.083  -0.006  0.00  0.00    -0.234 NA
ATOM     13  C3  <0> d          -1.071  -0.816   0.003  0.00  0.00     0.151 A 
ATOM     14  C2  <0> d           0.002  -0.004   0.002  0.00  0.00     0.069 A 
ATOM     15  C1  <0> d          -0.018   1.503   0.010  0.00  0.00     0.078 C 
ATOM     16  O1  <0> d           1.098  -0.788  -0.013  0.00  0.00    -0.295 OA
ENDBRANCH   9  11
ENDBRANCH   4   5
ENDBRANCH   1   4
BRANCH   1  17
ATOM     17  C11 <0> d           1.234  -9.682  -0.072  0.00  0.00     0.084 A 
ATOM     18  C16 <0> d           0.829 -10.229  -1.273  0.00  0.00     0.057 A 
ATOM     19  C15 <0> d           0.016 -11.356  -1.285  0.00  0.00     0.063 A 
ATOM     20  C14 <0> d          -0.398 -11.924  -0.079  0.00  0.00     0.062 A 
ATOM     21  N3  <0> d          -0.384 -11.905  -2.500  0.00  0.00    -0.317 N 
ATOM     22  C13 <0> d           0.012 -11.361   1.125  0.00  0.00     0.033 A 
ATOM     23  N4  <0> d          -1.217 -13.050  -0.070  0.00  0.00    -0.317 N 
ATOM     24  C12 <0> d           0.824 -10.246   1.124  0.00  0.00     0.028 A 
ATOM     25  C18 <0> d          -1.620 -13.602  -1.233  0.00  0.00     0.314 A 
ATOM     26  H2  <0> d          -1.499 -13.437   0.773  0.00  0.00     0.169 HD
ATOM     27  C17 <0> d          -1.177 -12.995  -2.522  0.00  0.00     0.314 A 
ATOM     28  O5  <0> d          -2.334 -14.584  -1.231  0.00  0.00    -0.262 OA
ATOM     29  O4  <0> d          -1.527 -13.479  -3.580  0.00  0.00    -0.262 OA
ATOM     30  H1  <0> d          -0.090 -11.503  -3.333  0.00  0.00     0.169 HD
ENDBRANCH   1  17
TORSDOF 4
