REMARK  3 active torsions:
REMARK  status: ('A' for Active; 'I' for Inactive)
REMARK    1  A    between atoms: C3_3  and  N2_18 
REMARK    2  A    between atoms: C6_6  and  C7_7 
REMARK    3  A    between atoms: C12_16  and  N3_24 
ROOT
ATOM      1  C7  <0> d           2.490   1.048  -0.016  0.00  0.00     0.294 C 
ATOM      2  O1  <0> d           2.584   0.216   1.144  0.00  0.00    -0.355 OA
ATOM      3  C8  <0> d           3.810  -0.523   1.221  0.00  0.00     0.204 C 
ATOM      4  C9  <0> d           4.978   0.447   1.160  0.00  0.00     0.135 C 
ATOM      5  C10 <0> d           4.862   1.385  -0.030  0.00  0.00     0.204 C 
ATOM      6  O2  <0> d           3.563   1.992  -0.021  0.00  0.00    -0.355 OA
ATOM      7  C11 <0> d           5.146   1.203   2.455  0.00  0.00     0.243 C 
ATOM      8  O3  <0> d           4.205   1.749   2.993  0.00  0.00    -0.272 OA
ATOM      9  N1  <0> d           6.366   1.248   2.983  0.00  0.00    -0.324 N 
ATOM     10  C12 <0> d           7.479   0.582   2.277  0.00  0.00     0.349 C 
ATOM     11  S1  <0> d           6.563  -0.481   1.078  0.00  0.00    -0.092 SA
ATOM     12  H11 <0> d           6.523   1.713   3.820  0.00  0.00     0.165 HD
ENDROOT
BRANCH  10  13
ATOM     13  N3  <0> d           8.293  -0.244   3.186  0.00  0.00    -0.049 N 
ATOM     14  H12 <0> d           8.778   0.349   3.857  0.00  0.00     0.277 HD
ATOM     15  H13 <0> d           7.699  -0.904   3.684  0.00  0.00     0.277 HD
ATOM     16  H14 <0> d           8.987  -0.765   2.637  0.00  0.00     0.277 HD
ENDBRANCH  10  13
BRANCH   1  17
ATOM     17  C6  <0> d           1.175   1.783   0.000  0.00  0.00    -0.004 A 
ATOM     18  C1  <0> d          -0.013   1.076   0.008  0.00  0.00     0.014 A 
ATOM     19  C2  <0> d          -1.219   1.751   0.017  0.00  0.00     0.037 A 
ATOM     20  C3  <0> d          -1.238   3.133   0.029  0.00  0.00     0.102 A 
ATOM     21  C4  <0> d          -0.050   3.840   0.022  0.00  0.00     0.037 A 
ATOM     22  C5  <0> d           1.156   3.165   0.008  0.00  0.00     0.014 A 
BRANCH  20  23
ATOM     23  N2  <0> d          -2.529   3.855   0.044  0.00  0.00    -0.116 N 
ATOM     24  O4  <0> d          -2.546   5.073   0.050  0.00  0.00    -0.532 OA
ATOM     25  O5  <0> d          -3.576   3.232   0.050  0.00  0.00    -0.532 OA
ENDBRANCH  20  23
ENDBRANCH   1  17
TORSDOF 3
