REMARK  4 active torsions:
REMARK  status: ('A' for Active; 'I' for Inactive)
REMARK    1  A    between atoms: C4_4  and  N1_7 
REMARK    2  A    between atoms: C11_16  and  S1_17 
REMARK    3  A    between atoms: S1_17  and  C12_18 
REMARK    4  A    between atoms: C12_18  and  C13_19 
REMARK       I    between atoms: C13_19  and  N5_21 
ROOT
ATOM      1  N1  <0> d          -1.237   2.069   0.019  0.00  0.00    -0.107 N 
ATOM      2  C7  <0> d          -1.279   3.420   0.128  0.00  0.00     0.276 C 
ATOM      3  O1  <0> d          -0.223   4.013   0.260  0.00  0.00    -0.266 OA
ATOM      4  C8  <0> d          -2.502   4.115   0.148  0.00  0.00     0.049 C 
ATOM      5  C9  <0> d          -3.683   3.420   0.233  0.00  0.00     0.083 C 
ATOM      6  N2  <0> d          -3.656   2.065  -0.030  0.00  0.00    -0.117 N 
ATOM      7  C10 <0> d          -2.443   1.392  -0.083  0.00  0.00     0.742 A 
ATOM      8  N3  <0> d          -2.688   0.124  -0.209  0.00  0.00     0.046 NA
ATOM      9  N4  <0> d          -4.074  -0.033  -0.352  0.00  0.00    -0.107 NA
ATOM     10  C11 <0> d          -4.630   1.160  -0.283  0.00  0.00     0.211 A 
ATOM     11  C14 <0> d          -4.917   4.151   0.551  0.00  0.00    -0.001 A 
ATOM     12  C15 <0> d          -5.941   3.601   1.317  0.00  0.00     0.014 A 
ATOM     13  C16 <0> d          -7.080   4.340   1.569  0.00  0.00     0.001 A 
ATOM     14  C17 <0> d          -7.199   5.629   1.077  0.00  0.00     0.001 A 
ATOM     15  C18 <0> d          -6.167   6.199   0.350  0.00  0.00     0.008 A 
ATOM     16  C19 <0> d          -5.027   5.474   0.100  0.00  0.00    -0.045 A 
ATOM     17  C20 <0> d          -3.859   6.061  -0.645  0.00  0.00     0.054 C 
ATOM     18  C21 <0> d          -2.555   5.613   0.025  0.00  0.00    -0.002 C 
ATOM     19  C22 <0> d          -1.382   6.152  -0.809  0.00  0.00     0.015 C 
ATOM     20  C23 <0> d          -0.807   7.337   0.004  0.00  0.00     0.001 C 
ATOM     21  C24 <0> d          -1.071   6.930   1.474  0.00  0.00     0.001 C 
ATOM     22  C25 <0> d          -2.453   6.245   1.422  0.00  0.00     0.015 C 
ENDROOT
BRANCH  10  23
ATOM     23  S1  <0> d          -6.346   1.487  -0.523  0.00  0.00    -0.080 SA
BRANCH  23  24
ATOM     24  C12 <0> d          -7.068  -0.151  -0.814  0.00  0.00     0.184 C 
BRANCH  24  25
ATOM     25  C13 <0> d          -8.553  -0.013  -1.036  0.00  0.00     0.225 C 
ATOM     26  O2  <0> d          -9.072   1.082  -1.002  0.00  0.00    -0.273 OA
ATOM     27  N5  <0> d          -9.303  -1.107  -1.273  0.00  0.00    -0.369 N 
ATOM     28  H8  <0> d          -8.888  -1.984  -1.301  0.00  0.00     0.159 HD
ATOM     29  H9  <0> d         -10.258  -1.019  -1.416  0.00  0.00     0.159 HD
ENDBRANCH  24  25
ENDBRANCH  23  24
ENDBRANCH  10  23
BRANCH   1  30
ATOM     30  C4  <0> d          -0.017   1.385   0.010  0.00  0.00     0.060 A 
ATOM     31  C3  <0> d           0.324   0.555   1.070  0.00  0.00     0.030 A 
ATOM     32  C2  <0> d           1.527  -0.123   1.055  0.00  0.00     0.002 A 
ATOM     33  C1  <0> d           2.391   0.022  -0.014  0.00  0.00     0.000 A 
ATOM     34  C6  <0> d           2.055   0.848  -1.072  0.00  0.00     0.002 A 
ATOM     35  C5  <0> d           0.854   1.529  -1.063  0.00  0.00     0.030 A 
ENDBRANCH   1  30
TORSDOF 4
