REMARK  4 active torsions:
REMARK  status: ('A' for Active; 'I' for Inactive)
REMARK    1  A    between atoms: C2_2  and  N1_3 
REMARK    2  A    between atoms: C9_11  and  C10_12 
REMARK    3  A    between atoms: C10_12  and  C11_13 
REMARK    4  A    between atoms: C10_12  and  N4_27 
ROOT
ATOM      1  C11 <0> d          -2.504   3.360  -0.760  0.00  0.00     0.003 A 
ATOM      2  C12 <0> d          -1.607   2.284  -0.862  0.00  0.00     0.000 A 
ATOM      3  C13 <0> d          -1.981   0.977  -0.509  0.00  0.00     0.014 A 
ATOM      4  C14 <0> d          -1.076  -0.034  -0.620  0.00  0.00     0.001 A 
ATOM      5  C15 <0> d           0.212   0.208  -1.091  0.00  0.00     0.002 A 
ATOM      6  C16 <0> d           0.606   1.461  -1.448  0.00  0.00     0.030 A 
ATOM      7  C17 <0> d          -0.297   2.533  -1.341  0.00  0.00     0.043 A 
ATOM      8  N3  <0> d           0.055   3.773  -1.679  0.00  0.00    -0.358 N 
ATOM      9  C18 <0> d          -0.779   4.793  -1.583  0.00  0.00     0.016 A 
ATOM     10  C19 <0> d          -2.078   4.611  -1.126  0.00  0.00    -0.026 A 
ATOM     11  C20 <0> d          -3.066   5.742  -1.017  0.00  0.00     0.041 C 
ATOM     12  C21 <0> d          -2.345   7.088  -1.034  0.00  0.00     0.005 C 
ATOM     13  C22 <0> d          -1.403   7.117  -2.243  0.00  0.00     0.006 C 
ATOM     14  C23 <0> d          -0.252   6.149  -1.983  0.00  0.00     0.057 C 
ATOM     15  H25 <0> d           1.070   3.974  -2.053  0.00  0.00     0.166 HD
ENDROOT
BRANCH   1  16
ATOM     16  C10 <0> d          -3.909   3.144  -0.257  0.00  0.00     0.321 C 
BRANCH  16  17
ATOM     17  C9  <0> d          -4.013   3.631   1.165  0.00  0.00     0.145 A 
ATOM     18  N1  <0> d          -3.843   2.854   2.269  0.00  0.00    -0.331 N 
ATOM     19  C3  <0> d          -4.015   3.665   3.373  0.00  0.00     0.065 A 
ATOM     20  C8  <0> d          -4.302   4.946   2.872  0.00  0.00     0.085 A 
ATOM     21  C4  <0> d          -3.965   3.455   4.744  0.00  0.00     0.032 A 
ATOM     22  C7  <0> d          -4.534   5.997   3.763  0.00  0.00     0.034 A 
ATOM     23  N2  <0> d          -4.285   4.854   1.517  0.00  0.00    -0.231 NA
ATOM     24  C6  <0> d          -4.480   5.772   5.109  0.00  0.00     0.002 A 
ATOM     25  C5  <0> d          -4.197   4.507   5.605  0.00  0.00     0.002 A 
BRANCH  18  26
ATOM     26  C2  <0> d          -3.532   1.422   2.284  0.00  0.00     0.126 C 
ATOM     27  C1  <0> d          -2.021   1.231   2.425  0.00  0.00     0.027 C 
ENDBRANCH  18  26
ENDBRANCH  16  17
BRANCH  16  28
ATOM     28  N4  <0> d          -4.851   3.892  -1.101  0.00  0.00     0.094 N 
ATOM     29  H23 <0> d          -4.774   3.537  -2.139  0.00  0.00     0.314 HD
ATOM     30  H24 <0> d          -5.876   3.734  -0.734  0.00  0.00     0.314 HD
ENDBRANCH  16  28
ENDBRANCH   1  16
TORSDOF 4
