REMARK  4 active torsions:
REMARK  status: ('A' for Active; 'I' for Inactive)
REMARK    1  A    between atoms: C6_6  and  C11_16 
REMARK    2  A    between atoms: N2_8  and  C7_9 
REMARK       I    between atoms: C11_16  and  N3_18 
REMARK    3  A    between atoms: N3_18  and  C12_19 
REMARK    4  A    between atoms: C13_20  and  C20_28 
REMARK       I    between atoms: C20_28  and  N4_30 
ROOT
ATOM      1  C11 <0> d           0.285  -2.944   1.340  0.00  0.00     0.277 C 
ATOM      2  O3  <0> d          -0.581  -2.893   0.487  0.00  0.00    -0.266 OA
ATOM      3  N3  <0> d           0.522  -4.100   1.990  0.00  0.00    -0.315 N 
ATOM      4  H14 <0> d           1.213  -4.141   2.670  0.00  0.00     0.170 HD
ENDROOT
BRANCH   1   5
ATOM      5  C6  <0> d           1.075  -1.739   1.663  0.00  0.00     0.153 A 
ATOM      6  C5  <0> d           0.946  -0.469   1.076  0.00  0.00     0.002 A 
ATOM      7  C4  <0> d           1.872   0.316   1.680  0.00  0.00     0.040 A 
ATOM      8  C21 <0> d           0.002  -0.004   0.002  0.00  0.00     0.043 C 
ATOM      9  C3  <0> d           2.085   1.771   1.350  0.00  0.00     0.059 C 
ATOM     10  N2  <0> d           2.515  -0.448   2.580  0.00  0.00    -0.267 N 
ATOM     11  C2  <0> d           1.417   2.062  -0.000  0.00  0.00     0.006 C 
ATOM     12  C1  <0> d          -0.019   1.530   0.011  0.00  0.00     0.005 C 
ATOM     13  N1  <0> d           2.041  -1.646   2.560  0.00  0.00    -0.166 NA
BRANCH  10  14
ATOM     14  C7  <0> d           3.595   0.015   3.454  0.00  0.00     0.125 C 
ATOM     15  C10 <0> d           3.180  -0.166   4.942  0.00  0.00     0.167 C 
ATOM     16  S1  <0> d           4.830  -0.119   5.761  0.00  0.00     0.146 S 
ATOM     17  C9  <0> d           5.893  -0.568   4.329  0.00  0.00     0.142 C 
ATOM     18  O1  <0> d           5.116   1.217   6.149  0.00  0.00    -0.228 OA
ATOM     19  O2  <0> d           4.896  -1.158   6.729  0.00  0.00    -0.228 OA
ATOM     20  C8  <0> d           4.859  -0.825   3.206  0.00  0.00     0.043 C 
ENDBRANCH  10  14
ENDBRANCH   1   5
BRANCH   3  21
ATOM     21  C12 <0> d          -0.219  -5.231   1.687  0.00  0.00     0.093 A 
ATOM     22  S2  <0> d          -1.452  -5.385   0.557  0.00  0.00    -0.075 SA
ATOM     23  C15 <0> d          -1.857  -7.092   0.783  0.00  0.00    -0.008 A 
ATOM     24  C14 <0> d          -1.020  -7.517   1.754  0.00  0.00    -0.026 A 
ATOM     25  C16 <0> d          -2.895  -7.903   0.071  0.00  0.00     0.047 C 
ATOM     26  C13 <0> d          -0.118  -6.493   2.252  0.00  0.00     0.073 A 
ATOM     27  C19 <0> d          -1.054  -8.954   2.254  0.00  0.00     0.041 C 
ATOM     28  C18 <0> d          -2.387  -9.585   1.843  0.00  0.00     0.005 C 
ATOM     29  C17 <0> d          -2.615  -9.389   0.341  0.00  0.00     0.005 C 
BRANCH  26  30
ATOM     30  C20 <0> d           0.857  -6.782   3.307  0.00  0.00     0.252 C 
ATOM     31  O4  <0> d           0.552  -6.632   4.476  0.00  0.00    -0.268 OA
ATOM     32  N4  <0> d           2.092  -7.214   2.983  0.00  0.00    -0.366 N 
ATOM     33  H23 <0> d           2.335  -7.333   2.051  0.00  0.00     0.159 HD
ATOM     34  H24 <0> d           2.738  -7.405   3.681  0.00  0.00     0.159 HD
ENDBRANCH  26  30
ENDBRANCH   3  21
TORSDOF 4
