REMARK  7 active torsions:
REMARK  status: ('A' for Active; 'I' for Inactive)
REMARK    1  A    between atoms: C2_2  and  N1_3 
REMARK    2  A    between atoms: N1_3  and  C3_4 
REMARK    3  A    between atoms: N1_3  and  C5_6 
REMARK    4  A    between atoms: C8_9  and  N3_12 
REMARK       I    between atoms: N3_12  and  C10_13 
REMARK    5  A    between atoms: C10_13  and  C11_15 
REMARK       I    between atoms: C11_15  and  N4_17 
REMARK    6  A    between atoms: N4_17  and  C12_18 
REMARK    7  A    between atoms: C12_18  and  C14_20 
ROOT
ATOM      1  N3  <0> d          -3.986  -1.525   4.762  0.00  0.00    -0.318 N 
ATOM      2  C10 <0> d          -5.247  -1.998   4.715  0.00  0.00     0.314 C 
ATOM      3  O1  <0> d          -5.752  -2.275   3.646  0.00  0.00    -0.262 OA
ATOM      4  H14 <0> d          -3.555  -1.377   5.619  0.00  0.00     0.169 HD
ENDROOT
BRANCH   2   5
ATOM      5  C11 <0> d          -6.023  -2.182   5.978  0.00  0.00     0.310 C 
ATOM      6  O2  <0> d          -5.518  -1.905   7.046  0.00  0.00    -0.262 OA
ATOM      7  N4  <0> d          -7.284  -2.655   5.930  0.00  0.00    -0.344 N 
ATOM      8  H15 <0> d          -7.688  -2.876   5.077  0.00  0.00     0.163 HD
BRANCH   7   9
ATOM      9  C12 <0> d          -8.046  -2.835   7.169  0.00  0.00     0.118 C 
ATOM     10  C13 <0> d          -8.712  -1.513   7.555  0.00  0.00     0.037 C 
BRANCH   9  11
ATOM     11  C14 <0> d          -9.103  -3.888   6.960  0.00  0.00     0.014 A 
ATOM     12  C16 <0> d          -9.397  -4.900   7.809  0.00  0.00     0.036 A 
ATOM     13  N6  <0> d         -10.400  -5.618   7.261  0.00  0.00    -0.278 N 
ATOM     14  C17 <0> d          -8.727  -5.175   9.130  0.00  0.00     0.070 C 
ATOM     15  N5  <0> d         -10.728  -5.032   6.031  0.00  0.00    -0.177 NA
ATOM     16  C18 <0> d         -11.032  -6.803   7.846  0.00  0.00     0.179 C 
ATOM     17  C15 <0> d          -9.949  -3.996   5.852  0.00  0.00     0.061 A 
ATOM     18  C19 <0> d          -9.963  -3.077   4.657  0.00  0.00     0.073 C 
ENDBRANCH   9  11
ENDBRANCH   7   9
ENDBRANCH   2   5
BRANCH   1  19
ATOM     19  C8  <0> d          -3.297  -1.249   3.575  0.00  0.00     0.052 A 
ATOM     20  C7  <0> d          -3.985  -0.796   2.450  0.00  0.00     0.035 A 
ATOM     21  C6  <0> d          -3.264  -0.535   1.299  0.00  0.00     0.052 A 
ATOM     22  C5  <0> d          -1.887  -0.732   1.302  0.00  0.00     0.125 A 
ATOM     23  N2  <0> d          -1.268  -1.168   2.388  0.00  0.00    -0.241 NA
ATOM     24  C9  <0> d          -1.923  -1.422   3.505  0.00  0.00     0.148 A 
BRANCH  22  25
ATOM     25  N1  <0> d          -1.152  -0.473   0.149  0.00  0.00    -0.367 N 
BRANCH  25  26
ATOM     26  C2  <0> d          -1.810   0.114  -1.022  0.00  0.00     0.120 C 
ATOM     27  C1  <0> d          -2.343  -1.004  -1.920  0.00  0.00     0.026 C 
ENDBRANCH  25  26
BRANCH  25  28
ATOM     28  C3  <0> d           0.278  -0.786   0.105  0.00  0.00     0.120 C 
ATOM     29  C4  <0> d           1.081   0.427   0.581  0.00  0.00     0.026 C 
ENDBRANCH  25  28
ENDBRANCH  22  25
ENDBRANCH   1  19
TORSDOF 7
