REMARK  9 active torsions:
REMARK  status: ('A' for Active; 'I' for Inactive)
REMARK    1  A    between atoms: O1_2  and  C2_3 
REMARK    2  A    between atoms: C5_6  and  C8_10 
REMARK    3  A    between atoms: C8_10  and  N1_11 
REMARK    4  A    between atoms: N1_11  and  C9_12 
REMARK    5  A    between atoms: C9_12  and  C10_13 
REMARK    6  A    between atoms: C10_13  and  N2_14 
REMARK    7  A    between atoms: N2_14  and  C11_15 
REMARK    8  A    between atoms: C11_15  and  C12_16 
REMARK    9  A    between atoms: C12_16  and  O2_17 
ROOT
ATOM      1  C8  <0> d           2.490   1.045  -0.016  0.00  0.00     0.270 C 
ENDROOT
BRANCH   1   2
ATOM      2  C5  <0> d           1.176   1.783   0.000  0.00  0.00    -0.030 A 
ATOM      3  C4  <0> d          -0.013   1.076   0.008  0.00  0.00     0.030 A 
ATOM      4  C3  <0> d          -1.219   1.750   0.017  0.00  0.00     0.046 A 
ATOM      5  C2  <0> d          -1.237   3.138   0.029  0.00  0.00     0.102 A 
ATOM      6 Br2  <0> d          -2.844   0.782   0.020  0.00  0.00    -0.048 Br
ATOM      7  C7  <0> d          -0.043   3.845   0.022  0.00  0.00     0.046 A 
ATOM      8  C6  <0> d           1.161   3.165   0.007  0.00  0.00     0.030 A 
ATOM      9 Br1  <0> d          -0.063   5.735   0.032  0.00  0.00    -0.048 Br
BRANCH   5  10
ATOM     10  O1  <0> d          -2.423   3.803   0.043  0.00  0.00    -0.353 OA
ATOM     11  C1  <0> d          -3.000   4.127  -1.223  0.00  0.00     0.210 C 
ENDBRANCH   5  10
ENDBRANCH   1   2
BRANCH   1  12
ATOM     12  N1  <0> d           2.903   0.813  -1.406  0.00  0.00    -0.070 N 
ATOM     13  H8  <0> d           2.139   0.212  -1.921  0.00  0.00     0.277 HD
ATOM     14  H19 <0> d           3.018   1.778  -1.921  0.00  0.00     0.277 HD
BRANCH  12  15
ATOM     15  C9  <0> d           4.183   0.094  -1.462  0.00  0.00     0.262 C 
BRANCH  15  16
ATOM     16  C10 <0> d           4.580  -0.129  -2.922  0.00  0.00     0.297 C 
BRANCH  16  17
ATOM     17  N2  <0> d           5.860  -0.848  -2.978  0.00  0.00     0.087 N 
ATOM     18  H13 <0> d           6.636  -0.254  -2.473  0.00  0.00     0.316 HD
BRANCH  17  19
ATOM     19  C11 <0> d           6.274  -1.080  -4.368  0.00  0.00     0.295 C 
BRANCH  19  20
ATOM     20  C12 <0> d           7.608  -1.829  -4.385  0.00  0.00     0.194 C 
BRANCH  20  21
ATOM     21  O2  <0> d           7.431  -3.130  -3.821  0.00  0.00    -0.399 OA
ATOM     22  H18 <0> d           8.285  -3.819  -3.747  0.00  0.00     0.209 HD
ENDBRANCH  20  21
ENDBRANCH  19  20
ENDBRANCH  17  19
ENDBRANCH  16  17
ENDBRANCH  15  16
ENDBRANCH  12  15
ENDBRANCH   1  12
TORSDOF 9
