REMARK  7 active torsions:
REMARK  status: ('A' for Active; 'I' for Inactive)
REMARK    1  A    between atoms: C7_7  and  N1_8 
REMARK       I    between atoms: N1_8  and  C8_9 
REMARK    2  A    between atoms: C8_9  and  C9_11 
REMARK    3  A    between atoms: C9_11  and  N3_30 
REMARK    4  A    between atoms: C11_13  and  C12_14 
REMARK    5  A    between atoms: C11_13  and  N3_30 
REMARK       I    between atoms: C12_14  and  N2_16 
REMARK    6  A    between atoms: N2_16  and  C13_17 
REMARK    7  A    between atoms: C18_22  and  C19_23 
ROOT
ATOM      1  C10 <0> d          -3.159  -3.480   0.854  0.00  0.00     0.270 C 
ATOM      2  N3  <0> d          -2.466  -4.351  -0.118  0.00  0.00    -0.058 N 
ATOM      3  H32 <0> d          -3.018  -4.391  -0.983  0.00  0.00     0.280 HD
ENDROOT
BRANCH   2   4
ATOM      4  C9  <0> d          -1.129  -3.800  -0.426  0.00  0.00     0.337 C 
BRANCH   4   5
ATOM      5  C8  <0> d          -1.299  -2.508  -1.184  0.00  0.00     0.248 C 
ATOM      6  N1  <0> d          -0.216  -1.821  -1.595  0.00  0.00    -0.325 N 
ATOM      7  H7  <0> d           0.671  -2.196  -1.476  0.00  0.00     0.169 HD
ATOM      8  O1  <0> d          -2.411  -2.087  -1.423  0.00  0.00    -0.271 OA
BRANCH   6   9
ATOM      9  C7  <0> d          -0.369  -0.565  -2.194  0.00  0.00     0.046 A 
ATOM     10  C2  <0> d          -1.166  -0.426  -3.323  0.00  0.00    -0.035 A 
ATOM     11  C1  <0> d          -1.866  -1.626  -3.905  0.00  0.00     0.050 C 
ATOM     12  C3  <0> d          -1.321   0.816  -3.908  0.00  0.00     0.009 A 
ATOM     13  C4  <0> d          -0.673   1.917  -3.378  0.00  0.00     0.001 A 
ATOM     14  C5  <0> d           0.126   1.780  -2.257  0.00  0.00     0.009 A 
ATOM     15  C6  <0> d           0.279   0.542  -1.664  0.00  0.00    -0.035 A 
ATOM     16  C23 <0> d           1.149   0.394  -0.443  0.00  0.00     0.050 C 
ENDBRANCH   6   9
ENDBRANCH   4   5
ENDBRANCH   2   4
BRANCH   2  17
ATOM     17  C11 <0> d          -2.334  -5.717   0.431  0.00  0.00     0.337 C 
BRANCH  17  18
ATOM     18  C12 <0> d          -3.705  -6.336   0.529  0.00  0.00     0.248 C 
ATOM     19  O2  <0> d          -4.682  -5.700   0.194  0.00  0.00    -0.271 OA
ATOM     20  N2  <0> d          -3.845  -7.595   0.989  0.00  0.00    -0.325 N 
ATOM     21  H15 <0> d          -3.075  -8.074   1.333  0.00  0.00     0.169 HD
BRANCH  20  22
ATOM     22  C13 <0> d          -5.101  -8.211   0.969  0.00  0.00     0.047 A 
ATOM     23  C18 <0> d          -5.271  -9.421   0.310  0.00  0.00    -0.027 A 
ATOM     24  C17 <0> d          -6.513 -10.027   0.292  0.00  0.00     0.010 A 
ATOM     25  C16 <0> d          -7.584  -9.430   0.930  0.00  0.00     0.001 A 
ATOM     26  C15 <0> d          -7.418  -8.225   1.587  0.00  0.00     0.009 A 
ATOM     27  C14 <0> d          -6.178  -7.617   1.614  0.00  0.00    -0.035 A 
ATOM     28  C22 <0> d          -5.995  -6.307   2.337  0.00  0.00     0.050 C 
BRANCH  23  29
ATOM     29  C19 <0> d          -4.104 -10.072  -0.386  0.00  0.00     0.013 C 
ATOM     30  C20 <0> d          -3.850 -11.451   0.226  0.00  0.00     0.015 C 
ATOM     31  C21 <0> d          -4.419 -10.226  -1.875  0.00  0.00     0.015 C 
ENDBRANCH  23  29
ENDBRANCH  20  22
ENDBRANCH  17  18
ENDBRANCH   2  17
TORSDOF 7
