REMARK  2 active torsions:
REMARK  status: ('A' for Active; 'I' for Inactive)
REMARK    1  A    between atoms: C5_5  and  C6_7 
REMARK    2  A    between atoms: C11_16  and  C12_18 
ROOT
ATOM      1  C6  <0> d           1.040  -4.033  -0.026  0.00  0.00     0.006 A 
ATOM      2  C7  <0> d           0.586  -4.955   0.863  0.00  0.00     0.065 A 
ATOM      3  S2  <0> d           1.511  -6.420   0.447  0.00  0.00    -0.080 SA
ATOM      4  C8  <0> d           2.476  -5.772  -0.894  0.00  0.00     0.116 A 
ATOM      5  C9  <0> d           2.054  -4.434  -0.993  0.00  0.00     0.080 A 
ATOM      6  C10 <0> d           2.679  -3.657  -2.021  0.00  0.00     0.261 A 
ATOM      7  O1  <0> d           2.380  -2.486  -2.179  0.00  0.00    -0.267 OA
ATOM      8  N1  <0> d           3.602  -4.238  -2.810  0.00  0.00    -0.304 N 
ATOM      9  H1  <0> d           4.029  -3.716  -3.508  0.00  0.00     0.171 HD
ATOM     10  C11 <0> d           3.948  -5.551  -2.646  0.00  0.00     0.180 A 
ATOM     11  N2  <0> d           3.396  -6.281  -1.703  0.00  0.00    -0.219 NA
ENDROOT
BRANCH   1  12
ATOM     12  C5  <0> d           0.512  -2.653  -0.015  0.00  0.00     0.017 A 
ATOM     13  C4  <0> d          -0.789  -2.227  -0.007  0.00  0.00     0.021 A 
ATOM     14  C3  <0> d          -1.042  -0.871   0.002  0.00  0.00     0.015 A 
ATOM     15  C2  <0> d           0.002  -0.004   0.002  0.00  0.00    -0.021 A 
ATOM     16  C1  <0> d          -0.018   1.503   0.010  0.00  0.00     0.056 C 
ATOM     17  S1  <0> d           1.406  -1.107  -0.018  0.00  0.00    -0.095 SA
ENDBRANCH   1  12
BRANCH  10  18
ATOM     18  C12 <0> d           4.967  -6.154  -3.534  0.00  0.00     0.195 A 
ATOM     19  N4  <0> d           5.298  -7.428  -3.369  0.00  0.00    -0.238 NA
ATOM     20  C15 <0> d           6.199  -7.998  -4.148  0.00  0.00     0.120 A 
ATOM     21  C14 <0> d           6.809  -7.245  -5.141  0.00  0.00     0.038 A 
ATOM     22  C13 <0> d           6.444  -5.914  -5.283  0.00  0.00     0.120 A 
ATOM     23  N3  <0> d           5.531  -5.406  -4.473  0.00  0.00    -0.238 NA
ENDBRANCH  10  18
TORSDOF 2
