REMARK  3 active torsions:
REMARK  status: ('A' for Active; 'I' for Inactive)
REMARK    1  A    between atoms: C5_5  and  S1_7 
REMARK    2  A    between atoms: S1_7  and  N1_10 
REMARK    3  A    between atoms: N1_10  and  C7_11 
ROOT
ATOM      1  S1  <0> d           3.871   2.209  -0.036  0.00  0.00     0.265 S 
ATOM      2  O1  <0> d           3.857   3.265   0.915  0.00  0.00    -0.200 OA
ATOM      3  O2  <0> d           4.739   1.091   0.080  0.00  0.00    -0.200 OA
ENDROOT
BRANCH   1   4
ATOM      4  C5  <0> d           2.231   1.569  -0.101  0.00  0.00     0.111 A 
ATOM      5  C4  <0> d           1.129   2.454  -0.235  0.00  0.00     0.119 A 
ATOM      6  C3  <0> d          -0.216   1.887  -0.285  0.00  0.00     0.098 A 
ATOM      7  N2  <0> d           1.115   3.782  -0.326  0.00  0.00    -0.190 NA
ATOM      8  C2  <0> d          -0.359   0.478  -0.199  0.00  0.00     0.035 A 
ATOM      9  N3  <0> d          -1.150   2.827  -0.416  0.00  0.00    -0.191 NA
ATOM     10  C1  <0> d           0.737  -0.308  -0.073  0.00  0.00     0.004 A 
ATOM     11  C6  <0> d           2.022   0.233  -0.025  0.00  0.00     0.028 A 
ATOM     12  S2  <0> d          -0.391   4.197  -0.453  0.00  0.00     0.117 SA
ENDBRANCH   1   4
BRANCH   1  13
ATOM     13  N1  <0> d           4.185   2.901  -1.507  0.00  0.00    -0.281 N 
ATOM     14  H4  <0> d           4.381   3.850  -1.565  0.00  0.00     0.179 HD
BRANCH  13  15
ATOM     15  C7  <0> d           4.169   2.119  -2.665  0.00  0.00     0.042 A 
ATOM     16  C12 <0> d           3.508   2.571  -3.801  0.00  0.00     0.031 A 
ATOM     17  C11 <0> d           3.494   1.796  -4.944  0.00  0.00     0.021 A 
ATOM     18  C10 <0> d           4.136   0.571  -4.958  0.00  0.00     0.011 A 
ATOM     19  C9  <0> d           4.795   0.118  -3.829  0.00  0.00     0.021 A 
ATOM     20 Br1  <0> d           4.114  -0.487  -6.525  0.00  0.00    -0.051 Br
ATOM     21  C8  <0> d           4.817   0.891  -2.685  0.00  0.00     0.031 A 
ENDBRANCH  13  15
ENDBRANCH   1  13
TORSDOF 3
