REMARK  4 active torsions:
REMARK  status: ('A' for Active; 'I' for Inactive)
REMARK    1  A    between atoms: C3_3  and  N3_24 
REMARK    2  A    between atoms: C6_6  and  C7_7 
REMARK       I    between atoms: C7_7  and  N1_9 
REMARK    3  A    between atoms: N1_9  and  N2_10 
REMARK       I    between atoms: N2_10  and  C8_11 
REMARK    4  A    between atoms: C8_11  and  C9_13 
ROOT
ATOM      1  C7  <0> d           7.824   1.004  -0.778  0.00  0.00     0.270 C 
ATOM      2  O1  <0> d           8.423   2.049  -0.617  0.00  0.00    -0.266 OA
ATOM      3  N1  <0> d           8.504  -0.127  -1.056  0.00  0.00    -0.263 N 
ATOM      4  H5  <0> d           8.025  -0.961  -1.185  0.00  0.00     0.190 HD
ENDROOT
BRANCH   3   5
ATOM      5  N2  <0> d           9.900  -0.097  -1.159  0.00  0.00    -0.263 N 
ATOM      6  C8  <0> d          10.580  -1.227  -1.436  0.00  0.00     0.277 C 
ATOM      7  O2  <0> d           9.980  -2.274  -1.597  0.00  0.00    -0.265 OA
ATOM      8  H6  <0> d          10.379   0.737  -1.030  0.00  0.00     0.190 HD
BRANCH   6   9
ATOM      9  C9  <0> d          12.042  -1.196  -1.543  0.00  0.00     0.075 A 
ATOM     10  S1  <0> d          13.156   0.181  -1.355  0.00  0.00    -0.089 SA
ATOM     11  C12 <0> d          14.652  -0.666  -1.607  0.00  0.00    -0.010 A 
ATOM     12  C11 <0> d          14.282  -1.933  -1.877  0.00  0.00    -0.043 A 
ATOM     13  C13 <0> d          15.995  -0.004  -1.442  0.00  0.00     0.046 C 
ATOM     14  C10 <0> d          12.918  -2.225  -1.810  0.00  0.00     0.033 A 
ATOM     15  C18 <0> d          15.242  -3.022  -2.337  0.00  0.00     0.040 C 
ATOM     16  C17 <0> d          15.625  -2.754  -3.793  0.00  0.00     0.005 C 
ATOM     17  C16 <0> d          16.164  -1.325  -3.909  0.00  0.00     0.000 C 
ATOM     18  C15 <0> d          17.428  -1.258  -3.076  0.00  0.00     0.000 C 
ATOM     19  C14 <0> d          17.152  -0.991  -1.606  0.00  0.00     0.005 C 
ENDBRANCH   6   9
ENDBRANCH   3   5
BRANCH   1  20
ATOM     20  C6  <0> d           6.352   0.972  -0.670  0.00  0.00     0.033 A 
ATOM     21  C1  <0> d           5.646   2.143  -0.383  0.00  0.00     0.019 A 
ATOM     22  C2  <0> d           4.273   2.110  -0.283  0.00  0.00     0.031 A 
ATOM     23  C3  <0> d           3.589   0.913  -0.469  0.00  0.00     0.037 A 
ATOM     24  C4  <0> d           4.290  -0.256  -0.750  0.00  0.00     0.031 A 
ATOM     25  C5  <0> d           5.662  -0.229  -0.856  0.00  0.00     0.019 A 
BRANCH  23  26
ATOM     26  N3  <0> d           2.199   0.884  -0.367  0.00  0.00    -0.318 N 
ATOM     27  C22 <0> d           1.441  -0.193  -0.637  0.00  0.00     0.224 C 
ATOM     28  C21 <0> d          -0.021   0.134  -0.432  0.00  0.00     0.105 C 
ATOM     29  O3  <0> d           1.868  -1.271  -0.993  0.00  0.00    -0.273 OA
ATOM     30  C20 <0> d          -0.063   1.679  -0.401  0.00  0.00     0.029 C 
ATOM     31  C19 <0> d           1.374   2.025   0.048  0.00  0.00     0.133 C 
ENDBRANCH  23  26
ENDBRANCH   1  20
TORSDOF 4
