REMARK  6 active torsions:
REMARK  status: ('A' for Active; 'I' for Inactive)
REMARK    1  A    between atoms: C3_3  and  N1_9 
REMARK    2  A    between atoms: N1_9  and  C8_10 
REMARK    3  A    between atoms: N2_12  and  N3_13 
REMARK       I    between atoms: N3_13  and  C9_14 
REMARK    4  A    between atoms: C9_14  and  C10_16 
REMARK    5  A    between atoms: C10_16  and  N4_17 
REMARK    6  A    between atoms: C12_21  and  C13_23 
ROOT
ATOM      1  N3  <0> d           0.162   1.431  -4.730  0.00  0.00    -0.266 N 
ATOM      2  C9  <0> d           0.249   2.114  -5.888  0.00  0.00     0.256 C 
ATOM      3  O1  <0> d           0.343   1.516  -6.939  0.00  0.00    -0.270 OA
ATOM      4  H9  <0> d           0.086   1.909  -3.889  0.00  0.00     0.190 HD
ENDROOT
BRANCH   1   5
ATOM      5  N2  <0> d           0.182   0.030  -4.739  0.00  0.00    -0.273 N 
ATOM      6  C8  <0> d           0.095  -0.653  -3.581  0.00  0.00     0.191 C 
ATOM      7  S1  <0> d           0.119  -2.365  -3.593  0.00  0.00    -0.039 SA
ATOM      8  H8  <0> d           0.258  -0.448  -5.580  0.00  0.00     0.189 HD
BRANCH   6   9
ATOM      9  N1  <0> d          -0.010   0.011  -2.413  0.00  0.00    -0.332 N 
ATOM     10  H7  <0> d          -0.104   0.976  -2.411  0.00  0.00     0.168 HD
BRANCH   9  11
ATOM     11  C3  <0> d           0.016  -0.692  -1.204  0.00  0.00     0.042 A 
ATOM     12  C2  <0> d          -0.895  -0.385  -0.201  0.00  0.00    -0.013 A 
ATOM     13  C1  <0> d          -1.912   0.706  -0.414  0.00  0.00     0.052 C 
ATOM     14  C7  <0> d          -0.863  -1.078   0.994  0.00  0.00     0.042 A 
ATOM     15  C6  <0> d           0.068  -2.084   1.188  0.00  0.00     0.024 A 
ATOM     16 Cl1  <0> d          -1.996  -0.691   2.251  0.00  0.00    -0.084 Cl
ATOM     17  C5  <0> d           0.975  -2.391   0.191  0.00  0.00     0.004 A 
ATOM     18  C4  <0> d           0.952  -1.698  -1.004  0.00  0.00     0.030 A 
ENDBRANCH   9  11
ENDBRANCH   6   9
ENDBRANCH   1   5
BRANCH   2  19
ATOM     19  C10 <0> d           0.228   3.621  -5.878  0.00  0.00     0.261 C 
BRANCH  19  20
ATOM     20  N4  <0> d           0.334   4.120  -7.251  0.00  0.00    -0.202 N 
ATOM     21  N5  <0> d           1.518   4.420  -7.941  0.00  0.00    -0.140 NA
ATOM     22  C12 <0> d           1.188   4.832  -9.134  0.00  0.00     0.210 A 
ATOM     23  O3  <0> d          -0.159   4.821  -9.247  0.00  0.00    -0.238 OA
ATOM     24  C11 <0> d          -0.688   4.385  -8.092  0.00  0.00     0.390 A 
ATOM     25  O2  <0> d          -1.873   4.252  -7.848  0.00  0.00    -0.236 OA
BRANCH  22  26
ATOM     26  C13 <0> d           2.130   5.247 -10.186  0.00  0.00     0.059 A 
ATOM     27  S2  <0> d           3.914   5.298 -10.142  0.00  0.00    -0.098 SA
ATOM     28  C16 <0> d           4.190   5.904 -11.798  0.00  0.00     0.050 A 
ATOM     29  C15 <0> d           2.923   6.033 -12.270  0.00  0.00     0.009 A 
ATOM     30  C14 <0> d           1.866   5.700 -11.454  0.00  0.00     0.024 A 
ENDBRANCH  22  26
ENDBRANCH  19  20
ENDBRANCH   2  19
TORSDOF 6
