REMARK  4 active torsions:
REMARK  status: ('A' for Active; 'I' for Inactive)
REMARK    1  A    between atoms: S1_2  and  C2_5 
REMARK    2  A    between atoms: C3_8  and  C4_10 
REMARK    3  A    between atoms: N3_14  and  S2_15 
REMARK    4  A    between atoms: S2_15  and  C8_18 
ROOT
ATOM      1  C4  <0> d           2.272   6.299  -2.382  0.00  0.00     0.174 C 
ATOM      2  C5  <0> d           1.869   6.805  -3.784  0.00  0.00     0.036 C 
ATOM      3  C6  <0> d           0.343   6.533  -3.829  0.00  0.00     0.023 C 
ATOM      4  C7  <0> d          -0.066   6.809  -2.361  0.00  0.00     0.136 C 
ATOM      5  N3  <0> d           1.057   6.298  -1.554  0.00  0.00    -0.294 N 
ENDROOT
BRANCH   5   6
ATOM      6  S2  <0> d           0.967   5.811   0.026  0.00  0.00     0.261 S 
ATOM      7  O4  <0> d          -0.156   6.472   0.592  0.00  0.00    -0.200 OA
ATOM      8  O5  <0> d           2.276   5.936   0.565  0.00  0.00    -0.200 OA
BRANCH   6   9
ATOM      9  C8  <0> d           0.588   4.090   0.020  0.00  0.00     0.082 A 
ATOM     10  C13 <0> d           1.610   3.161   0.004  0.00  0.00     0.065 A 
ATOM     11  C12 <0> d           1.314   1.807  -0.001  0.00  0.00     0.109 A 
ATOM     12  C11 <0> d          -0.017   1.390   0.010  0.00  0.00     0.071 A 
ATOM     13  O6  <0> d           2.085   0.692  -0.014  0.00  0.00    -0.259 OA
ATOM     14  C10 <0> d          -1.037   2.328   0.029  0.00  0.00     0.034 A 
ATOM     15  N4  <0> d           0.002  -0.004   0.002  0.00  0.00    -0.300 N 
ATOM     16  C9  <0> d          -0.732   3.675   0.030  0.00  0.00     0.028 A 
ATOM     17  C14 <0> d           1.293  -0.392  -0.012  0.00  0.00     0.370 A 
ATOM     18  H2  <0> d          -0.772  -0.588   0.006  0.00  0.00     0.171 HD
ATOM     19  O7  <0> d           1.680  -1.544  -0.023  0.00  0.00    -0.238 OA
ENDBRANCH   6   9
ENDBRANCH   5   6
BRANCH   1  20
ATOM     20  C3  <0> d           3.303   7.218  -1.779  0.00  0.00     0.193 A 
ATOM     21  N2  <0> d           3.091   8.419  -1.321  0.00  0.00    -0.123 NA
ATOM     22  N1  <0> d           4.196   8.907  -0.878  0.00  0.00    -0.109 NA
ATOM     23  C2  <0> d           5.152   8.039  -1.048  0.00  0.00     0.288 A 
ATOM     24  O3  <0> d           4.610   6.951  -1.621  0.00  0.00    -0.263 OA
BRANCH  23  25
ATOM     25  S1  <0> d           6.845   8.251  -0.607  0.00  0.00     0.213 S 
ATOM     26  C1  <0> d           6.964   7.635   1.095  0.00  0.00     0.171 C 
ATOM     27  O1  <0> d           7.559   7.395  -1.488  0.00  0.00    -0.219 OA
ATOM     28  O2  <0> d           7.053   9.656  -0.635  0.00  0.00    -0.219 OA
ENDBRANCH  23  25
ENDBRANCH   1  20
TORSDOF 4
