REMARK  3 active torsions:
REMARK  status: ('A' for Active; 'I' for Inactive)
REMARK    1  A    between atoms: C12_14  and  C14_18 
REMARK    2  A    between atoms: C17_21  and  O5_26 
REMARK    3  A    between atoms: C18_22  and  O4_24 
ROOT
ATOM      1  C1  <0> d          -1.294  -0.773   0.010  0.00  0.00     0.049 C 
ATOM      2  C2  <0> d           0.002  -0.004   0.002  0.00  0.00    -0.055 A 
ATOM      3  C3  <0> d           1.202  -0.681  -0.013  0.00  0.00     0.025 A 
ATOM      4  C4  <0> d           2.396   0.038  -0.020  0.00  0.00     0.049 A 
ATOM      5  C5  <0> d           2.381   1.444  -0.013  0.00  0.00     0.091 A 
ATOM      6  C6  <0> d           1.157   2.105   0.002  0.00  0.00     0.045 A 
ATOM      7  C7  <0> d          -0.017   1.383   0.010  0.00  0.00    -0.053 A 
ATOM      8  C8  <0> d          -1.337   2.110   0.020  0.00  0.00     0.049 C 
ATOM      9  O1  <0> d           3.534   2.138  -0.020  0.00  0.00    -0.303 OA
ATOM     10  C9  <0> d           4.752   1.563  -0.034  0.00  0.00     0.156 A 
ATOM     11  C10 <0> d           4.894   0.215  -0.041  0.00  0.00     0.059 A 
ATOM     12  C11 <0> d           3.705  -0.643  -0.035  0.00  0.00     0.196 A 
ATOM     13  O2  <0> d           3.794  -1.859  -0.042  0.00  0.00    -0.287 OA
ATOM     14  C12 <0> d           6.370  -0.086  -0.056  0.00  0.00     0.158 A 
ATOM     15  N1  <0> d           7.048   1.216  -0.056  0.00  0.00    -0.342 N 
ATOM     16  C13 <0> d           6.105   2.174  -0.043  0.00  0.00     0.277 A 
ATOM     17  O3  <0> d           6.328   3.368  -0.039  0.00  0.00    -0.265 OA
ATOM     18  H10 <0> d           8.007   1.359  -0.064  0.00  0.00     0.163 HD
ENDROOT
BRANCH  14  19
ATOM     19  C14 <0> d           6.729  -0.860  -1.299  0.00  0.00    -0.028 A 
ATOM     20  C19 <0> d           6.897  -2.231  -1.233  0.00  0.00     0.049 A 
ATOM     21  C18 <0> d           7.223  -2.944  -2.375  0.00  0.00     0.101 A 
ATOM     22  C17 <0> d           7.391  -2.277  -3.584  0.00  0.00     0.099 A 
ATOM     23  C16 <0> d           7.226  -0.902  -3.642  0.00  0.00     0.040 A 
ATOM     24  C15 <0> d           6.895  -0.197  -2.500  0.00  0.00     0.012 A 
BRANCH  21  25
ATOM     25  O4  <0> d           7.384  -4.293  -2.313  0.00  0.00    -0.353 OA
ATOM     26  C20 <0> d           7.196  -4.911  -1.038  0.00  0.00     0.210 C 
ENDBRANCH  21  25
BRANCH  22  27
ATOM     27  O5  <0> d           7.716  -2.972  -4.707  0.00  0.00    -0.358 OA
ATOM     28  H17 <0> d           8.668  -3.063  -4.851  0.00  0.00     0.217 HD
ENDBRANCH  22  27
ENDBRANCH  14  19
TORSDOF 3
