REMARK  5 active torsions:
REMARK  status: ('A' for Active; 'I' for Inactive)
REMARK    1  A    between atoms: C2_2  and  N4_34 
REMARK    2  A    between atoms: C13_15  and  C14_16 
REMARK    3  A    between atoms: C15_17  and  O3_31 
REMARK    4  A    between atoms: C16_19  and  O2_30 
REMARK    5  A    between atoms: N3_20  and  C18_23 
ROOT
ATOM      1  C14 <0> d          -4.158   4.899  -1.302  0.00  0.00     0.100 A 
ATOM      2  C15 <0> d          -4.617   5.286  -0.055  0.00  0.00     0.180 A 
ATOM      3  N2  <0> d          -3.909   4.981   1.037  0.00  0.00    -0.183 NA
ATOM      4  C16 <0> d          -2.778   4.317   0.953  0.00  0.00     0.256 A 
ATOM      5  N3  <0> d          -2.281   3.914  -0.248  0.00  0.00    -0.241 N 
ATOM      6  C17 <0> d          -2.950   4.197  -1.386  0.00  0.00     0.268 A 
ATOM      7  O1  <0> d          -2.510   3.843  -2.469  0.00  0.00    -0.267 OA
ENDROOT
BRANCH   1   8
ATOM      8  C13 <0> d          -4.941   5.232  -2.546  0.00  0.00     0.281 C 
ATOM      9  C12 <0> d          -4.144   6.182  -3.409  0.00  0.00     0.053 A 
ATOM     10  C5  <0> d          -4.036   6.045  -4.750  0.00  0.00    -0.019 A 
ATOM     11  N1  <0> d          -3.437   7.278  -2.997  0.00  0.00    -0.356 N 
ATOM     12  C4  <0> d          -4.700   4.938  -5.529  0.00  0.00     0.069 C 
ATOM     13  C6  <0> d          -3.201   7.127  -5.224  0.00  0.00    -0.001 A 
ATOM     14  C3  <0> d          -5.773   4.305  -4.633  0.00  0.00     0.241 C 
ATOM     15  N4  <0> d          -5.167   3.988  -3.320  0.00  0.00    -0.057 N 
ATOM     16  H25 <0> d          -4.264   3.524  -3.474  0.00  0.00     0.281 HD
ATOM     17  C11 <0> d          -2.848   7.879  -4.073  0.00  0.00     0.043 A 
ATOM     18  C7  <0> d          -2.748   7.492  -6.495  0.00  0.00     0.014 A 
ATOM     19  C10 <0> d          -2.038   9.007  -4.184  0.00  0.00     0.030 A 
ATOM     20  C9  <0> d          -1.605   9.345  -5.455  0.00  0.00     0.002 A 
ATOM     21  C8  <0> d          -1.951   8.607  -6.574  0.00  0.00     0.001 A 
ATOM     22  H1  <0> d          -3.363   7.583  -2.079  0.00  0.00     0.166 HD
BRANCH  15  23
ATOM     23  C2  <0> d          -6.051   3.078  -2.563  0.00  0.00     0.231 C 
ATOM     24  C1  <0> d          -7.453   3.675  -2.430  0.00  0.00     0.034 C 
ENDBRANCH  15  23
ENDBRANCH   1   8
BRANCH   2  25
ATOM     25  O3  <0> d          -5.779   5.970   0.058  0.00  0.00    -0.344 OA
ATOM     26  H24 <0> d          -6.016   6.195   0.968  0.00  0.00     0.219 HD
ENDBRANCH   2  25
BRANCH   5  27
ATOM     27  C18 <0> d          -1.072   3.208  -0.304  0.00  0.00     0.052 A 
ATOM     28  C23 <0> d           0.128   3.894  -0.432  0.00  0.00    -0.035 A 
ATOM     29  C22 <0> d           1.319   3.196  -0.487  0.00  0.00     0.009 A 
ATOM     30  C24 <0> d           0.132   5.399  -0.511  0.00  0.00     0.050 C 
ATOM     31  C21 <0> d           1.316   1.815  -0.415  0.00  0.00     0.001 A 
ATOM     32  C20 <0> d           0.122   1.129  -0.288  0.00  0.00     0.002 A 
ATOM     33  C19 <0> d          -1.072   1.821  -0.237  0.00  0.00     0.031 A 
ENDBRANCH   5  27
BRANCH   4  34
ATOM     34  O2  <0> d          -2.094   4.031   2.080  0.00  0.00    -0.330 OA
ATOM     35  H23 <0> d          -2.478   4.333   2.914  0.00  0.00     0.221 HD
ENDBRANCH   4  34
TORSDOF 5
