REMARK  4 active torsions:
REMARK  status: ('A' for Active; 'I' for Inactive)
REMARK    1  A    between atoms: C4_4  and  C10_10 
REMARK    2  A    between atoms: C4_4  and  N1_13 
REMARK    3  A    between atoms: N1_13  and  C11_14 
REMARK    4  A    between atoms: C11_14  and  C12_15 
ROOT
ATOM      1  C1  <0> d           0.015   0.835   1.380  0.00  0.00     0.010 C 
ATOM      2  C2  <0> d          -0.040  -0.582   0.806  0.00  0.00    -0.015 C 
ATOM      3  C3  <0> d           0.676  -0.614  -0.545  0.00  0.00     0.055 C 
ATOM      4  C4  <0> d           0.621  -2.032  -1.118  0.00  0.00     0.213 C 
ATOM      5  C5  <0> d           1.309  -3.000  -0.153  0.00  0.00     0.059 C 
ATOM      6  C6  <0> d           0.592  -2.967   1.198  0.00  0.00    -0.045 C 
ATOM      7  C7  <0> d           0.648  -1.550   1.772  0.00  0.00     0.013 C 
ATOM      8  C8  <0> d           1.280  -3.935   2.163  0.00  0.00     0.015 C 
ATOM      9  C9  <0> d          -0.868  -3.385   1.012  0.00  0.00     0.015 C 
ENDROOT
BRANCH   4  10
ATOM     10  C10 <0> d          -0.817  -2.443  -1.302  0.00  0.00     0.210 C 
ATOM     11  O1  <0> d          -1.712  -1.646  -1.082  0.00  0.00    -0.646 OA
ATOM     12  O2  <0> d          -1.085  -3.574  -1.671  0.00  0.00    -0.646 OA
ENDBRANCH   4  10
BRANCH   4  13
ATOM     13  N1  <0> d           1.309  -2.063  -2.416  0.00  0.00    -0.052 N 
ATOM     14  H17 <0> d           2.257  -1.736  -2.302  0.00  0.00     0.279 HD
ATOM     15  H23 <0> d           1.319  -3.008  -2.769  0.00  0.00     0.279 HD
BRANCH  13  16
ATOM     16  C11 <0> d           0.602  -1.193  -3.365  0.00  0.00     0.280 C 
BRANCH  16  17
ATOM     17  C12 <0> d           1.269  -1.275  -4.714  0.00  0.00     0.008 A 
ATOM     18  S1  <0> d           2.598  -0.282  -5.374  0.00  0.00    -0.105 SA
ATOM     19  C15 <0> d           2.727  -1.064  -6.973  0.00  0.00     0.050 A 
ATOM     20  C14 <0> d           1.759  -2.011  -6.902  0.00  0.00     0.008 A 
ATOM     21  C13 <0> d           1.012  -2.119  -5.744  0.00  0.00     0.017 A 
ENDBRANCH  16  17
ENDBRANCH  13  16
ENDBRANCH   4  13
TORSDOF 4
