REMARK  3 active torsions:
REMARK  status: ('A' for Active; 'I' for Inactive)
REMARK    1  A    between atoms: C2_2  and  C3_3 
REMARK    2  A    between atoms: C2_2  and  N1_10 
REMARK       I    between atoms: N1_10  and  C9_11 
REMARK    3  A    between atoms: C9_11  and  C10_13 
ROOT
ATOM      1  N1  <0> d           0.763  -0.486  -1.153  0.00  0.00    -0.349 N 
ATOM      2  C9  <0> d           2.095  -0.664  -1.056  0.00  0.00     0.252 C 
ATOM      3  O1  <0> d           2.666  -0.425  -0.009  0.00  0.00    -0.268 OA
ATOM      4  H9  <0> d           0.308  -0.677  -1.989  0.00  0.00     0.163 HD
ENDROOT
BRANCH   2   5
ATOM      5  C10 <0> d           2.862  -1.150  -2.220  0.00  0.00     0.034 A 
ATOM      6  C15 <0> d           4.244  -1.335  -2.121  0.00  0.00     0.049 A 
ATOM      7  C14 <0> d           4.953  -1.794  -3.213  0.00  0.00     0.069 A 
ATOM      8  C13 <0> d           4.293  -2.062  -4.415  0.00  0.00     0.096 A 
ATOM      9  N2  <0> d           6.339  -1.994  -3.133  0.00  0.00    -0.323 N 
ATOM     10  C12 <0> d           2.923  -1.873  -4.514  0.00  0.00     0.040 A 
ATOM     11  O3  <0> d           5.007  -2.508  -5.482  0.00  0.00    -0.340 OA
ATOM     12  C11 <0> d           2.208  -1.419  -3.426  0.00  0.00     0.020 A 
ATOM     13  C17 <0> d           6.347  -2.026  -5.606  0.00  0.00     0.278 C 
ATOM     14  C16 <0> d           7.048  -2.128  -4.275  0.00  0.00     0.246 C 
ATOM     15  O2  <0> d           8.243  -2.331  -4.230  0.00  0.00    -0.271 OA
ATOM     16  H13 <0> d           6.782  -2.034  -2.271  0.00  0.00     0.169 HD
ENDBRANCH   2   5
BRANCH   1  17
ATOM     17  C2  <0> d           0.002  -0.004   0.002  0.00  0.00     0.115 C 
ATOM     18  C1  <0> d           0.010   1.526   0.016  0.00  0.00     0.037 C 
BRANCH  17  19
ATOM     19  C3  <0> d          -1.419  -0.498  -0.090  0.00  0.00    -0.018 A 
ATOM     20  C8  <0> d          -2.162  -0.686   1.061  0.00  0.00     0.019 A 
ATOM     21  C7  <0> d          -3.467  -1.136   0.975  0.00  0.00     0.019 A 
ATOM     22 Br1  <0> d          -1.396  -0.323   2.751  0.00  0.00    -0.050 Br
ATOM     23  C6  <0> d          -4.025  -1.407  -0.260  0.00  0.00     0.001 A 
ATOM     24  C5  <0> d          -3.280  -1.223  -1.410  0.00  0.00     0.001 A 
ATOM     25  C4  <0> d          -1.977  -0.770  -1.325  0.00  0.00     0.010 A 
ENDBRANCH  17  19
ENDBRANCH   1  17
TORSDOF 3
