REMARK  3 active torsions:
REMARK  status: ('A' for Active; 'I' for Inactive)
REMARK    1  A    between atoms: C6_6  and  N2_8 
REMARK       I    between atoms: N2_8  and  C7_9 
REMARK    2  A    between atoms: C7_9  and  C8_11 
REMARK    3  A    between atoms: N3_14  and  C11_16 
ROOT
ATOM      1  C8  <0> d          -1.310   3.464  -0.081  0.00  0.00     0.153 A 
ATOM      2  C9  <0> d          -2.484   4.236  -0.085  0.00  0.00     0.002 A 
ATOM      3  C10 <0> d          -2.082   5.526  -0.194  0.00  0.00     0.040 A 
ATOM      4  N3  <0> d          -0.740   5.521  -0.250  0.00  0.00    -0.267 N 
ATOM      5  N4  <0> d          -0.300   4.312  -0.178  0.00  0.00    -0.166 NA
ATOM      6  C15 <0> d          -3.026   6.700  -0.240  0.00  0.00     0.059 C 
ATOM      7  C16 <0> d          -4.431   6.176  -0.563  0.00  0.00     0.006 C 
ATOM      8  C17 <0> d          -4.776   5.014   0.373  0.00  0.00     0.005 C 
ATOM      9  C18 <0> d          -3.918   3.794   0.012  0.00  0.00     0.043 C 
ENDROOT
BRANCH   1  10
ATOM     10  C7  <0> d          -1.221   1.994   0.019  0.00  0.00     0.278 C 
ATOM     11  N2  <0> d          -0.017   1.389   0.010  0.00  0.00    -0.306 N 
ATOM     12  H8  <0> d           0.793   1.922   0.008  0.00  0.00     0.170 HD
ATOM     13  O1  <0> d          -2.235   1.328   0.109  0.00  0.00    -0.265 OA
BRANCH  11  14
ATOM     14  C6  <0> d           0.064  -0.002  -0.004  0.00  0.00     0.130 A 
ATOM     15  C5  <0> d           1.305  -0.618  -0.120  0.00  0.00     0.050 A 
ATOM     16  C4  <0> d           1.371  -2.000  -0.132  0.00  0.00     0.006 A 
ATOM     17  C3  <0> d           0.190  -2.721  -0.026  0.00  0.00     0.027 A 
ATOM     18  C2  <0> d          -1.008  -2.043   0.087  0.00  0.00     0.033 A 
ATOM     19  C1  <0> d          -2.294  -2.820   0.202  0.00  0.00     0.070 C 
ATOM     20  N1  <0> d          -1.040  -0.724   0.101  0.00  0.00    -0.236 NA
ENDBRANCH  11  14
ENDBRANCH   1  10
BRANCH   4  21
ATOM     21  C11 <0> d           0.101   6.715  -0.368  0.00  0.00     0.125 C 
ATOM     22  C14 <0> d           1.054   6.810   0.858  0.00  0.00     0.167 C 
ATOM     23  S1  <0> d           2.343   7.947   0.195  0.00  0.00     0.146 S 
ATOM     24  C13 <0> d           2.069   7.701  -1.607  0.00  0.00     0.142 C 
ATOM     25  O2  <0> d           2.000   9.283   0.536  0.00  0.00    -0.228 OA
ATOM     26  O3  <0> d           3.626   7.444   0.542  0.00  0.00    -0.228 OA
ATOM     27  C12 <0> d           0.962   6.620  -1.638  0.00  0.00     0.043 C 
ENDBRANCH   4  21
TORSDOF 3
