REMARK  3 active torsions:
REMARK  status: ('A' for Active; 'I' for Inactive)
REMARK    1  A    between atoms: C3_3  and  S1_9 
REMARK    2  A    between atoms: S1_9  and  N3_12 
REMARK    3  A    between atoms: N3_12  and  C6_13 
ROOT
ATOM      1  C6  <0> d           2.444  -1.245  -3.324  0.00  0.00     0.225 C 
ATOM      2  C7  <0> d           3.652  -0.903  -4.093  0.00  0.00    -0.097 C 
ATOM      3  C8  <0> d           4.615  -0.631  -4.706  0.00  0.00     0.014 C 
ENDROOT
BRANCH   1   4
ATOM      4  N3  <0> d           1.569  -0.072  -3.243  0.00  0.00    -0.304 N 
ATOM      5  H8  <0> d           1.914   0.806  -3.466  0.00  0.00     0.173 HD
BRANCH   4   6
ATOM      6  S1  <0> d          -0.008  -0.247  -2.770  0.00  0.00     0.263 S 
ATOM      7  O1  <0> d          -0.548  -1.312  -3.541  0.00  0.00    -0.200 OA
ATOM      8  O2  <0> d          -0.578   1.055  -2.765  0.00  0.00    -0.200 OA
BRANCH   6   9
ATOM      9  C3  <0> d           0.008  -0.796  -1.095  0.00  0.00     0.129 A 
ATOM     10  C2  <0> d           0.002  -0.004   0.002  0.00  0.00     0.049 A 
ATOM     11  C1  <0> d          -0.018   1.503   0.010  0.00  0.00     0.071 C 
ATOM     12  N2  <0> d           0.024  -0.805   1.088  0.00  0.00    -0.281 N 
ATOM     13  N1  <0> d           0.035  -2.134   0.643  0.00  0.00    -0.178 NA
ATOM     14  H1  <0> d           0.029  -0.513   2.013  0.00  0.00     0.189 HD
ATOM     15  C4  <0> d           0.028  -2.127  -0.666  0.00  0.00     0.076 A 
ATOM     16  C5  <0> d           0.040  -3.343  -1.556  0.00  0.00     0.074 C 
ENDBRANCH   6   9
ENDBRANCH   4   6
ENDBRANCH   1   4
TORSDOF 3
