REMARK  9 active torsions:
REMARK  status: ('A' for Active; 'I' for Inactive)
REMARK    1  A    between atoms: C3_3  and  C6_8 
REMARK    2  A    between atoms: C6_8  and  C7_9 
REMARK    3  A    between atoms: C7_9  and  C8_10 
REMARK    4  A    between atoms: C8_10  and  N3_11 
REMARK    5  A    between atoms: N3_11  and  C9_12 
REMARK    6  A    between atoms: C9_12  and  C10_13 
REMARK    7  A    between atoms: N4_15  and  C18_22 
REMARK    8  A    between atoms: C18_22  and  C19_23 
REMARK    9  A    between atoms: C19_23  and  C20_24 
REMARK       I    between atoms: C20_24  and  N5_26 
ROOT
ATOM      1  C10 <0> d          -6.936   3.878  -1.970  0.00  0.00     0.064 A 
ATOM      2  C11 <0> d          -8.034   4.136  -3.014  0.00  0.00     0.134 A 
ATOM      3  N4  <0> d          -9.287   4.159  -2.255  0.00  0.00    -0.379 N 
ATOM      4  C12 <0> d          -9.031   3.945  -0.900  0.00  0.00     0.037 A 
ATOM      5  C13 <0> d          -7.675   3.774  -0.655  0.00  0.00    -0.024 A 
ATOM      6  C14 <0> d          -7.214   3.551   0.628  0.00  0.00     0.010 A 
ATOM      7  C15 <0> d          -8.103   3.497   1.686  0.00  0.00     0.001 A 
ATOM      8  C16 <0> d          -9.456   3.667   1.456  0.00  0.00     0.002 A 
ATOM      9  C17 <0> d          -9.925   3.888   0.172  0.00  0.00     0.030 A 
ENDROOT
BRANCH   1  10
ATOM     10  C9  <0> d          -6.203   2.571  -2.276  0.00  0.00     0.243 C 
BRANCH  10  11
ATOM     11  N3  <0> d          -5.108   2.386  -1.315  0.00  0.00    -0.074 N 
ATOM     12  H15 <0> d          -5.485   2.349  -0.379  0.00  0.00     0.277 HD
ATOM     13  H30 <0> d          -4.463   3.158  -1.388  0.00  0.00     0.277 HD
BRANCH  11  14
ATOM     14  C8  <0> d          -4.405   1.130  -1.609  0.00  0.00     0.232 C 
BRANCH  14  15
ATOM     15  C7  <0> d          -3.265   0.937  -0.608  0.00  0.00     0.032 C 
BRANCH  15  16
ATOM     16  C6  <0> d          -2.532  -0.371  -0.914  0.00  0.00     0.040 C 
BRANCH  16  17
ATOM     17  C3  <0> d          -1.409  -0.561   0.072  0.00  0.00    -0.028 A 
ATOM     18  C2  <0> d           0.002  -0.004   0.002  0.00  0.00     0.158 A 
ATOM     19  C1  <0> d          -0.019   1.526   0.010  0.00  0.00     0.041 C 
ATOM     20  N2  <0> d           0.629  -0.523   1.230  0.00  0.00    -0.183 NA
ATOM     21  N1  <0> d          -0.222  -1.193   1.828  0.00  0.00    -0.160 NA
ATOM     22  C4  <0> d          -1.423  -1.257   1.211  0.00  0.00     0.057 A 
ATOM     23  C5  <0> d          -2.617  -2.011   1.738  0.00  0.00     0.072 C 
ENDBRANCH  16  17
ENDBRANCH  15  16
ENDBRANCH  14  15
ENDBRANCH  11  14
ENDBRANCH  10  11
ENDBRANCH   1  10
BRANCH   3  24
ATOM     24  C18 <0> d         -10.616   4.375  -2.834  0.00  0.00     0.132 C 
BRANCH  24  25
ATOM     25  C19 <0> d         -11.224   3.029  -3.232  0.00  0.00     0.122 C 
BRANCH  25  26
ATOM     26  C20 <0> d         -12.590   3.251  -3.828  0.00  0.00     0.216 C 
ATOM     27  O1  <0> d         -13.034   4.375  -3.925  0.00  0.00    -0.274 OA
ATOM     28  N5  <0> d         -13.319   2.200  -4.254  0.00  0.00    -0.370 N 
ATOM     29  H28 <0> d         -12.964   1.301  -4.177  0.00  0.00     0.159 HD
ATOM     30  H29 <0> d         -14.198   2.343  -4.637  0.00  0.00     0.159 HD
ENDBRANCH  25  26
ENDBRANCH  24  25
ENDBRANCH   3  24
TORSDOF 9
