REMARK  5 active torsions:
REMARK  status: ('A' for Active; 'I' for Inactive)
REMARK    1  A    between atoms: C2_2  and  C3_3 
REMARK    2  A    between atoms: C2_2  and  N3_22 
REMARK    3  A    between atoms: C3_3  and  C4_4 
REMARK    4  A    between atoms: C5_7  and  C13_16 
REMARK    5  A    between atoms: C6_8  and  C7_10 
ROOT
ATOM      1  C4  <0> d          -1.325  -2.044  -0.059  0.00  0.00     0.107 A 
ATOM      2  N1  <0> d          -1.903  -2.915   0.797  0.00  0.00    -0.342 N 
ATOM      3  H2  <0> d          -2.319  -2.696   1.645  0.00  0.00     0.167 HD
ATOM      4  C5  <0> d          -1.793  -4.170   0.244  0.00  0.00     0.073 A 
ATOM      5  C6  <0> d          -1.134  -4.003  -0.961  0.00  0.00     0.096 A 
ATOM      6  N2  <0> d          -0.876  -2.689  -1.100  0.00  0.00    -0.232 NA
ENDROOT
BRANCH   1   7
ATOM      7  C3  <0> d          -1.221  -0.556   0.152  0.00  0.00     0.110 C 
BRANCH   7   8
ATOM      8  C2  <0> d           0.243  -0.126   0.040  0.00  0.00     0.186 C 
ATOM      9  C1  <0> d           0.336   1.399   0.130  0.00  0.00     0.040 C 
BRANCH   8  10
ATOM     10  N3  <0> d           1.016  -0.729   1.133  0.00  0.00    -0.075 N 
ATOM     11  H18 <0> d           0.643  -0.421   2.019  0.00  0.00     0.274 HD
ATOM     12  H19 <0> d           0.956  -1.734   1.074  0.00  0.00     0.274 HD
ATOM     13  H20 <0> d           1.982  -0.445   1.059  0.00  0.00     0.274 HD
ENDBRANCH   8  10
ENDBRANCH   7   8
ENDBRANCH   1   7
BRANCH   5  14
ATOM     14  C7  <0> d          -0.781  -5.073  -1.923  0.00  0.00    -0.005 A 
ATOM     15  C12 <0> d           0.474  -5.083  -2.530  0.00  0.00     0.014 A 
ATOM     16  C11 <0> d           0.798  -6.085  -3.422  0.00  0.00     0.001 A 
ATOM     17  C10 <0> d          -0.123  -7.072  -3.721  0.00  0.00     0.000 A 
ATOM     18  C9  <0> d          -1.372  -7.065  -3.127  0.00  0.00     0.001 A 
ATOM     19  C8  <0> d          -1.706  -6.071  -2.229  0.00  0.00     0.014 A 
ENDBRANCH   5  14
BRANCH   4  20
ATOM     20  C13 <0> d          -2.280  -5.439   0.820  0.00  0.00    -0.007 A 
ATOM     21  C18 <0> d          -3.576  -5.525   1.332  0.00  0.00     0.014 A 
ATOM     22  C17 <0> d          -4.027  -6.715   1.864  0.00  0.00     0.001 A 
ATOM     23  C16 <0> d          -3.194  -7.819   1.901  0.00  0.00     0.000 A 
ATOM     24  C15 <0> d          -1.906  -7.739   1.401  0.00  0.00     0.001 A 
ATOM     25  C14 <0> d          -1.444  -6.557   0.861  0.00  0.00     0.014 A 
ENDBRANCH   4  20
TORSDOF 5
