REMARK  3 active torsions:
REMARK  status: ('A' for Active; 'I' for Inactive)
REMARK    1  A    between atoms: C2_2  and  C3_3 
REMARK    2  A    between atoms: C2_2  and  N1_8 
REMARK       I    between atoms: N1_8  and  C7_9 
REMARK    3  A    between atoms: C7_9  and  C8_11 
ROOT
ATOM      1  C8  <0> d           0.716  -0.976  -3.594  0.00  0.00     0.100 A 
ATOM      2  C9  <0> d           0.053  -1.017  -4.812  0.00  0.00     0.040 A 
ATOM      3  C10 <0> d           0.776  -1.374  -5.971  0.00  0.00     0.033 A 
ATOM      4  C11 <0> d           2.126  -1.673  -5.897  0.00  0.00     0.026 A 
ATOM      5  N2  <0> d           2.770  -1.639  -4.713  0.00  0.00    -0.326 N 
ATOM      6  C12 <0> d           2.144  -1.304  -3.572  0.00  0.00     0.261 A 
ATOM      7  O3  <0> d           2.761  -1.278  -2.522  0.00  0.00    -0.267 OA
ATOM      8  C13 <0> d           2.919  -2.035  -7.126  0.00  0.00     0.058 C 
ATOM      9  C14 <0> d           2.015  -2.574  -8.231  0.00  0.00     0.014 C 
ATOM     10  C15 <0> d           0.906  -1.552  -8.520  0.00  0.00     0.084 C 
ATOM     11  C16 <0> d           0.071  -1.429  -7.263  0.00  0.00     0.161 C 
ATOM     12  O4  <0> d          -1.139  -1.377  -7.318  0.00  0.00    -0.292 OA
ATOM     13  H20 <0> d           3.714  -1.860  -4.684  0.00  0.00     0.169 HD
ENDROOT
BRANCH   1  14
ATOM     14  C7  <0> d           0.006  -0.608  -2.358  0.00  0.00     0.257 C 
ATOM     15  N1  <0> d           0.690  -0.464  -1.206  0.00  0.00    -0.350 N 
ATOM     16  H12 <0> d           1.636  -0.674  -1.174  0.00  0.00     0.163 HD
ATOM     17  O2  <0> d          -1.198  -0.434  -2.378  0.00  0.00    -0.267 OA
BRANCH  15  18
ATOM     18  C2  <0> d           0.004   0.012  -0.002  0.00  0.00     0.109 C 
ATOM     19  C1  <0> d          -0.029   1.542  -0.004  0.00  0.00     0.035 C 
BRANCH  18  20
ATOM     20  C3  <0> d           0.751  -0.481   1.239  0.00  0.00     0.143 C 
ATOM     21  O1  <0> d           2.039   0.142   1.310  0.00  0.00    -0.384 OA
ATOM     22  C6  <0> d           2.132   0.937   2.505  0.00  0.00     0.168 C 
ATOM     23  C5  <0> d           1.109   0.313   3.487  0.00  0.00     0.029 C 
ATOM     24  C4  <0> d          -0.030  -0.088   2.511  0.00  0.00     0.036 C 
ENDBRANCH  18  20
ENDBRANCH  15  18
ENDBRANCH   1  14
TORSDOF 3
