REMARK  3 active torsions:
REMARK  status: ('A' for Active; 'I' for Inactive)
REMARK    1  A    between atoms: C5_8  and  N4_10 
REMARK    2  A    between atoms: N4_10  and  C6_11 
REMARK    3  A    between atoms: N5_14  and  S2_17 
ROOT
ATOM      1  N4  <0> d          -1.064  -0.890   0.007  0.00  0.00    -0.363 N 
ATOM      2  H5  <0> d          -2.095  -0.509   0.018  0.00  0.00     0.162 HD
ENDROOT
BRANCH   1   3
ATOM      3  C5  <0> d           0.002  -0.004   0.002  0.00  0.00     0.190 A 
ATOM      4  S1  <0> d           1.753  -0.355  -0.017  0.00  0.00    -0.011 SA
ATOM      5  C4  <0> d           2.331   1.326  -0.013  0.00  0.00     0.197 A 
ATOM      6  N1  <0> d           1.164   2.039   0.002  0.00  0.00    -0.216 N 
ATOM      7  N2  <0> d           3.352   2.134  -0.018  0.00  0.00    -0.226 NA
ATOM      8  C3  <0> d           1.559   3.371   0.006  0.00  0.00     0.147 A 
ATOM      9  N3  <0> d          -0.016   1.302   0.009  0.00  0.00    -0.140 NA
ATOM     10  C2  <0> d           2.904   3.398  -0.007  0.00  0.00     0.051 A 
ATOM     11  C1  <0> d           3.761   4.638  -0.008  0.00  0.00     0.072 C 
ENDBRANCH   1   3
BRANCH   1  12
ATOM     12  C6  <0> d          -0.816  -2.334  -0.003  0.00  0.00     0.086 C 
ATOM     13  C10 <0> d          -2.013  -3.060   0.614  0.00  0.00     0.045 C 
ATOM     14  C9  <0> d          -1.736  -4.567   0.634  0.00  0.00     0.137 C 
ATOM     15  N5  <0> d          -1.402  -5.004  -0.729  0.00  0.00    -0.311 N 
ATOM     16  C8  <0> d          -0.325  -4.311  -1.449  0.00  0.00     0.137 C 
ATOM     17  C7  <0> d          -0.618  -2.807  -1.445  0.00  0.00     0.045 C 
BRANCH  15  18
ATOM     18  S2  <0> d          -2.224  -6.254  -1.439  0.00  0.00     0.224 S 
ATOM     19  O1  <0> d          -1.313  -6.793  -2.388  0.00  0.00    -0.206 OA
ATOM     20  O2  <0> d          -2.692  -7.043  -0.355  0.00  0.00    -0.206 OA
ATOM     21  C11 <0> d          -3.621  -5.470  -2.290  0.00  0.00     0.186 C 
ENDBRANCH  15  18
ENDBRANCH   1  12
TORSDOF 3
