REMARK  3 active torsions:
REMARK  status: ('A' for Active; 'I' for Inactive)
REMARK    1  A    between atoms: C2_2  and  C6_7 
REMARK       I    between atoms: C6_7  and  N2_9 
REMARK    2  A    between atoms: N2_9  and  C8_11 
REMARK    3  A    between atoms: C8_11  and  C9_12 
ROOT
ATOM      1  C6  <0> d           0.674  -0.489  -1.260  0.00  0.00     0.230 C 
ATOM      2  O1  <0> d           1.713  -1.112  -1.195  0.00  0.00    -0.272 OA
ATOM      3  N2  <0> d           0.093  -0.270  -2.455  0.00  0.00    -0.349 N 
ATOM      4  C7  <0> d          -1.100   0.575  -2.546  0.00  0.00     0.153 C 
ENDROOT
BRANCH   3   5
ATOM      5  C8  <0> d           0.654  -0.878  -3.665  0.00  0.00     0.203 C 
BRANCH   5   6
ATOM      6  C9  <0> d           0.022  -2.228  -3.888  0.00  0.00     0.125 A 
ATOM      7  N4  <0> d          -0.867  -2.639  -3.042  0.00  0.00    -0.232 NA
ATOM      8  C12 <0> d          -1.492  -3.854  -3.177  0.00  0.00     0.082 A 
ATOM      9  C11 <0> d          -1.100  -4.628  -4.284  0.00  0.00     0.101 A 
ATOM     10  C13 <0> d          -2.469  -4.430  -2.354  0.00  0.00     0.040 A 
ATOM     11  C10 <0> d          -0.137  -4.173  -5.184  0.00  0.00     0.266 A 
ATOM     12  S1  <0> d          -2.088  -6.093  -4.133  0.00  0.00    -0.094 SA
ATOM     13  N3  <0> d           0.418  -2.956  -4.965  0.00  0.00    -0.309 N 
ATOM     14  O2  <0> d           0.198  -4.851  -6.141  0.00  0.00    -0.267 OA
ATOM     15  H1  <0> d           1.092  -2.609  -5.570  0.00  0.00     0.170 HD
ATOM     16  C14 <0> d          -2.970  -5.650  -2.645  0.00  0.00     0.053 A 
ENDBRANCH   5   6
ENDBRANCH   3   5
BRANCH   1  17
ATOM     17  C2  <0> d           0.034   0.040  -0.002  0.00  0.00     0.063 C 
ATOM     18  C1  <0> d          -0.054   1.566  -0.054  0.00  0.00     0.027 C 
ATOM     19  C5  <0> d           0.834  -0.408   1.235  0.00  0.00     0.251 C 
ATOM     20  N1  <0> d          -0.083  -1.201   2.082  0.00  0.00    -0.074 N 
ATOM     21  C4  <0> d          -1.113  -1.746   1.162  0.00  0.00     0.233 C 
ATOM     22  H9  <0> d          -0.514  -0.609   2.776  0.00  0.00     0.277 HD
ATOM     23  H19 <0> d           0.419  -1.954   2.528  0.00  0.00     0.277 HD
ATOM     24  C3  <0> d          -1.373  -0.573   0.184  0.00  0.00     0.048 C 
ENDBRANCH   1  17
TORSDOF 3
