REMARK  4 active torsions:
REMARK  status: ('A' for Active; 'I' for Inactive)
REMARK    1  A    between atoms: C6_7  and  C9_11 
REMARK       I    between atoms: C9_11  and  N3_13 
REMARK    2  A    between atoms: N3_13  and  N4_14 
REMARK    3  A    between atoms: C10_15  and  C11_16 
REMARK    4  A    between atoms: C16_21  and  O2_22 
ROOT
ATOM      1  C9  <0> d           4.839  -3.299   1.429  0.00  0.00     0.271 C 
ATOM      2  O1  <0> d           4.857  -3.320   2.645  0.00  0.00    -0.266 OA
ATOM      3  N3  <0> d           5.795  -3.944   0.730  0.00  0.00    -0.243 N 
ATOM      4  H8  <0> d           5.780  -3.927  -0.240  0.00  0.00     0.192 HD
ENDROOT
BRANCH   1   5
ATOM      5  C6  <0> d           3.769  -2.568   0.718  0.00  0.00     0.036 A 
ATOM      6  C5  <0> d           3.765  -2.555  -0.743  0.00  0.00     0.019 A 
ATOM      7  C4  <0> d           2.819  -1.907  -1.446  0.00  0.00     0.032 A 
ATOM      8  C3  <0> d           1.749  -1.185  -0.744  0.00  0.00     0.056 A 
ATOM      9  N1  <0> d           0.732  -0.492  -1.174  0.00  0.00    -0.367 N 
ATOM     10  C8  <0> d           1.745  -1.193   0.743  0.00  0.00     0.057 A 
ATOM     11  C2  <0> d           0.002  -0.004   0.002  0.00  0.00     0.177 A 
ATOM     12  H15 <0> d           0.501  -0.328  -2.102  0.00  0.00     0.161 HD
ATOM     13  C1  <0> d          -0.019   1.526   0.010  0.00  0.00     0.055 C 
ATOM     14  N2  <0> d           0.726  -0.505   1.177  0.00  0.00    -0.367 N 
ATOM     15  H16 <0> d           0.490  -0.351   2.105  0.00  0.00     0.161 HD
ATOM     16  C7  <0> d           2.813  -1.923   1.441  0.00  0.00     0.048 A 
ENDBRANCH   1   5
BRANCH   3  17
ATOM     17  N4  <0> d           6.808  -4.637   1.404  0.00  0.00    -0.183 NA
ATOM     18  C10 <0> d           7.729  -5.258   0.730  0.00  0.00     0.153 C 
BRANCH  18  19
ATOM     19  C11 <0> d           8.795  -5.987   1.439  0.00  0.00     0.016 A 
ATOM     20  C16 <0> d           8.819  -6.013   2.841  0.00  0.00     0.077 A 
ATOM     21  C15 <0> d           9.823  -6.707   3.497  0.00  0.00     0.037 A 
ATOM     22  C14 <0> d          10.802  -7.360   2.772  0.00  0.00     0.003 A 
ATOM     23  C13 <0> d          10.785  -7.332   1.388  0.00  0.00     0.001 A 
ATOM     24  C12 <0> d           9.790  -6.651   0.719  0.00  0.00     0.016 A 
BRANCH  20  25
ATOM     25  O2  <0> d           7.860  -5.366   3.551  0.00  0.00    -0.360 OA
ATOM     26  H14 <0> d           7.086  -5.909   3.752  0.00  0.00     0.217 HD
ENDBRANCH  20  25
ENDBRANCH  18  19
ENDBRANCH   3  17
TORSDOF 4
