REMARK  7 active torsions:
REMARK  status: ('A' for Active; 'I' for Inactive)
REMARK    1  A    between atoms: C2_2  and  N1_4 
REMARK    2  A    between atoms: N1_4  and  S1_5 
REMARK    3  A    between atoms: S1_5  and  C4_8 
REMARK    4  A    between atoms: C15_19  and  C16_21 
REMARK    5  A    between atoms: C18_23  and  O5_31 
REMARK    6  A    between atoms: C19_24  and  O4_29 
REMARK    7  A    between atoms: C20_25  and  O3_27 
ROOT
ATOM      1  C4  <0> d          -1.192   1.179   0.989  0.00  0.00     0.080 A 
ATOM      2  C5  <0> d          -0.516   2.345   0.676  0.00  0.00     0.027 A 
ATOM      3  C6  <0> d           0.762   2.276   0.160  0.00  0.00     0.031 A 
ATOM      4  C7  <0> d           1.366   1.041  -0.039  0.00  0.00     0.035 A 
ATOM      5  C8  <0> d           0.694  -0.130   0.276  0.00  0.00    -0.022 A 
ATOM      6  C9  <0> d          -0.591  -0.048   0.796  0.00  0.00     0.035 A 
ATOM      7  C10 <0> d           1.301  -1.482   0.075  0.00  0.00     0.050 C 
ATOM      8  C11 <0> d           1.735  -2.092   1.386  0.00  0.00    -0.021 C 
ATOM      9  C12 <0> d           2.842  -2.775   1.225  0.00  0.00    -0.029 C 
ATOM     10  C13 <0> d           3.295  -2.717  -0.221  0.00  0.00     0.035 C 
ATOM     11  C14 <0> d           2.590  -1.442  -0.769  0.00  0.00     0.028 C 
ATOM     12  C15 <0> d           3.445  -0.238  -0.361  0.00  0.00     0.120 C 
ATOM     13  N2  <0> d           2.664   0.988  -0.559  0.00  0.00    -0.380 N 
ATOM     14  H19 <0> d           3.038   1.743  -1.040  0.00  0.00     0.160 HD
ENDROOT
BRANCH  12  15
ATOM     15  C16 <0> d           3.829  -0.361   1.091  0.00  0.00    -0.030 A 
ATOM     16  C21 <0> d           4.956  -1.079   1.447  0.00  0.00     0.049 A 
ATOM     17  C20 <0> d           5.313  -1.196   2.782  0.00  0.00     0.104 A 
ATOM     18  C19 <0> d           4.537  -0.589   3.762  0.00  0.00     0.135 A 
ATOM     19  C18 <0> d           3.405   0.132   3.400  0.00  0.00     0.104 A 
ATOM     20  C17 <0> d           3.058   0.248   2.063  0.00  0.00     0.049 A 
BRANCH  17  21
ATOM     21  O3  <0> d           6.421  -1.902   3.131  0.00  0.00    -0.353 OA
ATOM     22  C22 <0> d           7.171  -2.498   2.071  0.00  0.00     0.210 C 
ENDBRANCH  17  21
BRANCH  18  23
ATOM     23  O4  <0> d           4.883  -0.701   5.074  0.00  0.00    -0.351 OA
ATOM     24  C23 <0> d           5.753   0.301   5.603  0.00  0.00     0.210 C 
ENDBRANCH  18  23
BRANCH  19  25
ATOM     25  O5  <0> d           2.643   0.728   4.356  0.00  0.00    -0.353 OA
ATOM     26  C24 <0> d           1.537   1.514   3.907  0.00  0.00     0.210 C 
ENDBRANCH  19  25
ENDBRANCH  12  15
BRANCH   1  27
ATOM     27  S1  <0> d          -2.826   1.262   1.643  0.00  0.00     0.259 S 
ATOM     28  O1  <0> d          -3.445   2.394   1.048  0.00  0.00    -0.201 OA
ATOM     29  O2  <0> d          -3.372  -0.046   1.541  0.00  0.00    -0.201 OA
BRANCH  27  30
ATOM     30  N1  <0> d          -2.690   1.593   3.260  0.00  0.00    -0.311 N 
ATOM     31  H11 <0> d          -2.754   0.875   3.909  0.00  0.00     0.172 HD
BRANCH  30  32
ATOM     32  C2  <0> d          -2.473   2.970   3.711  0.00  0.00     0.085 C 
ATOM     33  C1  <0> d          -3.207   3.195   5.034  0.00  0.00     0.032 C 
ATOM     34  C3  <0> d          -0.976   3.211   3.911  0.00  0.00     0.032 C 
ENDBRANCH  30  32
ENDBRANCH  27  30
ENDBRANCH   1  27
TORSDOF 7
