REMARK  4 active torsions:
REMARK  status: ('A' for Active; 'I' for Inactive)
REMARK    1  A    between atoms: C6_6  and  O1_7 
REMARK    2  A    between atoms: O1_7  and  C7_8 
REMARK       I    between atoms: N1_14  and  C11_15 
REMARK    3  A    between atoms: C11_15  and  C12_17 
REMARK       I    between atoms: C12_17  and  N2_19 
REMARK    4  A    between atoms: N2_19  and  C13_20 
ROOT
ATOM      1  C1  <0> d           0.061   1.287   0.194  0.00  0.00     0.039 A 
ATOM      2  C2  <0> d           1.237   2.006   0.125  0.00  0.00     0.033 A 
ATOM      3  C3  <0> d           2.430   1.364  -0.187  0.00  0.00     0.044 A 
ATOM      4  C4  <0> d           2.443  -0.002  -0.427  0.00  0.00    -0.028 A 
ATOM      5  C5  <0> d           1.262  -0.719  -0.359  0.00  0.00     0.046 A 
ATOM      6  C6  <0> d           0.072  -0.078  -0.050  0.00  0.00     0.075 A 
ATOM      7  C8  <0> d           3.720  -0.730  -0.756  0.00  0.00     0.042 C 
ATOM      8  C9  <0> d           4.776   0.246  -1.274  0.00  0.00     0.025 C 
ATOM      9  C10 <0> d           4.900   1.412  -0.285  0.00  0.00     0.133 C 
ATOM     10  N1  <0> d           3.611   2.116  -0.256  0.00  0.00    -0.309 N 
ATOM     11  C11 <0> d           3.565   3.462  -0.295  0.00  0.00     0.316 C 
ATOM     12  O2  <0> d           2.498   4.030  -0.411  0.00  0.00    -0.262 OA
ENDROOT
BRANCH  11  13
ATOM     13  C12 <0> d           4.826   4.256  -0.195  0.00  0.00     0.310 C 
ATOM     14  O3  <0> d           5.877   3.698   0.039  0.00  0.00    -0.262 OA
ATOM     15  N2  <0> d           4.796   5.593  -0.366  0.00  0.00    -0.347 N 
ATOM     16  H12 <0> d           3.955   6.039  -0.554  0.00  0.00     0.163 HD
BRANCH  15  17
ATOM     17  C13 <0> d           6.033   6.372  -0.269  0.00  0.00     0.099 C 
ATOM     18  C16 <0> d           5.695   7.823   0.148  0.00  0.00     0.165 C 
ATOM     19  S1  <0> d           7.008   8.801  -0.689  0.00  0.00     0.146 S 
ATOM     20  C15 <0> d           7.869   7.445  -1.591  0.00  0.00     0.142 C 
ATOM     21  O4  <0> d           6.403   9.674  -1.633  0.00  0.00    -0.228 OA
ATOM     22  O5  <0> d           7.886   9.334   0.293  0.00  0.00    -0.228 OA
ATOM     23  C14 <0> d           6.745   6.371  -1.632  0.00  0.00     0.041 C 
ENDBRANCH  15  17
ENDBRANCH  11  13
BRANCH   6  24
ATOM     24  O1  <0> d          -1.085  -0.789   0.015  0.00  0.00    -0.290 OA
BRANCH  24  25
ATOM     25  C7  <0> d          -2.274  -0.065   0.339  0.00  0.00     0.505 C 
ATOM     26  F1  <0> d          -2.128   0.532   1.596  0.00  0.00    -0.184 F 
ATOM     27  F2  <0> d          -2.494   0.925  -0.624  0.00  0.00    -0.184 F 
ENDBRANCH  24  25
ENDBRANCH   6  24
TORSDOF 4
