REMARK  2 active torsions:
REMARK  status: ('A' for Active; 'I' for Inactive)
REMARK    1  A    between atoms: C6_7  and  C9_10 
REMARK    2  A    between atoms: N3_17  and  C14_20 
ROOT
ATOM      1  C9  <0> d           0.659  -3.167   0.216  0.00  0.00     0.031 C 
ATOM      2  C10 <0> d           1.148  -4.450  -0.021  0.00  0.00     0.089 A 
ATOM      3  C11 <0> d           0.244  -5.582  -0.275  0.00  0.00     0.220 A 
ATOM      4  O1  <0> d          -1.094  -5.408  -0.285  0.00  0.00    -0.169 OA
ATOM      5  N2  <0> d           0.772  -6.774  -0.493  0.00  0.00    -0.165 NA
ATOM      6  C12 <0> d           2.088  -6.976  -0.490  0.00  0.00     0.354 A 
ATOM      7  O2  <0> d           2.498  -8.104  -0.700  0.00  0.00    -0.244 OA
ATOM      8  N3  <0> d           2.987  -6.006  -0.268  0.00  0.00    -0.259 N 
ATOM      9  C13 <0> d           2.598  -4.734  -0.035  0.00  0.00     0.266 A 
ATOM     10  O3  <0> d           3.413  -3.852   0.161  0.00  0.00    -0.267 OA
ENDROOT
BRANCH   1  11
ATOM     11  C6  <0> d           1.336  -2.057  -0.292  0.00  0.00    -0.027 A 
ATOM     12  C5  <0> d           2.803  -1.965  -0.655  0.00  0.00     0.159 A 
ATOM     13  N1  <0> d           3.016  -0.599  -1.141  0.00  0.00    -0.385 N 
ATOM     14  C4  <0> d           1.892   0.060  -1.096  0.00  0.00     0.039 A 
ATOM     15  H13 <0> d           3.863  -0.240  -1.449  0.00  0.00     0.160 HD
ATOM     16  C3  <0> d           1.550   1.444  -1.460  0.00  0.00     0.030 A 
ATOM     17  C7  <0> d           0.805  -0.801  -0.573  0.00  0.00    -0.002 A 
ATOM     18  C2  <0> d           0.275   1.868  -1.306  0.00  0.00     0.002 A 
ATOM     19  C1  <0> d          -0.730   1.026  -0.808  0.00  0.00     0.001 A 
ATOM     20  C8  <0> d          -0.490  -0.259  -0.452  0.00  0.00     0.014 A 
ENDBRANCH   1  11
BRANCH   8  21
ATOM     21  C14 <0> d           4.416  -6.330  -0.284  0.00  0.00     0.098 A 
ATOM     22  C16 <0> d           5.014  -6.818  -1.605  0.00  0.00     0.028 A 
ATOM     23  C15 <0> d           5.339  -5.414  -1.091  0.00  0.00     0.028 A 
ENDBRANCH   8  21
TORSDOF 2
