REMARK  5 active torsions:
REMARK  status: ('A' for Active; 'I' for Inactive)
REMARK    1  A    between atoms: C6_6  and  C7_7 
REMARK    2  A    between atoms: C7_7  and  C8_9 
REMARK    3  A    between atoms: C8_9  and  S1_10 
REMARK    4  A    between atoms: S1_10  and  C9_11 
REMARK    5  A    between atoms: C10_14  and  C11_16 
ROOT
ATOM      1  C7  <0> d          -2.518   3.863   0.045  0.00  0.00     0.169 C 
ATOM      2  O1  <0> d          -2.532   5.076   0.052  0.00  0.00    -0.291 OA
ENDROOT
BRANCH   1   3
ATOM      3  C6  <0> d          -1.237   3.144   0.030  0.00  0.00     0.011 A 
ATOM      4  C1  <0> d          -1.213   1.744   0.017  0.00  0.00     0.017 A 
ATOM      5  C2  <0> d          -0.013   1.076   0.008  0.00  0.00     0.031 A 
ATOM      6  C3  <0> d           1.190   1.788   0.000  0.00  0.00     0.041 A 
ATOM      7  N3  <0> d           2.505   1.341  -0.014  0.00  0.00    -0.326 N 
ATOM      8  C4  <0> d           1.155   3.181   0.008  0.00  0.00    -0.022 A 
ATOM      9  C15 <0> d           3.390   2.352  -0.017  0.00  0.00     0.226 A 
ATOM     10  H13 <0> d           2.757   0.404  -0.021  0.00  0.00     0.169 HD
ATOM     11  C14 <0> d           2.595   3.641  -0.003  0.00  0.00     0.144 A 
ATOM     12  O3  <0> d           4.598   2.252  -0.028  0.00  0.00    -0.273 OA
ATOM     13  C5  <0> d          -0.028   3.855   0.022  0.00  0.00     0.025 A 
ENDBRANCH   1   3
BRANCH   1  14
ATOM     14  C8  <0> d          -3.813   3.094   0.054  0.00  0.00     0.166 C 
BRANCH  14  15
ATOM     15  S1  <0> d          -5.203   4.253   0.072  0.00  0.00    -0.075 SA
BRANCH  15  16
ATOM     16  C9  <0> d          -6.550   3.116   0.079  0.00  0.00     0.231 A 
ATOM     17  O2  <0> d          -7.859   3.429   0.099  0.00  0.00    -0.268 OA
ATOM     18  C10 <0> d          -8.528   2.260   0.093  0.00  0.00     0.174 A 
ATOM     19  N2  <0> d          -7.646   1.303   0.081  0.00  0.00    -0.126 NA
ATOM     20  N1  <0> d          -6.463   1.808   0.072  0.00  0.00    -0.114 NA
BRANCH  18  21
ATOM     21  C11 <0> d         -10.025   2.090   0.106  0.00  0.00     0.065 A 
ATOM     22  C13 <0> d         -10.662   1.342  -1.067  0.00  0.00     0.013 A 
ATOM     23  C12 <0> d         -10.574   0.676   0.308  0.00  0.00     0.013 A 
ENDBRANCH  18  21
ENDBRANCH  15  16
ENDBRANCH  14  15
ENDBRANCH   1  14
TORSDOF 5
