REMARK  6 active torsions:
REMARK  status: ('A' for Active; 'I' for Inactive)
REMARK    1  A    between atoms: C5_7  and  C19_27 
REMARK    2  A    between atoms: C6_9  and  N5_13 
REMARK    3  A    between atoms: N5_13  and  C8_14 
REMARK    4  A    between atoms: C8_14  and  C9_15 
REMARK    5  A    between atoms: C9_15  and  C10_16 
REMARK    6  A    between atoms: C13_19  and  O2_25 
ROOT
ATOM      1  C1  <0> d          -0.019   1.526   0.010  0.00  0.00     0.043 C 
ATOM      2  C2  <0> d           0.002  -0.004   0.002  0.00  0.00     0.230 C 
ATOM      3  C3  <0> d          -1.434  -0.540   0.026  0.00  0.00     0.138 C 
ATOM      4  C4  <0> d          -1.376  -2.039   0.155  0.00  0.00     0.226 C 
ATOM      5  O1  <0> d          -2.307  -2.706  -0.243  0.00  0.00    -0.273 OA
ATOM      6  N1  <0> d          -0.317  -2.653   0.701  0.00  0.00    -0.277 N 
ATOM      7  C5  <0> d          -0.314  -4.124   0.803  0.00  0.00     0.267 C 
ATOM      8  N2  <0> d           0.216  -4.523   2.104  0.00  0.00    -0.076 NA
ATOM      9  C6  <0> d           0.864  -3.725   2.888  0.00  0.00     0.696 C 
ATOM     10  N3  <0> d           1.086  -2.404   2.586  0.00  0.00    -0.176 N 
ATOM     11  C7  <0> d           0.858  -1.943   1.205  0.00  0.00     0.446 C 
ATOM     12  N4  <0> d           0.700  -0.495   1.194  0.00  0.00     0.131 N 
ATOM     13  H9  <0> d           1.388  -1.785   3.269  0.00  0.00     0.181 HD
ATOM     14  H29 <0> d           1.589  -0.033   1.309  0.00  0.00     0.321 HD
ENDROOT
BRANCH   9  15
ATOM     15  N5  <0> d           1.350  -4.220   4.075  0.00  0.00    -0.224 N 
ATOM     16  H10 <0> d           1.839  -3.639   4.678  0.00  0.00     0.177 HD
BRANCH  15  17
ATOM     17  C8  <0> d           1.130  -5.625   4.428  0.00  0.00     0.142 C 
BRANCH  17  18
ATOM     18  C9  <0> d           1.768  -5.914   5.788  0.00  0.00     0.057 C 
BRANCH  18  19
ATOM     19  C10 <0> d           1.542  -7.359   6.152  0.00  0.00    -0.048 A 
ATOM     20  C17 <0> d           0.323  -7.946   6.828  0.00  0.00     0.155 A 
ATOM     21  N6  <0> d           0.587  -9.384   6.956  0.00  0.00    -0.385 N 
ATOM     22  C16 <0> d           1.770  -9.637   6.454  0.00  0.00     0.039 A 
ATOM     23  H28 <0> d          -0.013 -10.037   7.350  0.00  0.00     0.160 HD
ATOM     24  C11 <0> d           2.389  -8.392   5.944  0.00  0.00    -0.003 A 
ATOM     25  C15 <0> d           2.533 -10.882   6.322  0.00  0.00     0.033 A 
ATOM     26  C12 <0> d           3.724  -8.479   5.342  0.00  0.00     0.050 A 
ATOM     27  C13 <0> d           4.346  -9.680   5.268  0.00  0.00     0.069 A 
ATOM     28  C14 <0> d           3.757 -10.861   5.752  0.00  0.00     0.039 A 
BRANCH  27  29
ATOM     29  O2  <0> d           5.582  -9.745   4.707  0.00  0.00    -0.356 OA
ATOM     30  C18 <0> d           6.201 -11.032   4.650  0.00  0.00     0.210 C 
ENDBRANCH  27  29
ENDBRANCH  18  19
ENDBRANCH  17  18
ENDBRANCH  15  17
ENDBRANCH   9  15
BRANCH   7  31
ATOM     31  C19 <0> d           0.551  -4.701  -0.288  0.00  0.00    -0.013 A 
ATOM     32  C24 <0> d           1.216  -5.895  -0.084  0.00  0.00     0.011 A 
ATOM     33  C23 <0> d           2.005  -6.427  -1.087  0.00  0.00     0.001 A 
ATOM     34  C22 <0> d           2.137  -5.759  -2.290  0.00  0.00     0.000 A 
ATOM     35  C21 <0> d           1.476  -4.561  -2.492  0.00  0.00     0.001 A 
ATOM     36  C20 <0> d           0.683  -4.032  -1.491  0.00  0.00     0.011 A 
ENDBRANCH   7  31
TORSDOF 6
