REMARK  7 active torsions:
REMARK  status: ('A' for Active; 'I' for Inactive)
REMARK    1  A    between atoms: C3_3  and  N1_9 
REMARK    2  A    between atoms: N1_9  and  C7_10 
REMARK    3  A    between atoms: C7_10  and  C8_11 
REMARK    4  A    between atoms: C8_11  and  O1_12 
REMARK    5  A    between atoms: O1_12  and  C9_13 
REMARK    6  A    between atoms: C9_13  and  C10_14 
REMARK    7  A    between atoms: C10_14  and  O2_15 
ROOT
ATOM      1  N1  <0> d           3.583   2.125  -0.021  0.00  0.00    -0.387 N 
ATOM      2  H4  <0> d           4.429   1.651  -0.032  0.00  0.00     0.159 HD
ENDROOT
BRANCH   1   3
ATOM      3  C3  <0> d           2.381   1.410  -0.013  0.00  0.00     0.045 A 
ATOM      4  C2  <0> d           1.169   2.088   0.002  0.00  0.00     0.032 A 
ATOM      5  C1  <0> d          -0.017   1.379   0.010  0.00  0.00     0.021 A 
ATOM      6  C6  <0> d           0.002  -0.004   0.002  0.00  0.00     0.012 A 
ATOM      7  C5  <0> d           1.208  -0.682  -0.013  0.00  0.00     0.040 A 
ATOM      8 Br1  <0> d          -1.624  -0.970   0.012  0.00  0.00    -0.051 Br
ATOM      9  C4  <0> d           2.397   0.021  -0.021  0.00  0.00     0.038 A 
ATOM     10 Br2  <0> d           4.045  -0.907  -0.042  0.00  0.00    -0.049 Br
ENDBRANCH   1   3
BRANCH   1  11
ATOM     11  C7  <0> d           3.564   3.590  -0.014  0.00  0.00     0.146 C 
BRANCH  11  12
ATOM     12  C8  <0> d           5.000   4.118  -0.025  0.00  0.00     0.187 C 
BRANCH  12  13
ATOM     13  O1  <0> d           5.631   3.755  -1.254  0.00  0.00    -0.387 OA
BRANCH  13  14
ATOM     14  C9  <0> d           6.984   4.202  -1.367  0.00  0.00     0.193 C 
BRANCH  14  15
ATOM     15  C10 <0> d           7.557   3.759  -2.715  0.00  0.00     0.190 C 
BRANCH  15  16
ATOM     16  O2  <0> d           6.852   4.415  -3.771  0.00  0.00    -0.399 OA
ATOM     17  H13 <0> d           7.163   4.180  -4.656  0.00  0.00     0.209 HD
ENDBRANCH  15  16
ENDBRANCH  14  15
ENDBRANCH  13  14
ENDBRANCH  12  13
ENDBRANCH  11  12
ENDBRANCH   1  11
TORSDOF 7
