REMARK  4 active torsions:
REMARK  status: ('A' for Active; 'I' for Inactive)
REMARK    1  A    between atoms: C2_2  and  O1_3 
REMARK    2  A    between atoms: O1_3  and  C3_4 
REMARK    3  A    between atoms: C5_6  and  C9_12 
REMARK    4  A    between atoms: C8_9  and  O2_10 
ROOT
ATOM      1  C9  <0> d          -5.235   1.498   4.160  0.00  0.00     0.219 C 
ATOM      2  N1  <0> d          -5.425   0.713   2.927  0.00  0.00    -0.358 N 
ATOM      3  C10 <0> d          -4.438   0.806   1.980  0.00  0.00     0.088 A 
ATOM      4  C11 <0> d          -3.119   1.176   2.285  0.00  0.00     0.073 A 
ATOM      5  C12 <0> d          -2.199   1.215   1.162  0.00  0.00    -0.023 A 
ATOM      6  C13 <0> d          -2.729   0.900  -0.042  0.00  0.00     0.018 A 
ATOM      7  S1  <0> d          -4.432   0.542   0.288  0.00  0.00    -0.074 SA
ATOM      8  C14 <0> d          -2.005   0.868  -1.352  0.00  0.00     0.281 C 
ATOM      9  N2  <0> d          -0.719   1.570  -1.186  0.00  0.00    -0.070 N 
ATOM     10  C15 <0> d          -0.013   1.086   0.008  0.00  0.00     0.239 C 
ATOM     11  C16 <0> d          -0.724   1.577   1.272  0.00  0.00     0.068 C 
ATOM     12  C17 <0> d           0.117   1.428  -2.386  0.00  0.00     0.270 C 
ATOM     13  C18 <0> d          -2.803   1.475   3.701  0.00  0.00     0.256 C 
ATOM     14  O3  <0> d          -1.660   1.682   4.065  0.00  0.00    -0.267 OA
ATOM     15  N3  <0> d          -3.834   1.507   4.571  0.00  0.00    -0.332 N 
ATOM     16  H10 <0> d          -6.325   0.092   2.804  0.00  0.00     0.162 HD
ATOM     17  H20 <0> d          -3.574   1.543   5.639  0.00  0.00     0.165 HD
ATOM     18  H21 <0> d          -0.924   2.642  -1.049  0.00  0.00     0.279 HD
ENDROOT
BRANCH   1  19
ATOM     19  C5  <0> d          -5.687   2.915   3.917  0.00  0.00    -0.012 A 
ATOM     20  C4  <0> d          -5.117   3.953   4.629  0.00  0.00     0.050 A 
ATOM     21  C3  <0> d          -5.532   5.256   4.406  0.00  0.00     0.103 A 
ATOM     22  C8  <0> d          -6.523   5.517   3.465  0.00  0.00     0.115 A 
ATOM     23  C7  <0> d          -7.091   4.471   2.754  0.00  0.00     0.043 A 
ATOM     24  C6  <0> d          -6.668   3.173   2.977  0.00  0.00     0.032 A 
ATOM     25  I1  <0> d          -8.583   4.858   1.335  0.00  0.00    -0.042 I 
BRANCH  21  26
ATOM     26  O1  <0> d          -4.971   6.279   5.106  0.00  0.00    -0.349 OA
BRANCH  26  27
ATOM     27  C2  <0> d          -3.959   5.937   6.056  0.00  0.00     0.171 C 
ATOM     28  C1  <0> d          -3.451   7.208   6.739  0.00  0.00     0.034 C 
ENDBRANCH  26  27
ENDBRANCH  21  26
BRANCH  22  29
ATOM     29  O2  <0> d          -6.933   6.794   3.243  0.00  0.00    -0.357 OA
ATOM     30  H9  <0> d          -7.716   6.999   2.498  0.00  0.00     0.218 HD
ENDBRANCH  22  29
ENDBRANCH   1  19
TORSDOF 4
