REMARK  3 active torsions:
REMARK  status: ('A' for Active; 'I' for Inactive)
REMARK    1  A    between atoms: C8_8  and  C9_10 
REMARK       I    between atoms: C9_10  and  N1_12 
REMARK    2  A    between atoms: N1_12  and  C10_13 
REMARK    3  A    between atoms: C11_14  and  C15_21 
ROOT
ATOM      1  C10 <0> d           3.711   8.323   0.610  0.00  0.00     0.146 A 
ATOM      2  C11 <0> d           4.864   8.994   0.343  0.00  0.00     0.114 A 
ATOM      3  N2  <0> d           4.921  10.071   1.167  0.00  0.00    -0.219 NA
ATOM      4  C12 <0> d           3.859  10.081   1.917  0.00  0.00     0.179 A 
ATOM      5  N3  <0> d           3.047   9.014   1.619  0.00  0.00    -0.284 N 
ATOM      6  C13 <0> d           1.875   8.904   2.339  0.00  0.00     0.108 A 
ATOM      7  C14 <0> d           1.561   9.800   3.272  0.00  0.00     0.071 A 
ATOM      8  S1  <0> d           2.960  10.908   3.209  0.00  0.00    -0.062 SA
ENDROOT
BRANCH   1   9
ATOM      9  N1  <0> d           3.270   7.155  -0.019  0.00  0.00    -0.308 N 
ATOM     10  C9  <0> d           2.445   6.311   0.630  0.00  0.00     0.253 C 
ATOM     11  O2  <0> d           2.169   6.508   1.795  0.00  0.00    -0.270 OA
ATOM     12  H8  <0> d           3.558   6.953  -0.923  0.00  0.00     0.170 HD
BRANCH  10  13
ATOM     13  C8  <0> d           1.865   5.121  -0.090  0.00  0.00     0.225 C 
ATOM     14  C7  <0> d           2.961   4.068  -0.380  0.00  0.00     0.083 C 
ATOM     15  C5  <0> d           2.204   2.768  -0.192  0.00  0.00    -0.022 A 
ATOM     16  C4  <0> d           1.027   3.075   0.477  0.00  0.00     0.076 A 
ATOM     17  C6  <0> d           2.487   1.471  -0.561  0.00  0.00     0.010 A 
ATOM     18  C3  <0> d           0.127   2.050   0.762  0.00  0.00     0.037 A 
ATOM     19  O1  <0> d           0.953   4.405   0.760  0.00  0.00    -0.336 OA
ATOM     20  C2  <0> d           0.409   0.754   0.384  0.00  0.00     0.003 A 
ATOM     21  C1  <0> d           1.590   0.458  -0.271  0.00  0.00     0.001 A 
ENDBRANCH  10  13
ENDBRANCH   1   9
BRANCH   2  22
ATOM     22  C15 <0> d           5.879   8.617  -0.669  0.00  0.00    -0.003 A 
ATOM     23  C20 <0> d           6.570   9.605  -1.370  0.00  0.00     0.017 A 
ATOM     24  C19 <0> d           7.514   9.248  -2.311  0.00  0.00     0.043 A 
ATOM     25  C18 <0> d           7.776   7.911  -2.560  0.00  0.00     0.116 A 
ATOM     26  C17 <0> d           7.092   6.925  -1.866  0.00  0.00     0.043 A 
ATOM     27  F1  <0> d           8.702   7.566  -3.482  0.00  0.00    -0.206 F 
ATOM     28  C16 <0> d           6.150   7.272  -0.920  0.00  0.00     0.017 A 
ENDBRANCH   2  22
TORSDOF 3
