REMARK  3 active torsions:
REMARK  status: ('A' for Active; 'I' for Inactive)
REMARK    1  A    between atoms: N1_13  and  C13_17 
REMARK    2  A    between atoms: C13_17  and  C14_18 
REMARK    3  A    between atoms: C14_18  and  N3_19 
ROOT
ATOM      1  C1  <0> d          -0.017   1.375   0.010  0.00  0.00     0.001 A 
ATOM      2  C2  <0> d           1.174   2.078   0.002  0.00  0.00     0.001 A 
ATOM      3  C3  <0> d           2.372   1.395  -0.017  0.00  0.00     0.007 A 
ATOM      4  C4  <0> d           2.393   0.006  -0.027  0.00  0.00    -0.049 A 
ATOM      5  C5  <0> d           1.208  -0.694  -0.013  0.00  0.00    -0.052 A 
ATOM      6  C6  <0> d           0.002  -0.004   0.002  0.00  0.00     0.007 A 
ATOM      7  C7  <0> d           1.151  -2.200  -0.003  0.00  0.00     0.042 C 
ATOM      8  C8  <0> d           2.485  -2.794  -0.452  0.00  0.00     0.046 C 
ATOM      9  C9  <0> d           3.604  -2.135   0.351  0.00  0.00     0.120 A 
ATOM     10  C10 <0> d           3.737  -0.675  -0.056  0.00  0.00     0.080 C 
ATOM     11  C11 <0> d           3.334  -2.256   1.832  0.00  0.00     0.256 A 
ATOM     12  O1  <0> d           2.387  -1.810   2.445  0.00  0.00    -0.270 OA
ATOM     13  N1  <0> d           4.368  -2.965   2.329  0.00  0.00    -0.266 N 
ATOM     14  C12 <0> d           5.241  -3.302   1.371  0.00  0.00     0.326 A 
ATOM     15  O2  <0> d           6.253  -3.943   1.574  0.00  0.00    -0.247 OA
ATOM     16  N2  <0> d           4.870  -2.850   0.157  0.00  0.00    -0.324 N 
ATOM     17  H11 <0> d           5.346  -2.974  -0.679  0.00  0.00     0.165 HD
ENDROOT
BRANCH  13  18
ATOM     18  C13 <0> d           4.519  -3.323   3.742  0.00  0.00     0.159 C 
BRANCH  18  19
ATOM     19  C14 <0> d           3.843  -4.671   4.002  0.00  0.00     0.170 C 
BRANCH  19  20
ATOM     20  N3  <0> d           3.993  -5.028   5.414  0.00  0.00    -0.280 N 
ATOM     21  N4  <0> d           5.201  -5.114   6.119  0.00  0.00    -0.185 NA
ATOM     22  C17 <0> d           4.931  -5.455   7.353  0.00  0.00     0.140 A 
ATOM     23  C16 <0> d           3.546  -5.606   7.471  0.00  0.00     0.040 A 
ATOM     24  C15 <0> d           2.993  -5.338   6.266  0.00  0.00     0.113 A 
ENDBRANCH  19  20
ENDBRANCH  18  19
ENDBRANCH  13  18
TORSDOF 3
