REMARK  5 active torsions:
REMARK  status: ('A' for Active; 'I' for Inactive)
REMARK    1  A    between atoms: C5_5  and  N1_8 
REMARK    2  A    between atoms: C10_12  and  N5_30 
REMARK    3  A    between atoms: C12_15  and  C13_16 
REMARK    4  A    between atoms: C12_15  and  N5_30 
REMARK    5  A    between atoms: N2_19  and  C18_22 
ROOT
ATOM      1  N5  <0> d           1.440  -2.462  -2.556  0.00  0.00    -0.061 N 
ATOM      2  H29 <0> d           0.881  -2.161  -3.363  0.00  0.00     0.278 HD
ATOM      3  H30 <0> d           2.393  -2.089  -2.642  0.00  0.00     0.278 HD
ENDROOT
BRANCH   1   4
ATOM      4  C10 <0> d           1.496  -3.936  -2.526  0.00  0.00     0.286 A 
ATOM      5  C9  <0> d           2.558  -4.451  -3.519  0.00  0.00     0.146 A 
ATOM      6  C8  <0> d           1.755  -5.281  -4.497  0.00  0.00     0.233 A 
ATOM      7  N1  <0> d           0.465  -5.255  -4.141  0.00  0.00    -0.251 N 
ATOM      8  O1  <0> d           2.209  -5.875  -5.452  0.00  0.00    -0.273 OA
ATOM      9  C11 <0> d           0.205  -4.529  -3.047  0.00  0.00     0.262 A 
ATOM     10  O2  <0> d          -0.890  -4.372  -2.553  0.00  0.00    -0.270 OA
BRANCH   7  11
ATOM     11  C5  <0> d          -0.533  -5.934  -4.856  0.00  0.00     0.045 A 
ATOM     12  C4  <0> d          -0.864  -5.529  -6.142  0.00  0.00     0.031 A 
ATOM     13  C3  <0> d          -1.847  -6.199  -6.843  0.00  0.00     0.009 A 
ATOM     14  C2  <0> d          -2.501  -7.273  -6.266  0.00  0.00    -0.062 A 
ATOM     15  C1  <0> d          -3.573  -8.002  -7.034  0.00  0.00     0.048 C 
ATOM     16  C7  <0> d          -2.173  -7.678  -4.985  0.00  0.00     0.009 A 
ATOM     17  C6  <0> d          -1.187  -7.015  -4.281  0.00  0.00     0.031 A 
ENDBRANCH   7  11
ENDBRANCH   1   4
BRANCH   1  18
ATOM     18  C12 <0> d           0.825  -1.947  -1.318  0.00  0.00     0.238 C 
BRANCH  18  19
ATOM     19  C13 <0> d           0.780  -0.419  -1.378  0.00  0.00     0.013 C 
ATOM     20  C17 <0> d           2.207   0.136  -1.378  0.00  0.00     0.021 C 
ATOM     21  C16 <0> d           2.154   1.665  -1.377  0.00  0.00     0.099 C 
ATOM     22  N2  <0> d           1.429   2.131  -0.189  0.00  0.00    -0.251 NA
ATOM     23  C15 <0> d           0.042   1.649  -0.191  0.00  0.00     0.099 C 
ATOM     24  C14 <0> d           0.031   0.119  -0.156  0.00  0.00     0.021 C 
BRANCH  22  25
ATOM     25  C18 <0> d           1.475   3.510  -0.088  0.00  0.00     0.204 A 
ATOM     26  N4  <0> d           2.652   4.119  -0.071  0.00  0.00    -0.223 NA
ATOM     27  C21 <0> d           2.731   5.436   0.024  0.00  0.00     0.036 A 
ATOM     28  C20 <0> d           1.564   6.179   0.107  0.00  0.00     0.053 A 
ATOM     29  C22 <0> d           4.073   6.120   0.041  0.00  0.00     0.070 C 
ATOM     30  C19 <0> d           0.350   5.511   0.086  0.00  0.00     0.036 A 
ATOM     31  N3  <0> d           0.341   4.192  -0.016  0.00  0.00    -0.223 NA
ATOM     32  C23 <0> d          -0.945   6.277   0.174  0.00  0.00     0.070 C 
ENDBRANCH  22  25
ENDBRANCH  18  19
ENDBRANCH   1  18
TORSDOF 5
