REMARK  7 active torsions:
REMARK  status: ('A' for Active; 'I' for Inactive)
REMARK    1  A    between atoms: C4_4  and  N1_7 
REMARK    2  A    between atoms: N1_7  and  C7_8 
REMARK    3  A    between atoms: N1_7  and  C10_12 
REMARK    4  A    between atoms: C7_8  and  C8_9 
REMARK    5  A    between atoms: C10_12  and  C11_13 
REMARK    6  A    between atoms: C10_12  and  C12_15 
REMARK    7  A    between atoms: C11_13  and  N3_14 
ROOT
ATOM      1  C8  <0> d           4.753   0.814   1.099  0.00  0.00     0.143 C 
ATOM      2  C9  <0> d           5.709   1.887   0.779  0.00  0.00     0.060 C 
ATOM      3  N2  <0> d           6.447   2.715   0.532  0.00  0.00    -0.197 NA
ENDROOT
BRANCH   1   4
ATOM      4  C7  <0> d           3.990   0.417  -0.167  0.00  0.00     0.138 C 
BRANCH   4   5
ATOM      5  N1  <0> d           3.065  -0.676   0.144  0.00  0.00    -0.369 N 
BRANCH   5   6
ATOM      6  C4  <0> d           1.795  -0.392   0.652  0.00  0.00     0.030 A 
ATOM      7  C3  <0> d           1.453   0.913   0.981  0.00  0.00     0.029 A 
ATOM      8  C2  <0> d           0.196   1.190   1.483  0.00  0.00     0.002 A 
ATOM      9  C1  <0> d          -0.720   0.170   1.658  0.00  0.00     0.000 A 
ATOM     10  C6  <0> d          -0.383  -1.131   1.331  0.00  0.00     0.002 A 
ATOM     11  C5  <0> d           0.872  -1.415   0.829  0.00  0.00     0.029 A 
ENDBRANCH   5   6
BRANCH   5  12
ATOM     12  C10 <0> d           3.471  -2.066  -0.079  0.00  0.00     0.150 C 
BRANCH  12  13
ATOM     13  C11 <0> d           3.324  -2.855   1.223  0.00  0.00     0.260 C 
BRANCH  13  14
ATOM     14  N3  <0> d           4.090  -2.192   2.287  0.00  0.00    -0.077 N 
ATOM     15  H13 <0> d           5.064  -2.153   2.026  0.00  0.00     0.274 HD
ATOM     16  H14 <0> d           3.739  -1.255   2.420  0.00  0.00     0.274 HD
ATOM     17  H17 <0> d           3.993  -2.713   3.146  0.00  0.00     0.274 HD
ENDBRANCH  13  14
ENDBRANCH  12  13
BRANCH  12  18
ATOM     18  C12 <0> d           2.596  -2.681  -1.141  0.00  0.00     0.008 A 
ATOM     19  S1  <0> d           1.060  -2.076  -1.820  0.00  0.00    -0.103 SA
ATOM     20  C15 <0> d           0.756  -3.403  -2.976  0.00  0.00     0.069 A 
ATOM     21  C14 <0> d           1.826  -4.209  -2.765  0.00  0.00     0.018 A 
ATOM     22  C13 <0> d           2.769  -3.839  -1.824  0.00  0.00     0.036 A 
ATOM     23 Br1  <0> d           2.024  -5.816  -3.742  0.00  0.00    -0.051 Br
ENDBRANCH  12  18
ENDBRANCH   5  12
ENDBRANCH   4   5
ENDBRANCH   1   4
TORSDOF 7
