REMARK  3 active torsions:
REMARK  status: ('A' for Active; 'I' for Inactive)
REMARK    1  A    between atoms: C5_5  and  C8_8 
REMARK    2  A    between atoms: C10_10  and  C17_24 
REMARK    3  A    between atoms: C12_14  and  N4_16 
ROOT
ATOM      1  C8  <0> d           0.059  -4.275  -0.021  0.00  0.00     0.135 C 
ATOM      2  C9  <0> d           1.488  -4.773   0.227  0.00  0.00     0.063 C 
ATOM      3  C10 <0> d           1.521  -6.305   0.165  0.00  0.00     0.164 C 
ATOM      4  N1  <0> d           0.446  -6.835   1.004  0.00  0.00    -0.074 N 
ATOM      5  C11 <0> d          -0.629  -6.117   1.411  0.00  0.00     0.736 A 
ATOM      6  N2  <0> d          -1.382  -6.893   2.143  0.00  0.00     0.132 NA
ATOM      7  C12 <0> d          -0.824  -8.110   2.225  0.00  0.00     0.771 A 
ATOM      8  N3  <0> d           0.297  -8.114   1.540  0.00  0.00     0.038 NA
ATOM      9  N5  <0> d          -0.815  -4.788   1.051  0.00  0.00    -0.213 N 
ATOM     10  H16 <0> d          -1.479  -4.228   1.482  0.00  0.00     0.178 HD
ENDROOT
BRANCH   1  11
ATOM     11  C5  <0> d           0.040  -2.768  -0.013  0.00  0.00    -0.035 A 
ATOM     12  C4  <0> d           0.025  -2.071  -1.206  0.00  0.00     0.010 A 
ATOM     13  C3  <0> d           0.006  -0.689  -1.199  0.00  0.00     0.007 A 
ATOM     14  C2  <0> d           0.002  -0.004   0.002  0.00  0.00    -0.062 A 
ATOM     15  C1  <0> d          -0.018   1.503   0.010  0.00  0.00     0.048 C 
ATOM     16  C7  <0> d           0.023  -0.702   1.195  0.00  0.00     0.007 A 
ATOM     17  C6  <0> d           0.037  -2.084   1.188  0.00  0.00     0.010 A 
ENDBRANCH   1  11
BRANCH   3  18
ATOM     18  C17 <0> d           2.851  -6.803   0.669  0.00  0.00    -0.033 A 
ATOM     19  C22 <0> d           3.669  -7.548  -0.160  0.00  0.00     0.009 A 
ATOM     20  C21 <0> d           4.891  -8.000   0.301  0.00  0.00     0.001 A 
ATOM     21  C20 <0> d           5.291  -7.716   1.594  0.00  0.00     0.000 A 
ATOM     22  C19 <0> d           4.471  -6.975   2.424  0.00  0.00     0.001 A 
ATOM     23  C18 <0> d           3.250  -6.519   1.961  0.00  0.00     0.009 A 
ENDBRANCH   3  18
BRANCH   7  24
ATOM     24  N4  <0> d          -1.351  -9.200   2.929  0.00  0.00    -0.077 N 
ATOM     25  C16 <0> d          -2.502  -9.135   3.611  0.00  0.00     0.246 A 
ATOM     26  C15 <0> d          -2.781 -10.479   4.246  0.00  0.00     0.113 A 
ATOM     27  O2  <0> d          -3.209  -8.155   3.702  0.00  0.00    -0.272 OA
ATOM     28  C14 <0> d          -1.575 -11.339   3.817  0.00  0.00     0.113 A 
ATOM     29  C13 <0> d          -0.744 -10.392   2.980  0.00  0.00     0.246 A 
ATOM     30  O1  <0> d           0.306 -10.668   2.441  0.00  0.00    -0.272 OA
ENDBRANCH   7  24
TORSDOF 3
