REMARK  5 active torsions:
REMARK  status: ('A' for Active; 'I' for Inactive)
REMARK    1  A    between atoms: C4_4  and  N1_7 
REMARK    2  A    between atoms: C7_8  and  C17_23 
REMARK    3  A    between atoms: C8_11  and  S1_12 
REMARK    4  A    between atoms: S1_12  and  C9_13 
REMARK    5  A    between atoms: C9_13  and  C10_14 
ROOT
ATOM      1  N1  <0> d           3.580  -0.629   0.063  0.00  0.00    -0.332 N 
ATOM      2  C7  <0> d           3.772  -2.090   0.043  0.00  0.00     0.209 C 
ATOM      3  N2  <0> d           5.234  -2.324   0.048  0.00  0.00    -0.232 NA
ATOM      4  N3  <0> d           5.805  -1.083  -0.498  0.00  0.00    -0.227 NA
ATOM      5  C8  <0> d           4.930  -0.030   0.073  0.00  0.00     0.237 C 
ATOM      6  H8  <0> d           5.475  -3.117  -0.527  0.00  0.00     0.143 HD
ATOM      7  H9  <0> d           5.760  -1.077  -1.506  0.00  0.00     0.143 HD
ENDROOT
BRANCH   5   8
ATOM      8  S1  <0> d           5.438   0.359   1.770  0.00  0.00    -0.123 SA
BRANCH   8   9
ATOM      9  C9  <0> d           5.616  -1.265   2.559  0.00  0.00     0.124 C 
BRANCH   9  10
ATOM     10  C10 <0> d           6.176  -1.088   3.971  0.00  0.00     0.191 A 
ATOM     11  N5  <0> d           7.489  -0.434   3.914  0.00  0.00    -0.366 N 
ATOM     12  C16 <0> d           7.397   0.685   4.573  0.00  0.00     0.056 A 
ATOM     13  H22 <0> d           8.281  -0.773   3.468  0.00  0.00     0.162 HD
ATOM     14  C11 <0> d           6.014   0.834   5.103  0.00  0.00     0.056 A 
ATOM     15  C15 <0> d           8.360   1.757   4.862  0.00  0.00     0.031 A 
ATOM     16  N4  <0> d           5.304  -0.200   4.751  0.00  0.00    -0.366 N 
ATOM     17  C12 <0> d           5.703   2.041   5.881  0.00  0.00     0.031 A 
ATOM     18  H21 <0> d           4.371  -0.355   4.965  0.00  0.00     0.162 HD
ATOM     19  C13 <0> d           6.664   2.963   6.088  0.00  0.00     0.002 A 
ATOM     20  C14 <0> d           7.970   2.824   5.588  0.00  0.00     0.002 A 
ENDBRANCH   9  10
ENDBRANCH   8   9
ENDBRANCH   5   8
BRANCH   1  21
ATOM     21  C4  <0> d           2.362   0.054   0.066  0.00  0.00     0.033 A 
ATOM     22  C3  <0> d           2.339   1.436   0.205  0.00  0.00     0.029 A 
ATOM     23  C2  <0> d           1.133   2.108   0.207  0.00  0.00     0.002 A 
ATOM     24  C1  <0> d          -0.052   1.407   0.071  0.00  0.00     0.000 A 
ATOM     25  C6  <0> d          -0.033   0.032  -0.068  0.00  0.00     0.002 A 
ATOM     26  C5  <0> d           1.170  -0.647  -0.071  0.00  0.00     0.029 A 
ENDBRANCH   1  21
BRANCH   2  27
ATOM     27  C17 <0> d           3.144  -2.711   1.264  0.00  0.00    -0.003 A 
ATOM     28  C21 <0> d           3.285  -4.062   1.513  0.00  0.00     0.126 A 
ATOM     29  N6  <0> d           2.744  -4.612   2.583  0.00  0.00    -0.272 NA
ATOM     30  C20 <0> d           2.042  -3.903   3.446  0.00  0.00     0.116 A 
ATOM     31  C19 <0> d           1.854  -2.547   3.260  0.00  0.00     0.020 A 
ATOM     32  C18 <0> d           2.413  -1.933   2.149  0.00  0.00     0.013 A 
ENDBRANCH   2  27
TORSDOF 5
