REMARK  6 active torsions:
REMARK  status: ('A' for Active; 'I' for Inactive)
REMARK    1  A    between atoms: C3_3  and  C10_12 
REMARK    2  A    between atoms: C7_7  and  O1_8 
REMARK    3  A    between atoms: O1_8  and  C8_9 
REMARK       I    between atoms: C10_12  and  N1_14 
REMARK    4  A    between atoms: C12_16  and  C19_24 
REMARK       I    between atoms: C19_24  and  N3_26 
REMARK    5  A    between atoms: N3_26  and  C20_27 
REMARK    6  A    between atoms: C20_27  and  C21_28 
ROOT
ATOM      1  C10 <0> d          -0.172  -0.062  -2.710  0.00  0.00     0.254 C 
ATOM      2  O3  <0> d          -0.098   1.144  -2.845  0.00  0.00    -0.267 OA
ATOM      3  N1  <0> d          -0.398  -0.847  -3.782  0.00  0.00    -0.346 N 
ATOM      4  C11 <0> d          -0.643  -2.308  -3.801  0.00  0.00     0.141 C 
ATOM      5  C12 <0> d          -1.736  -2.507  -4.875  0.00  0.00     0.106 C 
ATOM      6  C13 <0> d          -1.609  -1.281  -5.796  0.00  0.00    -0.007 C 
ATOM      7  C14 <0> d          -0.465  -0.443  -5.207  0.00  0.00     0.136 C 
ATOM      8  C15 <0> d          -2.904  -0.475  -5.786  0.00  0.00     0.039 C 
ATOM      9  C16 <0> d          -2.773   0.706  -6.752  0.00  0.00     0.233 C 
ATOM     10  N2  <0> d          -2.495   0.206  -8.103  0.00  0.00    -0.075 N 
ATOM     11  C17 <0> d          -1.202  -0.488  -8.124  0.00  0.00     0.233 C 
ATOM     12  C18 <0> d          -1.266  -1.720  -7.216  0.00  0.00     0.039 C 
ATOM     13  H20 <0> d          -3.223  -0.435  -8.380  0.00  0.00     0.277 HD
ATOM     14  H37 <0> d          -2.469   0.981  -8.748  0.00  0.00     0.277 HD
ENDROOT
BRANCH   1  15
ATOM     15  C3  <0> d          -0.012  -0.667  -1.371  0.00  0.00     0.040 A 
ATOM     16  C2  <0> d          -0.500  -0.008  -0.242  0.00  0.00    -0.012 A 
ATOM     17  C1  <0> d          -1.192   1.324  -0.384  0.00  0.00     0.052 C 
ATOM     18  C7  <0> d          -0.343  -0.578   1.010  0.00  0.00     0.086 A 
ATOM     19  C6  <0> d           0.290  -1.808   1.138  0.00  0.00     0.038 A 
ATOM     20  C5  <0> d           0.774  -2.462   0.021  0.00  0.00     0.004 A 
ATOM     21  C4  <0> d           0.627  -1.899  -1.231  0.00  0.00     0.018 A 
BRANCH  18  22
ATOM     22  O1  <0> d          -0.813   0.063   2.112  0.00  0.00    -0.279 OA
BRANCH  22  23
ATOM     23  C8  <0> d          -0.108   1.104   2.584  0.00  0.00     0.260 C 
ATOM     24  O2  <0> d           0.956   1.387   2.088  0.00  0.00    -0.265 OA
ATOM     25  C9  <0> d          -0.646   1.919   3.732  0.00  0.00     0.126 C 
ENDBRANCH  22  23
ENDBRANCH  18  22
ENDBRANCH   1  15
BRANCH   5  26
ATOM     26  C19 <0> d          -1.487  -3.775  -5.650  0.00  0.00     0.224 C 
ATOM     27  O4  <0> d          -0.364  -4.225  -5.732  0.00  0.00    -0.273 OA
ATOM     28  N3  <0> d          -2.513  -4.410  -6.251  0.00  0.00    -0.358 N 
ATOM     29  H25 <0> d          -3.411  -4.051  -6.185  0.00  0.00     0.162 HD
BRANCH  28  30
ATOM     30  C20 <0> d          -2.271  -5.644  -7.003  0.00  0.00     0.156 C 
BRANCH  30  31
ATOM     31  C21 <0> d          -3.592  -6.157  -7.580  0.00  0.00     0.167 C 
ATOM     32  O5  <0> d          -4.088  -5.221  -8.541  0.00  0.00    -0.381 OA
ATOM     33  C24 <0> d          -5.309  -5.629  -9.164  0.00  0.00     0.198 C 
ATOM     34  C23 <0> d          -5.096  -6.975  -9.862  0.00  0.00     0.298 C 
ATOM     35  N4  <0> d          -4.616  -7.959  -8.881  0.00  0.00     0.088 N 
ATOM     36  C22 <0> d          -3.361  -7.508  -8.262  0.00  0.00     0.305 C 
ATOM     37  C25 <0> d          -4.452  -9.281  -9.499  0.00  0.00     0.310 C 
ENDBRANCH  30  31
ENDBRANCH  28  30
ENDBRANCH   5  26
TORSDOF 6
