REMARK  2 active torsions:
REMARK  status: ('A' for Active; 'I' for Inactive)
REMARK    1  A    between atoms: C6_6  and  C9_13 
REMARK    2  A    between atoms: C12_16  and  O1_19 
ROOT
ATOM      1  C1  <0> d          -0.019   1.526   0.010  0.00  0.00     0.011 C 
ATOM      2  C2  <0> d           0.002  -0.004   0.002  0.00  0.00    -0.006 C 
ATOM      3  C3  <0> d          -1.431  -0.539   0.026  0.00  0.00     0.063 C 
ATOM      4  C4  <0> d          -1.408  -2.049   0.058  0.00  0.00     0.039 C 
ATOM      5  C5  <0> d          -0.404  -2.714   0.668  0.00  0.00     0.041 C 
ATOM      6  C6  <0> d          -0.361  -4.225   0.732  0.00  0.00     0.200 C 
ATOM      7  N1  <0> d          -1.318  -4.790  -0.212  0.00  0.00    -0.084 N 
ATOM      8  C7  <0> d          -2.295  -4.064  -0.809  0.00  0.00     0.725 A 
ATOM      9  N2  <0> d          -2.975  -4.863  -1.584  0.00  0.00    -0.054 NA
ATOM     10  C8  <0> d          -2.465  -6.097  -1.512  0.00  0.00     0.275 A 
ATOM     11  N3  <0> d          -1.449  -6.095  -0.685  0.00  0.00    -0.149 NA
ATOM     12  N4  <0> d          -2.442  -2.709  -0.563  0.00  0.00    -0.191 N 
ATOM     13  C16 <0> d           0.659  -2.019   1.273  0.00  0.00     0.160 C 
ATOM     14  O2  <0> d           1.540  -2.646   1.828  0.00  0.00    -0.293 OA
ATOM     15  C17 <0> d           0.730  -0.517   1.249  0.00  0.00     0.088 C 
ATOM     16  H9  <0> d          -3.250  -2.239  -0.820  0.00  0.00     0.184 HD
ENDROOT
BRANCH   6  17
ATOM     17  C9  <0> d          -0.711  -4.678   2.126  0.00  0.00    -0.028 A 
ATOM     18  C14 <0> d           0.198  -5.417   2.860  0.00  0.00     0.012 A 
ATOM     19  C13 <0> d          -0.118  -5.828   4.141  0.00  0.00     0.037 A 
ATOM     20  C12 <0> d          -1.353  -5.508   4.686  0.00  0.00     0.068 A 
ATOM     21  C11 <0> d          -2.266  -4.771   3.945  0.00  0.00     0.037 A 
ATOM     22  C10 <0> d          -1.943  -4.358   2.667  0.00  0.00     0.012 A 
BRANCH  20  23
ATOM     23  O1  <0> d          -1.669  -5.915   5.943  0.00  0.00    -0.356 OA
ATOM     24  C15 <0> d          -0.681  -6.670   6.647  0.00  0.00     0.210 C 
ENDBRANCH  20  23
ENDBRANCH   6  17
TORSDOF 2
