REMARK  7 active torsions:
REMARK  status: ('A' for Active; 'I' for Inactive)
REMARK    1  A    between atoms: N1_2  and  S1_4 
REMARK    2  A    between atoms: S1_4  and  N2_7 
REMARK    3  A    between atoms: N2_7  and  C3_8 
REMARK    4  A    between atoms: C3_8  and  C4_9 
REMARK    5  A    between atoms: C9_14  and  C10_15 
REMARK    6  A    between atoms: C11_16  and  C12_17 
REMARK    7  A    between atoms: C12_17  and  O3_18 
ROOT
ATOM      1  C4  <0> d           3.701  -2.225  -1.841  0.00  0.00    -0.021 A 
ATOM      2  C5  <0> d           3.812  -3.450  -2.466  0.00  0.00     0.010 A 
ATOM      3  C6  <0> d           4.952  -3.763  -3.184  0.00  0.00     0.001 A 
ATOM      4  C7  <0> d           5.988  -2.851  -3.281  0.00  0.00     0.002 A 
ATOM      5  C8  <0> d           5.889  -1.622  -2.661  0.00  0.00     0.021 A 
ATOM      6  C9  <0> d           4.739  -1.298  -1.939  0.00  0.00     0.025 A 
ENDROOT
BRANCH   1   7
ATOM      7  C3  <0> d           2.458  -1.886  -1.059  0.00  0.00     0.173 C 
BRANCH   7   8
ATOM      8  N2  <0> d           1.581  -1.045  -1.877  0.00  0.00    -0.298 N 
ATOM      9  H7  <0> d           1.926  -0.618  -2.676  0.00  0.00     0.174 HD
BRANCH   8  10
ATOM     10  S1  <0> d          -0.000  -0.824  -1.437  0.00  0.00     0.316 S 
ATOM     11  O1  <0> d          -0.531  -2.115  -1.167  0.00  0.00    -0.183 OA
ATOM     12  O2  <0> d          -0.572   0.049  -2.401  0.00  0.00    -0.183 OA
BRANCH  10  13
ATOM     13  N1  <0> d           0.002  -0.004   0.002  0.00  0.00    -0.303 N 
ATOM     14  C1  <0> d          -0.018   1.461   0.010  0.00  0.00     0.163 C 
ATOM     15  C2  <0> d           0.024  -0.743   1.267  0.00  0.00     0.163 C 
ENDBRANCH  10  13
ENDBRANCH   8  10
ENDBRANCH   7   8
ENDBRANCH   1   7
BRANCH   6  16
ATOM     16  C10 <0> d           4.628  -0.023  -1.298  0.00  0.00    -0.064 C 
ATOM     17  C11 <0> d           4.537   1.023  -0.773  0.00  0.00    -0.075 C 
BRANCH  17  18
ATOM     18  C12 <0> d           4.423   2.334  -0.114  0.00  0.00     0.258 C 
BRANCH  18  19
ATOM     19  O3  <0> d           5.606   3.096  -0.361  0.00  0.00    -0.389 OA
ATOM     20  H16 <0> d           5.601   3.974   0.045  0.00  0.00     0.210 HD
ENDBRANCH  18  19
ENDBRANCH  17  18
ENDBRANCH   6  16
TORSDOF 7
