REMARK  4 active torsions:
REMARK  status: ('A' for Active; 'I' for Inactive)
REMARK    1  A    between atoms: C6_6  and  C7_7 
REMARK    2  A    between atoms: C9_10  and  N2_12 
REMARK       I    between atoms: N2_12  and  C10_13 
REMARK    3  A    between atoms: C10_13  and  C11_15 
REMARK    4  A    between atoms: N3_19  and  C15_21 
ROOT
ATOM      1  C7  <0> d          -4.277   4.662   0.066  0.00  0.00     0.076 A 
ATOM      2  C8  <0> d          -5.589   4.280   0.075  0.00  0.00     0.085 A 
ATOM      3  S1  <0> d          -6.399   5.874   0.091  0.00  0.00    -0.061 SA
ATOM      4  C9  <0> d          -4.919   6.876   0.083  0.00  0.00     0.173 A 
ATOM      5  N1  <0> d          -3.976   5.952   0.075  0.00  0.00    -0.223 NA
ENDROOT
BRANCH   4   6
ATOM      6  N2  <0> d          -4.794   8.260   0.089  0.00  0.00    -0.305 N 
ATOM      7  C10 <0> d          -5.896   9.036   0.104  0.00  0.00     0.229 C 
ATOM      8  O1  <0> d          -6.996   8.526   0.111  0.00  0.00    -0.273 OA
ATOM      9  H6  <0> d          -3.913   8.667   0.083  0.00  0.00     0.171 HD
BRANCH   7  10
ATOM     10  C11 <0> d          -5.760  10.537   0.110  0.00  0.00     0.105 C 
ATOM     11  C14 <0> d          -7.137  11.215   0.282  0.00  0.00     0.141 C 
ATOM     12  N3  <0> d          -7.293  11.426   1.726  0.00  0.00    -0.347 N 
ATOM     13  C13 <0> d          -6.113  11.327   2.364  0.00  0.00     0.221 C 
ATOM     14  C12 <0> d          -5.011  11.019   1.374  0.00  0.00     0.118 C 
ATOM     15  O2  <0> d          -5.956  11.465   3.558  0.00  0.00    -0.273 OA
BRANCH  12  16
ATOM     16  C15 <0> d          -8.569  11.708   2.388  0.00  0.00     0.087 C 
ATOM     17  C19 <0> d          -8.879  10.613   3.423  0.00  0.00     0.025 C 
ATOM     18  C18 <0> d          -8.966  11.314   4.794  0.00  0.00     0.002 C 
ATOM     19  C17 <0> d          -9.311  12.784   4.447  0.00  0.00     0.002 C 
ATOM     20  C16 <0> d          -8.479  13.037   3.166  0.00  0.00     0.025 C 
ENDBRANCH  12  16
ENDBRANCH   7  10
ENDBRANCH   4   6
BRANCH   1  21
ATOM     21  C6  <0> d          -3.200   3.642   0.051  0.00  0.00    -0.006 A 
ATOM     22  C1  <0> d          -3.519   2.285   0.047  0.00  0.00     0.016 A 
ATOM     23  C2  <0> d          -2.519   1.338   0.033  0.00  0.00     0.031 A 
ATOM     24  C3  <0> d          -1.181   1.728   0.017  0.00  0.00     0.041 A 
ATOM     25  N4  <0> d          -0.011   0.966   0.007  0.00  0.00    -0.326 N 
ATOM     26  C4  <0> d          -0.870   3.083   0.027  0.00  0.00    -0.022 A 
ATOM     27  C21 <0> d           1.094   1.730   0.001  0.00  0.00     0.226 A 
ATOM     28  H22 <0> d           0.002  -0.004   0.002  0.00  0.00     0.169 HD
ATOM     29  C20 <0> d           0.639   3.173   0.013  0.00  0.00     0.144 A 
ATOM     30  O3  <0> d           2.241   1.336  -0.012  0.00  0.00    -0.273 OA
ATOM     31  C5  <0> d          -1.861   4.035   0.041  0.00  0.00     0.023 A 
ENDBRANCH   1  21
TORSDOF 4
