REMARK  6 active torsions:
REMARK  status: ('A' for Active; 'I' for Inactive)
REMARK    1  A    between atoms: C7_11  and  C8_13 
REMARK    2  A    between atoms: C8_13  and  S2_14 
REMARK    3  A    between atoms: S2_14  and  C9_15 
REMARK    4  A    between atoms: C9_15  and  C11_17 
REMARK       I    between atoms: C11_17  and  N3_19 
REMARK    5  A    between atoms: N3_19  and  C12_20 
REMARK    6  A    between atoms: C12_20  and  C13_21 
ROOT
ATOM      1  S2  <0> d           2.628   0.905   0.567  0.00  0.00    -0.147 SA
ENDROOT
BRANCH   1   2
ATOM      2  C8  <0> d           4.066   2.009   0.645  0.00  0.00     0.153 C 
BRANCH   2   3
ATOM      3  C7  <0> d           5.271   1.231   1.108  0.00  0.00     0.117 A 
ATOM      4  N1  <0> d           6.465   1.865   1.233  0.00  0.00    -0.310 N 
ATOM      5  C6  <0> d           7.565   1.210   1.650  0.00  0.00     0.260 A 
ATOM      6  H1  <0> d           6.526   2.810   1.022  0.00  0.00     0.170 HD
ATOM      7  C5  <0> d           7.466  -0.187   1.954  0.00  0.00     0.075 A 
ATOM      8  O1  <0> d           8.628   1.794   1.762  0.00  0.00    -0.267 OA
ATOM      9  C2  <0> d           8.494  -1.105   2.409  0.00  0.00    -0.031 A 
ATOM     10  C4  <0> d           6.191  -0.757   1.789  0.00  0.00     0.116 A 
ATOM     11  C1  <0> d           9.905  -0.623   2.625  0.00  0.00     0.050 C 
ATOM     12  C3  <0> d           8.173  -2.389   2.634  0.00  0.00    -0.012 A 
ATOM     13  S1  <0> d           6.435  -2.455   2.243  0.00  0.00    -0.074 SA
ATOM     14  C19 <0> d           9.068  -3.507   3.104  0.00  0.00     0.057 C 
ATOM     15  N2  <0> d           5.149  -0.041   1.377  0.00  0.00    -0.226 NA
ENDBRANCH   2   3
ENDBRANCH   1   2
BRANCH   1  16
ATOM     16  C9  <0> d           1.280   1.980   0.001  0.00  0.00     0.135 C 
ATOM     17  C10 <0> d           1.577   2.464  -1.420  0.00  0.00     0.031 C 
BRANCH  16  18
ATOM     18  C11 <0> d          -0.014   1.209   0.009  0.00  0.00     0.231 C 
ATOM     19  O2  <0> d           0.002  -0.004   0.002  0.00  0.00    -0.272 OA
ATOM     20  N3  <0> d          -1.191   1.867   0.018  0.00  0.00    -0.356 N 
ATOM     21  H11 <0> d          -1.204   2.837   0.023  0.00  0.00     0.162 HD
BRANCH  20  22
ATOM     22  C12 <0> d          -2.449   1.117   0.020  0.00  0.00     0.161 C 
BRANCH  22  23
ATOM     23  C13 <0> d          -3.608   2.080   0.030  0.00  0.00    -0.040 A 
ATOM     24  C18 <0> d          -4.145   2.529  -1.162  0.00  0.00     0.010 A 
ATOM     25  C17 <0> d          -5.207   3.413  -1.153  0.00  0.00     0.024 A 
ATOM     26  C16 <0> d          -5.734   3.849   0.050  0.00  0.00     0.034 A 
ATOM     27  C15 <0> d          -5.196   3.400   1.243  0.00  0.00     0.024 A 
ATOM     28 Cl1  <0> d          -7.068   4.959   0.062  0.00  0.00    -0.084 Cl
ATOM     29  C14 <0> d          -4.137   2.511   1.233  0.00  0.00     0.010 A 
ENDBRANCH  22  23
ENDBRANCH  20  22
ENDBRANCH  16  18
ENDBRANCH   1  16
TORSDOF 6
