REMARK  4 active torsions:
REMARK  status: ('A' for Active; 'I' for Inactive)
REMARK    1  A    between atoms: C8_8  and  S1_12 
REMARK    2  A    between atoms: S1_12  and  N2_15 
REMARK    3  A    between atoms: N2_15  and  C11_16 
REMARK    4  A    between atoms: C15_20  and  C17_22 
ROOT
ATOM      1  S1  <0> d           0.077  -4.986   1.701  0.00  0.00     0.286 S 
ATOM      2  O1  <0> d          -0.953  -4.406   2.489  0.00  0.00    -0.198 OA
ATOM      3  O2  <0> d           0.122  -6.376   1.409  0.00  0.00    -0.198 OA
ENDROOT
BRANCH   1   4
ATOM      4  C8  <0> d           0.060  -4.146   0.152  0.00  0.00     0.111 A 
ATOM      5  C7  <0> d           0.065  -4.855  -1.009  0.00  0.00     0.028 A 
ATOM      6  C6  <0> d           0.051  -4.211  -2.245  0.00  0.00     0.003 A 
ATOM      7  C5  <0> d           0.031  -2.852  -2.324  0.00  0.00     0.014 A 
ATOM      8  C4  <0> d           0.026  -2.088  -1.146  0.00  0.00    -0.005 A 
ATOM      9  C3  <0> d           0.006  -0.681  -1.184  0.00  0.00     0.022 A 
ATOM     10  C9  <0> d           0.041  -2.741   0.112  0.00  0.00     0.090 A 
ATOM     11  C2  <0> d           0.002  -0.004   0.002  0.00  0.00    -0.044 A 
ATOM     12  C1  <0> d          -0.018   1.503   0.010  0.00  0.00     0.049 C 
ATOM     13  C10 <0> d           0.023  -0.708   1.204  0.00  0.00     0.124 A 
ATOM     14  N1  <0> d           0.037  -2.018   1.236  0.00  0.00    -0.258 NA
ENDBRANCH   1   4
BRANCH   1  15
ATOM     15  N2  <0> d           1.509  -4.612   2.445  0.00  0.00    -0.160 NA
BRANCH  15  16
ATOM     16  C11 <0> d           1.801  -5.143   3.703  0.00  0.00     0.070 A 
ATOM     17  C16 <0> d           3.000  -4.830   4.326  0.00  0.00     0.047 A 
ATOM     18  C15 <0> d           3.285  -5.359   5.584  0.00  0.00     0.013 A 
ATOM     19  C14 <0> d           2.367  -6.207   6.204  0.00  0.00     0.015 A 
ATOM     20  C13 <0> d           1.179  -6.517   5.574  0.00  0.00     0.003 A 
ATOM     21  C12 <0> d           0.893  -5.989   4.329  0.00  0.00     0.032 A 
BRANCH  18  22
ATOM     22  C17 <0> d           4.560  -5.025   6.258  0.00  0.00     0.156 A 
ATOM     23  N3  <0> d           5.506  -4.241   5.784  0.00  0.00    -0.212 NA
ATOM     24  C18 <0> d           6.508  -4.167   6.656  0.00  0.00     0.144 A 
ATOM     25  C19 <0> d           7.771  -3.366   6.469  0.00  0.00     0.095 C 
ATOM     26  N4  <0> d           6.224  -4.900   7.701  0.00  0.00    -0.158 NA
ATOM     27  N5  <0> d           4.959  -5.466   7.473  0.00  0.00    -0.259 N 
ATOM     28  H1  <0> d           4.470  -6.057   8.067  0.00  0.00     0.191 HD
ENDBRANCH  18  22
ENDBRANCH  15  16
ENDBRANCH   1  15
TORSDOF 4
