REMARK  8 active torsions:
REMARK  status: ('A' for Active; 'I' for Inactive)
REMARK    1  A    between atoms: N2_5  and  C6_8 
REMARK    2  A    between atoms: C6_8  and  C7_9 
REMARK    3  A    between atoms: C6_8  and  C13_20 
REMARK    4  A    between atoms: C7_9  and  N3_10 
REMARK       I    between atoms: N3_10  and  C8_11 
REMARK    5  A    between atoms: C8_11  and  C9_13 
REMARK       I    between atoms: C9_13  and  N4_15 
REMARK    6  A    between atoms: N4_15  and  C10_16 
REMARK    7  A    between atoms: C10_16  and  C11_17 
REMARK    8  A    between atoms: C11_17  and  O3_18 
ROOT
ATOM      1  C6  <0> d           3.580  -1.865   4.163  0.00  0.00     0.273 C 
ENDROOT
BRANCH   1   2
ATOM      2  N2  <0> d           3.238  -3.148   4.792  0.00  0.00     0.102 N 
ATOM      3  C3  <0> d           3.851  -4.270   4.068  0.00  0.00     0.301 C 
ATOM      4  C2  <0> d           3.408  -5.589   4.705  0.00  0.00     0.264 C 
ATOM      5  N1  <0> d           3.801  -5.602   6.121  0.00  0.00    -0.072 N 
ATOM      6  C1  <0> d           3.459  -6.885   6.751  0.00  0.00     0.269 C 
ATOM      7  C5  <0> d           3.187  -4.480   6.846  0.00  0.00     0.264 C 
ATOM      8  H36 <0> d           4.893  -5.482   6.172  0.00  0.00     0.279 HD
ATOM      9  C4  <0> d           3.631  -3.161   6.208  0.00  0.00     0.301 C 
ENDBRANCH   1   2
BRANCH   1  10
ATOM     10  C7  <0> d           4.973  -1.960   3.537  0.00  0.00     0.164 C 
BRANCH  10  11
ATOM     11  N3  <0> d           5.974  -2.117   4.595  0.00  0.00    -0.351 N 
ATOM     12  C8  <0> d           7.259  -2.365   4.275  0.00  0.00     0.309 C 
ATOM     13  O1  <0> d           7.587  -2.458   3.110  0.00  0.00    -0.262 OA
ATOM     14  H15 <0> d           5.676  -2.033   5.651  0.00  0.00     0.162 HD
BRANCH  12  15
ATOM     15  C9  <0> d           8.280  -2.526   5.354  0.00  0.00     0.309 C 
ATOM     16  O2  <0> d           7.952  -2.432   6.519  0.00  0.00    -0.262 OA
ATOM     17  N4  <0> d           9.566  -2.773   5.034  0.00  0.00    -0.351 N 
ATOM     18  H16 <0> d           9.863  -2.858   3.978  0.00  0.00     0.162 HD
BRANCH  17  19
ATOM     19  C10 <0> d          10.567  -2.931   6.092  0.00  0.00     0.149 C 
BRANCH  19  20
ATOM     20  C11 <0> d          11.935  -3.203   5.463  0.00  0.00     0.186 C 
BRANCH  20  21
ATOM     21  O3  <0> d          12.352  -2.058   4.716  0.00  0.00    -0.394 OA
ATOM     22  C12 <0> d          13.625  -2.208   4.084  0.00  0.00     0.201 C 
ENDBRANCH  20  21
ENDBRANCH  19  20
ENDBRANCH  17  19
ENDBRANCH  12  15
ENDBRANCH  10  11
ENDBRANCH   1  10
BRANCH   1  23
ATOM     23  C13 <0> d           2.568  -1.546   3.092  0.00  0.00    -0.023 A 
ATOM     24  C18 <0> d           2.318  -0.233   2.748  0.00  0.00     0.018 A 
ATOM     25  C17 <0> d           1.389   0.071   1.765  0.00  0.00    -0.036 A 
ATOM     26  C16 <0> d           0.711  -0.948   1.118  0.00  0.00     0.016 A 
ATOM     27  C19 <0> d           1.146   1.524   1.441  0.00  0.00     0.041 C 
ATOM     28  C15 <0> d           0.967  -2.274   1.473  0.00  0.00     0.025 A 
ATOM     29  N5  <0> d          -0.228  -0.716   0.115  0.00  0.00    -0.287 NA
ATOM     30  C14 <0> d           1.890  -2.568   2.453  0.00  0.00     0.011 A 
ATOM     31  C21 <0> d          -0.767   0.645   0.134  0.00  0.00     0.095 C 
ATOM     32  C22 <0> d          -1.308  -1.710   0.165  0.00  0.00     0.116 C 
ATOM     33  C20 <0> d           0.403   1.637   0.108  0.00  0.00     0.019 C 
ENDBRANCH   1  23
TORSDOF 8
