REMARK  3 active torsions:
REMARK  status: ('A' for Active; 'I' for Inactive)
REMARK    1  A    between atoms: C2_2  and  N1_4 
REMARK    2  A    between atoms: N1_4  and  C4_5 
REMARK    3  A    between atoms: C13_17  and  O3_18 
ROOT
ATOM      1  C4  <0> d          -1.996  -0.021  -1.086  0.00  0.00     0.220 C 
ATOM      2  C5  <0> d          -3.439  -0.487  -1.144  0.00  0.00     0.039 C 
ATOM      3  C6  <0> d          -4.218  -0.319   0.126  0.00  0.00     0.018 C 
ATOM      4  C7  <0> d          -4.595   1.061   0.579  0.00  0.00     0.146 C 
ATOM      5  S1  <0> d          -3.146   2.022   1.100  0.00  0.00     0.178 S 
ATOM      6  O1  <0> d          -3.578   3.267   1.656  0.00  0.00    -0.223 OA
ATOM      7  O2  <0> d          -2.231   1.229   1.837  0.00  0.00    -0.223 OA
ATOM      8  C8  <0> d          -2.338   2.441  -0.421  0.00  0.00     0.100 A 
ATOM      9  C9  <0> d          -1.888   1.473  -1.270  0.00  0.00    -0.003 A 
ATOM     10  C10 <0> d          -1.255   1.858  -2.459  0.00  0.00     0.011 A 
ATOM     11  C11 <0> d          -1.084   3.187  -2.775  0.00  0.00     0.003 A 
ATOM     12  C12 <0> d          -1.540   4.162  -1.912  0.00  0.00     0.038 A 
ATOM     13  C13 <0> d          -2.167   3.788  -0.730  0.00  0.00     0.090 A 
ENDROOT
BRANCH   1  14
ATOM     14  N1  <0> d          -1.282  -0.506   0.088  0.00  0.00    -0.063 N 
ATOM     15  H9  <0> d          -1.740  -0.171   0.922  0.00  0.00     0.278 HD
ATOM     16  H22 <0> d          -0.332  -0.168   0.067  0.00  0.00     0.278 HD
BRANCH  14  17
ATOM     17  C2  <0> d          -1.279  -1.975   0.087  0.00  0.00     0.178 C 
ATOM     18  C1  <0> d          -0.456  -2.483  -1.098  0.00  0.00     0.039 C 
ATOM     19  C3  <0> d          -0.664  -2.485   1.391  0.00  0.00     0.039 C 
ENDBRANCH  14  17
ENDBRANCH   1  14
BRANCH  13  20
ATOM     20  O3  <0> d          -2.600   4.761   0.116  0.00  0.00    -0.354 OA
ATOM     21  C14 <0> d          -2.380   6.115  -0.285  0.00  0.00     0.210 C 
ENDBRANCH  13  20
TORSDOF 3
