REMARK  5 active torsions:
REMARK  status: ('A' for Active; 'I' for Inactive)
REMARK    1  A    between atoms: C3_3  and  C6_9 
REMARK    2  A    between atoms: C6_9  and  N4_29 
REMARK    3  A    between atoms: C12_15  and  C13_17 
REMARK    4  A    between atoms: C13_17  and  N3_18 
REMARK       I    between atoms: N3_18  and  C14_19 
REMARK    5  A    between atoms: C14_19  and  C15_21 
ROOT
ATOM      1  C7  <0> d           0.054  -6.312  -3.071  0.00  0.00     0.238 C 
ATOM      2  C8  <0> d          -0.195  -6.957  -1.705  0.00  0.00     0.066 C 
ATOM      3  C9  <0> d           1.081  -6.873  -0.868  0.00  0.00     0.064 C 
ATOM      4  C10 <0> d           0.861  -7.569   0.486  0.00  0.00     0.041 C 
ATOM      5  C11 <0> d           1.041  -6.436   1.527  0.00  0.00     0.036 C 
ATOM      6  C12 <0> d           0.802  -5.167   0.669  0.00  0.00     0.140 C 
ATOM      7  O1  <0> d           1.402  -5.500  -0.602  0.00  0.00    -0.373 OA
ATOM      8  C19 <0> d           2.237  -7.543  -1.611  0.00  0.00     0.066 C 
ATOM      9  C20 <0> d           2.409  -6.880  -2.980  0.00  0.00     0.238 C 
ATOM     10  N4  <0> d           1.155  -7.032  -3.747  0.00  0.00    -0.067 N 
ATOM     11  H32 <0> d           0.916  -8.029  -3.801  0.00  0.00     0.280 HD
ENDROOT
BRANCH   6  12
ATOM     12  C13 <0> d           1.499  -3.957   1.294  0.00  0.00     0.154 C 
BRANCH  12  13
ATOM     13  N3  <0> d           1.246  -2.770   0.472  0.00  0.00    -0.356 N 
ATOM     14  C14 <0> d           1.766  -1.579   0.831  0.00  0.00     0.246 C 
ATOM     15  O2  <0> d           2.442  -1.490   1.833  0.00  0.00    -0.271 OA
ATOM     16  H21 <0> d           0.705  -2.842  -0.330  0.00  0.00     0.162 HD
BRANCH  14  17
ATOM     17  C15 <0> d           1.506  -0.359  -0.014  0.00  0.00     0.213 C 
ATOM     18  O3  <0> d           2.163   0.795   0.553  0.00  0.00    -0.376 OA
ATOM     19  C18 <0> d           1.474   1.937  -0.002  0.00  0.00     0.168 C 
ATOM     20  C17 <0> d          -0.019   1.541   0.011  0.00  0.00     0.029 C 
ATOM     21  C16 <0> d           0.002  -0.004   0.002  0.00  0.00     0.043 C 
ENDBRANCH  14  17
ENDBRANCH  12  13
ENDBRANCH   6  12
BRANCH  10  22
ATOM     22  C6  <0> d           1.334  -6.506  -5.116  0.00  0.00     0.278 C 
BRANCH  22  23
ATOM     23  C3  <0> d           2.617  -7.051  -5.689  0.00  0.00     0.034 A 
ATOM     24  C2  <0> d           2.759  -8.248  -6.398  0.00  0.00     0.062 A 
ATOM     25  C1  <0> d           1.654  -9.220  -6.721  0.00  0.00     0.073 C 
ATOM     26  N2  <0> d           4.017  -8.379  -6.732  0.00  0.00    -0.176 NA
ATOM     27  N1  <0> d           4.718  -7.268  -6.247  0.00  0.00    -0.262 N 
ATOM     28  C4  <0> d           3.836  -6.464  -5.615  0.00  0.00     0.131 A 
ATOM     29  C5  <0> d           6.153  -7.018  -6.402  0.00  0.00     0.181 C 
ATOM     30 Cl1  <0> d           4.199  -4.953  -4.842  0.00  0.00    -0.062 Cl
ENDBRANCH  22  23
ENDBRANCH  10  22
TORSDOF 5
