REMARK  6 active torsions:
REMARK  status: ('A' for Active; 'I' for Inactive)
REMARK    1  A    between atoms: C7_7  and  N1_8 
REMARK       I    between atoms: N1_8  and  C8_9 
REMARK       I    between atoms: C8_9  and  N2_11 
REMARK    2  A    between atoms: N2_11  and  C9_12 
REMARK    3  A    between atoms: C9_12  and  C10_13 
REMARK    4  A    between atoms: C10_13  and  N3_14 
REMARK    5  A    between atoms: C14_19  and  C15_21 
REMARK    6  A    between atoms: C17_24  and  C18_26 
ROOT
ATOM      1  N3  <0> d          -0.437  -0.516   8.432  0.00  0.00    -0.233 N 
ATOM      2  C11 <0> d           0.696  -0.826   9.090  0.00  0.00     0.263 A 
ATOM      3  O2  <0> d           1.780  -0.493   8.637  0.00  0.00    -0.267 OA
ATOM      4  C12 <0> d           0.622  -1.538  10.308  0.00  0.00     0.078 A 
ATOM      5  C13 <0> d          -0.612  -1.886  10.770  0.00  0.00     0.040 A 
ATOM      6  C14 <0> d          -1.744  -1.513  10.005  0.00  0.00     0.096 A 
ATOM      7  N4  <0> d          -1.593  -0.845   8.883  0.00  0.00    -0.168 NA
ENDROOT
BRANCH   1   8
ATOM      8  C10 <0> d          -0.348   0.223   7.170  0.00  0.00     0.174 C 
BRANCH   8   9
ATOM      9  C9  <0> d          -0.245  -0.765   6.006  0.00  0.00     0.146 C 
BRANCH   9  10
ATOM     10  N2  <0> d          -0.156  -0.026   4.745  0.00  0.00    -0.341 N 
ATOM     11  C8  <0> d          -0.056  -0.694   3.578  0.00  0.00     0.320 C 
ATOM     12  N1  <0> d           0.025  -0.015   2.417  0.00  0.00    -0.308 N 
ATOM     13  O1  <0> d          -0.040  -1.910   3.573  0.00  0.00    -0.247 OA
ATOM     14  H8  <0> d           0.078   0.954   2.425  0.00  0.00     0.170 HD
ATOM     15  H9  <0> d          -0.169   0.944   4.748  0.00  0.00     0.164 HD
BRANCH  12  16
ATOM     16  C7  <0> d           0.034  -0.706   1.200  0.00  0.00     0.042 A 
ATOM     17  C2  <0> d          -0.585  -0.158   0.085  0.00  0.00    -0.035 A 
ATOM     18  C1  <0> d          -1.266   1.182   0.182  0.00  0.00     0.050 C 
ATOM     19  C3  <0> d          -0.570  -0.841  -1.116  0.00  0.00     0.009 A 
ATOM     20  C4  <0> d           0.055  -2.071  -1.206  0.00  0.00     0.001 A 
ATOM     21  C5  <0> d           0.667  -2.622  -0.095  0.00  0.00     0.002 A 
ATOM     22  C6  <0> d           0.655  -1.945   1.108  0.00  0.00     0.030 A 
ENDBRANCH  12  16
ENDBRANCH   9  10
ENDBRANCH   8   9
ENDBRANCH   1   8
BRANCH   6  23
ATOM     23  C15 <0> d          -3.099  -1.871  10.472  0.00  0.00     0.061 A 
ATOM     24  S1  <0> d          -3.605  -2.757  11.940  0.00  0.00    -0.065 SA
ATOM     25  C17 <0> d          -5.366  -2.692  11.640  0.00  0.00     0.108 A 
ATOM     26  N5  <0> d          -5.411  -2.033  10.489  0.00  0.00    -0.244 NA
ATOM     27  C16 <0> d          -4.321  -1.620   9.895  0.00  0.00     0.051 A 
ATOM     28  C24 <0> d          -4.404  -0.875   8.588  0.00  0.00     0.072 C 
BRANCH  25  29
ATOM     29  C18 <0> d          -6.475  -3.232  12.453  0.00  0.00    -0.000 A 
ATOM     30  C23 <0> d          -7.796  -3.076  12.029  0.00  0.00     0.014 A 
ATOM     31  C22 <0> d          -8.826  -3.589  12.790  0.00  0.00     0.001 A 
ATOM     32  C21 <0> d          -8.554  -4.245  13.977  0.00  0.00     0.000 A 
ATOM     33  C20 <0> d          -7.247  -4.398  14.406  0.00  0.00     0.001 A 
ATOM     34  C19 <0> d          -6.207  -3.896  13.652  0.00  0.00     0.014 A 
ENDBRANCH  25  29
ENDBRANCH   6  23
TORSDOF 6
