REMARK  3 active torsions:
REMARK  status: ('A' for Active; 'I' for Inactive)
REMARK    1  A    between atoms: C5_6  and  N2_8 
REMARK       I    between atoms: N2_8  and  C7_9 
REMARK    2  A    between atoms: C7_9  and  C8_11 
REMARK    3  A    between atoms: C11_14  and  N3_18 
ROOT
ATOM      1  C8  <0> d           0.276  -2.978   4.756  0.00  0.00     0.038 A 
ATOM      2  C9  <0> d           0.300  -4.375   4.712  0.00  0.00     0.061 A 
ATOM      3  C10 <0> d           0.419  -5.099   5.879  0.00  0.00     0.146 A 
ATOM      4  C11 <0> d           0.516  -4.439   7.102  0.00  0.00     0.105 A 
ATOM      5  C12 <0> d           0.492  -3.047   7.149  0.00  0.00     0.146 A 
ATOM      6  C13 <0> d           0.379  -2.318   5.984  0.00  0.00     0.061 A 
ATOM      7  F1  <0> d           0.586  -2.410   8.337  0.00  0.00    -0.204 F 
ATOM      8  F2  <0> d           0.442  -6.449   5.837  0.00  0.00    -0.204 F 
ENDROOT
BRANCH   1   9
ATOM      9  C7  <0> d           0.149  -2.201   3.509  0.00  0.00     0.257 C 
ATOM     10  N2  <0> d           0.051  -2.839   2.325  0.00  0.00    -0.307 N 
ATOM     11  H7  <0> d          -0.011  -3.806   2.299  0.00  0.00     0.170 HD
ATOM     12  O1  <0> d           0.134  -0.986   3.548  0.00  0.00    -0.267 OA
BRANCH  10  13
ATOM     13  C5  <0> d           0.038  -2.108   1.139  0.00  0.00     0.130 A 
ATOM     14  N1  <0> d           0.016  -0.785   1.185  0.00  0.00    -0.243 NA
ATOM     15  C4  <0> d           0.004  -0.055   0.086  0.00  0.00     0.119 A 
ATOM     16  C3  <0> d           0.013  -0.651  -1.160  0.00  0.00     0.026 A 
ATOM     17  C2  <0> d           0.036  -2.036  -1.251  0.00  0.00    -0.057 A 
ATOM     18  C1  <0> d           0.047  -2.720  -2.594  0.00  0.00     0.048 C 
ATOM     19  C6  <0> d           0.043  -2.774  -0.081  0.00  0.00     0.057 A 
ENDBRANCH  10  13
ENDBRANCH   1   9
BRANCH   4  20
ATOM     20  N3  <0> d           0.636  -5.173   8.280  0.00  0.00    -0.389 N 
ATOM     21  C14 <0> d           1.063  -4.510   9.515  0.00  0.00     0.146 C 
ATOM     22  H10 <0> d           0.436  -6.122   8.283  0.00  0.00     0.159 HD
ENDBRANCH   4  20
TORSDOF 3
