REMARK  2 active torsions:
REMARK  status: ('A' for Active; 'I' for Inactive)
REMARK    1  A    between atoms: C3_3  and  C4_7 
REMARK       I    between atoms: C4_7  and  N3_9 
REMARK    2  A    between atoms: N3_9  and  C5_10 
ROOT
ATOM      1  C5  <0> d          -0.012  -0.800  -4.885  0.00  0.00     0.174 A 
ATOM      2  N4  <0> d          -0.013  -1.546  -5.979  0.00  0.00    -0.227 NA
ATOM      3  C6  <0> d          -0.027  -1.022  -7.180  0.00  0.00     0.058 A 
ATOM      4  C7  <0> d          -0.044   0.379  -7.199  0.00  0.00     0.079 A 
ATOM      5  S2  <0> d          -0.038   0.778  -5.478  0.00  0.00    -0.046 SA
ATOM      6  C8  <0> d          -0.068   1.169  -8.343  0.00  0.00     0.168 C 
ATOM      7  O2  <0> d          -0.060   2.382  -8.275  0.00  0.00    -0.292 OA
ATOM      8  C9  <0> d          -0.106   0.451  -9.679  0.00  0.00     0.085 C 
ATOM      9  C10 <0> d           0.629  -0.885  -9.559  0.00  0.00     0.014 C 
ATOM     10  C11 <0> d          -0.023  -1.778  -8.500  0.00  0.00     0.061 C 
ENDROOT
BRANCH   1  11
ATOM     11  N3  <0> d           0.001  -1.217  -3.568  0.00  0.00    -0.301 N 
ATOM     12  C4  <0> d          -0.007  -0.307  -2.573  0.00  0.00     0.268 C 
ATOM     13  O1  <0> d          -0.025   0.880  -2.836  0.00  0.00    -0.267 OA
ATOM     14  H4  <0> d           0.015  -2.164  -3.359  0.00  0.00     0.171 HD
BRANCH  12  15
ATOM     15  C3  <0> d           0.007  -0.751  -1.171  0.00  0.00     0.119 A 
ATOM     16  C2  <0> d           0.002  -0.004   0.002  0.00  0.00     0.077 A 
ATOM     17  C1  <0> d          -0.018   1.503   0.010  0.00  0.00     0.074 C 
ATOM     18  N2  <0> d           0.023  -0.720   1.099  0.00  0.00    -0.146 NA
ATOM     19  N1  <0> d           0.035  -2.005   1.082  0.00  0.00    -0.110 NA
ATOM     20  S1  <0> d           0.033  -2.401  -0.490  0.00  0.00     0.042 SA
ENDBRANCH  12  15
ENDBRANCH   1  11
TORSDOF 2
