REMARK  4 active torsions:
REMARK  status: ('A' for Active; 'I' for Inactive)
REMARK    1  A    between atoms: C4_4  and  S1_7 
REMARK    2  A    between atoms: S1_7  and  N1_10 
REMARK    3  A    between atoms: N1_10  and  C7_11 
REMARK    4  A    between atoms: C8_12  and  N4_21 
ROOT
ATOM      1  C7  <0> d           0.169  -2.700  -0.214  0.00  0.00     0.185 A 
ATOM      2  C8  <0> d          -1.104  -2.033   0.058  0.00  0.00     0.183 A 
ATOM      3  N2  <0> d          -1.132  -0.726   0.245  0.00  0.00    -0.225 NA
ATOM      4  C9  <0> d           0.004  -0.019   0.185  0.00  0.00     0.088 A 
ATOM      5  C10 <0> d          -0.014   1.373   0.383  0.00  0.00     0.034 A 
ATOM      6  C11 <0> d           1.147   2.082   0.319  0.00  0.00     0.002 A 
ATOM      7  C12 <0> d           2.358   1.446   0.059  0.00  0.00     0.002 A 
ATOM      8  C13 <0> d           2.413   0.100  -0.137  0.00  0.00     0.034 A 
ATOM      9  C14 <0> d           1.236  -0.664  -0.078  0.00  0.00     0.088 A 
ATOM     10  N3  <0> d           1.278  -1.991  -0.271  0.00  0.00    -0.225 NA
ENDROOT
BRANCH   1  11
ATOM     11  N1  <0> d           0.208  -4.070  -0.412  0.00  0.00    -0.261 N 
ATOM     12  H7  <0> d          -0.618  -4.574  -0.484  0.00  0.00     0.180 HD
BRANCH  11  13
ATOM     13  S1  <0> d           1.665  -4.849  -0.525  0.00  0.00     0.264 S 
ATOM     14  O1  <0> d           1.375  -6.229  -0.696  0.00  0.00    -0.200 OA
ATOM     15  O2  <0> d           2.447  -4.113  -1.456  0.00  0.00    -0.200 OA
BRANCH  13  16
ATOM     16  C4  <0> d           2.462  -4.692   1.038  0.00  0.00     0.079 A 
ATOM     17  C3  <0> d           2.260  -5.647   2.016  0.00  0.00     0.025 A 
ATOM     18  C2  <0> d           2.886  -5.524   3.243  0.00  0.00     0.002 A 
ATOM     19  C1  <0> d           3.714  -4.446   3.491  0.00  0.00     0.000 A 
ATOM     20  C6  <0> d           3.917  -3.490   2.513  0.00  0.00     0.002 A 
ATOM     21  C5  <0> d           3.295  -3.616   1.284  0.00  0.00     0.025 A 
ENDBRANCH  13  16
ENDBRANCH  11  13
ENDBRANCH   1  11
BRANCH   2  22
ATOM     22  N4  <0> d          -2.266  -2.763   0.119  0.00  0.00    -0.287 N 
ATOM     23  C17 <0> d          -3.429  -2.453  -0.525  0.00  0.00     0.068 A 
ATOM     24  C16 <0> d          -4.356  -3.455  -0.195  0.00  0.00     0.060 A 
ATOM     25  C18 <0> d          -3.809  -1.419  -1.381  0.00  0.00     0.032 A 
ATOM     26  N5  <0> d          -3.695  -4.326   0.650  0.00  0.00    -0.350 N 
ATOM     27  C21 <0> d          -5.642  -3.405  -0.714  0.00  0.00     0.032 A 
ATOM     28  C15 <0> d          -2.434  -3.865   0.809  0.00  0.00     0.191 A 
ATOM     29  H1  <0> d          -4.068  -5.124   1.056  0.00  0.00     0.166 HD
ATOM     30  C20 <0> d          -6.003  -2.374  -1.555  0.00  0.00     0.002 A 
ATOM     31  C19 <0> d          -5.089  -1.385  -1.887  0.00  0.00     0.002 A 
ENDBRANCH   2  22
TORSDOF 4
