REMARK  5 active torsions:
REMARK  status: ('A' for Active; 'I' for Inactive)
REMARK    1  A    between atoms: C2_2  and  C3_3 
REMARK    2  A    between atoms: C2_2  and  N2_15 
REMARK    3  A    between atoms: C6_6  and  S1_9 
REMARK    4  A    between atoms: S1_9  and  N1_12 
REMARK    5  A    between atoms: C11_16  and  N4_21 
ROOT
ATOM      1  C3  <0> d           0.731  -0.503   1.223  0.00  0.00    -0.034 A 
ATOM      2  C4  <0> d           2.050  -0.148   1.434  0.00  0.00     0.011 A 
ATOM      3  C5  <0> d           2.719  -0.606   2.554  0.00  0.00     0.026 A 
ATOM      4  C6  <0> d           2.068  -1.419   3.463  0.00  0.00     0.079 A 
ATOM      5  C7  <0> d           0.749  -1.773   3.252  0.00  0.00     0.026 A 
ATOM      6  C8  <0> d           0.079  -1.312   2.135  0.00  0.00     0.011 A 
ENDROOT
BRANCH   1   7
ATOM      7  C2  <0> d           0.002  -0.004   0.002  0.00  0.00     0.141 C 
ATOM      8  C1  <0> d          -0.019   1.526   0.010  0.00  0.00     0.040 C 
BRANCH   7   9
ATOM      9  N2  <0> d           0.688  -0.476  -1.203  0.00  0.00    -0.244 N 
ATOM     10  N3  <0> d           2.013  -0.198  -1.562  0.00  0.00    -0.181 NA
ATOM     11  C13 <0> d           2.268  -0.794  -2.698  0.00  0.00     0.162 A 
ATOM     12  C12 <0> d           1.116  -1.467  -3.113  0.00  0.00     0.075 A 
ATOM     13  C11 <0> d           0.150  -1.258  -2.175  0.00  0.00     0.137 A 
ATOM     14 Br1  <0> d           0.930  -2.486  -4.695  0.00  0.00    -0.045 Br
BRANCH  13  15
ATOM     15  N4  <0> d          -1.150  -1.756  -2.207  0.00  0.00    -0.383 N 
ATOM     16  H16 <0> d          -1.766  -1.550  -1.486  0.00  0.00     0.157 HD
ATOM     17  H17 <0> d          -1.440  -2.309  -2.950  0.00  0.00     0.157 HD
ENDBRANCH  13  15
ENDBRANCH   7   9
ENDBRANCH   1   7
BRANCH   4  18
ATOM     18  S1  <0> d           2.921  -2.003   4.890  0.00  0.00     0.260 S 
ATOM     19  O1  <0> d           2.256  -3.190   5.302  0.00  0.00    -0.200 OA
ATOM     20  O2  <0> d           4.306  -1.976   4.575  0.00  0.00    -0.200 OA
BRANCH  18  21
ATOM     21  N1  <0> d           2.686  -0.888   6.091  0.00  0.00    -0.315 N 
ATOM     22  C9  <0> d           1.538  -1.013   6.993  0.00  0.00     0.162 C 
ATOM     23  C10 <0> d           3.627   0.224   6.253  0.00  0.00     0.162 C 
ENDBRANCH  18  21
ENDBRANCH   4  18
TORSDOF 5
