REMARK  4 active torsions:
REMARK  status: ('A' for Active; 'I' for Inactive)
REMARK    1  A    between atoms: C2_2  and  C5_5 
REMARK    2  A    between atoms: C5_5  and  C6_7 
REMARK    3  A    between atoms: N1_9  and  C10_14 
REMARK    4  A    between atoms: C10_14  and  C11_15 
REMARK       I    between atoms: C11_15  and  N2_17 
ROOT
ATOM      1  C6  <0> d          -0.013   1.076   0.008  0.00  0.00     0.088 C 
ATOM      2  C7  <0> d          -1.218   1.750   0.017  0.00  0.00     0.078 A 
ATOM      3  N1  <0> d          -2.488   1.220   0.021  0.00  0.00    -0.303 N 
ATOM      4  C8  <0> d          -3.572   1.977   0.030  0.00  0.00     0.234 A 
ATOM      5  O2  <0> d          -4.688   1.503   0.034  0.00  0.00    -0.272 OA
ATOM      6  C9  <0> d          -3.331   3.478   0.037  0.00  0.00     0.184 A 
ATOM      7  S1  <0> d          -1.495   3.515   0.036  0.00  0.00    -0.103 SA
ENDROOT
BRANCH   1   8
ATOM      8  C5  <0> d           1.182   1.787   0.000  0.00  0.00     0.159 C 
ATOM      9  O1  <0> d           1.166   3.004   0.007  0.00  0.00    -0.292 OA
BRANCH   8  10
ATOM     10  C2  <0> d           2.497   1.052  -0.016  0.00  0.00     0.014 C 
ATOM     11  C1  <0> d           3.647   2.062  -0.022  0.00  0.00     0.023 C 
ATOM     12  C3  <0> d           2.602   0.167   1.227  0.00  0.00     0.023 C 
ATOM     13  C4  <0> d           2.578   0.180  -1.271  0.00  0.00     0.023 C 
ENDBRANCH   8  10
ENDBRANCH   1   8
BRANCH   3  14
ATOM     14  C10 <0> d          -2.644  -0.236   0.013  0.00  0.00     0.235 C 
BRANCH  14  15
ATOM     15  C11 <0> d          -2.691  -0.743   1.432  0.00  0.00     0.233 C 
ATOM     16  O3  <0> d          -2.603   0.035   2.357  0.00  0.00    -0.272 OA
ATOM     17  N2  <0> d          -2.831  -2.062   1.671  0.00  0.00    -0.369 N 
ATOM     18  H15 <0> d          -2.902  -2.685   0.931  0.00  0.00     0.159 HD
ATOM     19  H16 <0> d          -2.861  -2.389   2.584  0.00  0.00     0.159 HD
ENDBRANCH  14  15
ENDBRANCH   3  14
TORSDOF 4
