REMARK  7 active torsions:
REMARK  status: ('A' for Active; 'I' for Inactive)
REMARK    1  A    between atoms: C2_2  and  C7_7 
REMARK    2  A    between atoms: C7_7  and  N1_8 
REMARK       I    between atoms: N1_8  and  C8_9 
REMARK       I    between atoms: C8_9  and  N2_11 
REMARK    3  A    between atoms: N2_11  and  C9_12 
REMARK    4  A    between atoms: C9_12  and  C10_13 
REMARK    5  A    between atoms: C10_13  and  C11_14 
REMARK    6  A    between atoms: C11_14  and  N3_15 
REMARK    7  A    between atoms: C15_19  and  C17_21 
REMARK       I    between atoms: C17_21  and  N4_23 
ROOT
ATOM      1  C9  <0> d          -5.423  -0.335  -2.802  0.00  0.00     0.126 C 
ENDROOT
BRANCH   1   2
ATOM      2  N2  <0> d          -4.032   0.047  -2.549  0.00  0.00    -0.343 N 
ATOM      3  C8  <0> d          -3.397  -0.406  -1.450  0.00  0.00     0.316 C 
ATOM      4  N1  <0> d          -2.117  -0.054  -1.217  0.00  0.00    -0.342 N 
ATOM      5  O1  <0> d          -3.980  -1.132  -0.668  0.00  0.00    -0.247 OA
ATOM      6  H15 <0> d          -1.653   0.525  -1.841  0.00  0.00     0.164 HD
ATOM      7  H16 <0> d          -3.567   0.627  -3.173  0.00  0.00     0.164 HD
BRANCH   4   8
ATOM      8  C7  <0> d          -1.428  -0.547  -0.022  0.00  0.00     0.133 C 
BRANCH   8   9
ATOM      9  C2  <0> d           0.002  -0.004   0.002  0.00  0.00    -0.028 C 
ATOM     10  C1  <0> d          -0.019   1.526   0.010  0.00  0.00     0.016 C 
ATOM     11  C6  <0> d           0.744  -0.528   1.244  0.00  0.00     0.011 C 
ATOM     12  C5  <0> d           1.950  -1.339   0.728  0.00  0.00     0.001 C 
ATOM     13  C4  <0> d           2.213  -0.768  -0.688  0.00  0.00     0.001 C 
ATOM     14  C3  <0> d           0.783  -0.515  -1.226  0.00  0.00     0.011 C 
ENDBRANCH   8   9
ENDBRANCH   4   8
ENDBRANCH   1   2
BRANCH   1  15
ATOM     15  C10 <0> d          -5.900   0.310  -4.105  0.00  0.00     0.047 C 
BRANCH  15  16
ATOM     16  C11 <0> d          -7.354  -0.089  -4.370  0.00  0.00     0.236 C 
BRANCH  16  17
ATOM     17  N3  <0> d          -7.812   0.529  -5.621  0.00  0.00    -0.070 N 
ATOM     18  C16 <0> d          -9.163   0.051  -5.935  0.00  0.00     0.248 C 
ATOM     19  C15 <0> d          -9.613   0.629  -7.278  0.00  0.00     0.103 C 
ATOM     20  C14 <0> d          -9.618   2.158  -7.194  0.00  0.00     0.017 C 
ATOM     21  C13 <0> d          -8.221   2.642  -6.793  0.00  0.00     0.029 C 
ATOM     22  C12 <0> d          -7.823   1.989  -5.467  0.00  0.00     0.235 C 
ATOM     23  H33 <0> d          -7.184   0.276  -6.369  0.00  0.00     0.279 HD
BRANCH  19  24
ATOM     24  C17 <0> d         -11.002   0.139  -7.598  0.00  0.00     0.221 C 
ATOM     25  O2  <0> d         -11.575  -0.604  -6.830  0.00  0.00    -0.273 OA
ATOM     26  N4  <0> d         -11.607   0.526  -8.739  0.00  0.00    -0.370 N 
ATOM     27  H31 <0> d         -11.149   1.120  -9.354  0.00  0.00     0.159 HD
ATOM     28  H32 <0> d         -12.501   0.210  -8.945  0.00  0.00     0.159 HD
ENDBRANCH  19  24
ENDBRANCH  16  17
ENDBRANCH  15  16
ENDBRANCH   1  15
TORSDOF 7
