REMARK  6 active torsions:
REMARK  status: ('A' for Active; 'I' for Inactive)
REMARK    1  A    between atoms: C2_2  and  C3_3 
REMARK    2  A    between atoms: C2_2  and  O4_33 
REMARK    3  A    between atoms: C3_3  and  N1_4 
REMARK       I    between atoms: N1_4  and  C4_5 
REMARK    4  A    between atoms: C4_5  and  C5_7 
REMARK       I    between atoms: N2_9  and  C13_17 
REMARK    5  A    between atoms: C13_17  and  C14_19 
REMARK    6  A    between atoms: O4_33  and  C27_34 
ROOT
ATOM      1  C5  <0> d           0.651  -4.046   1.565  0.00  0.00     0.106 C 
ATOM      2  C6  <0> d          -0.558  -4.985   1.361  0.00  0.00     0.141 C 
ATOM      3  N2  <0> d          -0.052  -6.331   1.720  0.00  0.00    -0.346 N 
ATOM      4  C7  <0> d           0.821  -6.095   2.895  0.00  0.00     0.136 C 
ATOM      5  C8  <0> d           1.554  -4.777   2.573  0.00  0.00    -0.007 C 
ATOM      6  C9  <0> d           2.915  -5.069   1.948  0.00  0.00     0.039 C 
ATOM      7  C10 <0> d           3.814  -5.745   2.988  0.00  0.00     0.233 C 
ATOM      8  N3  <0> d           3.966  -4.865   4.152  0.00  0.00    -0.075 N 
ATOM      9  C11 <0> d           2.665  -4.664   4.802  0.00  0.00     0.233 C 
ATOM     10  C12 <0> d           1.718  -3.942   3.839  0.00  0.00     0.039 C 
ATOM     11  C13 <0> d          -0.324  -7.504   1.116  0.00  0.00     0.254 C 
ATOM     12  O2  <0> d           0.104  -8.542   1.583  0.00  0.00    -0.267 OA
ATOM     13  H17 <0> d           4.606  -5.286   4.809  0.00  0.00     0.277 HD
ATOM     14  H34 <0> d           4.332  -3.974   3.853  0.00  0.00     0.277 HD
ENDROOT
BRANCH  11  15
ATOM     15  C14 <0> d          -1.141  -7.530  -0.114  0.00  0.00     0.044 A 
ATOM     16  C19 <0> d          -0.699  -8.238  -1.238  0.00  0.00     0.005 A 
ATOM     17  C18 <0> d          -1.491  -8.257  -2.397  0.00  0.00     0.027 A 
ATOM     18  C20 <0> d           0.524  -9.043  -1.484  0.00  0.00    -0.010 A 
ATOM     19  C17 <0> d          -2.697  -7.566  -2.425  0.00  0.00     0.016 A 
ATOM     20  C26 <0> d          -0.790  -9.079  -3.412  0.00  0.00     0.194 A 
ATOM     21  C16 <0> d          -3.123  -6.863  -1.309  0.00  0.00     0.002 A 
ATOM     22  C15 <0> d          -2.359  -6.841  -0.163  0.00  0.00     0.018 A 
ATOM     23  C25 <0> d           0.475  -9.544  -2.796  0.00  0.00     0.026 A 
ATOM     24  O3  <0> d          -1.174  -9.315  -4.540  0.00  0.00    -0.287 OA
ATOM     25  C24 <0> d           1.513 -10.334  -3.275  0.00  0.00     0.016 A 
ATOM     26  C23 <0> d           2.592 -10.627  -2.456  0.00  0.00     0.001 A 
ATOM     27  C22 <0> d           2.641 -10.135  -1.167  0.00  0.00     0.001 A 
ATOM     28  C21 <0> d           1.613  -9.345  -0.677  0.00  0.00     0.013 A 
ENDBRANCH  11  15
BRANCH   1  29
ATOM     29  C4  <0> d           0.199  -2.723   2.129  0.00  0.00     0.224 C 
ATOM     30  N1  <0> d           0.892  -1.601   1.853  0.00  0.00    -0.358 N 
ATOM     31  H8  <0> d           1.682  -1.644   1.291  0.00  0.00     0.162 HD
ATOM     32  O1  <0> d          -0.788  -2.669   2.831  0.00  0.00    -0.273 OA
BRANCH  30  33
ATOM     33  C3  <0> d           0.453  -0.315   2.401  0.00  0.00     0.154 C 
BRANCH  33  34
ATOM     34  C2  <0> d           1.406   0.789   1.938  0.00  0.00     0.142 C 
ATOM     35  C1  <0> d           1.021   2.109   2.610  0.00  0.00     0.042 C 
BRANCH  34  36
ATOM     36  O4  <0> d           1.316   0.932   0.520  0.00  0.00    -0.345 OA
BRANCH  36  37
ATOM     37  C27 <0> d           2.386   1.481  -0.114  0.00  0.00     0.069 A 
ATOM     38  C32 <0> d           2.354   1.680  -1.486  0.00  0.00     0.037 A 
ATOM     39  C31 <0> d           3.441   2.244  -2.127  0.00  0.00     0.003 A 
ATOM     40  C30 <0> d           4.564   2.598  -1.403  0.00  0.00     0.000 A 
ATOM     41  C29 <0> d           4.600   2.396  -0.036  0.00  0.00     0.003 A 
ATOM     42  C28 <0> d           3.514   1.839   0.610  0.00  0.00     0.037 A 
ENDBRANCH  36  37
ENDBRANCH  34  36
ENDBRANCH  33  34
ENDBRANCH  30  33
ENDBRANCH   1  29
TORSDOF 6
