REMARK  6 active torsions:
REMARK  status: ('A' for Active; 'I' for Inactive)
REMARK    1  A    between atoms: C5_5  and  C20_25 
REMARK    2  A    between atoms: C7_7  and  N1_8 
REMARK       I    between atoms: N1_8  and  C8_9 
REMARK    3  A    between atoms: C8_9  and  C9_11 
REMARK       I    between atoms: C9_11  and  N2_13 
REMARK    4  A    between atoms: N2_13  and  C10_14 
REMARK    5  A    between atoms: C10_14  and  C12_16 
REMARK    6  A    between atoms: C12_16  and  N3_17 
REMARK       I    between atoms: C20_25  and  N4_27 
ROOT
ATOM      1  N1  <0> d           0.025  -0.009   2.416  0.00  0.00    -0.318 N 
ATOM      2  C8  <0> d          -0.057  -0.684   3.579  0.00  0.00     0.314 C 
ATOM      3  O1  <0> d          -0.040  -1.898   3.579  0.00  0.00    -0.262 OA
ATOM      4  H10 <0> d           0.078   0.960   2.420  0.00  0.00     0.169 HD
ENDROOT
BRANCH   2   5
ATOM      5  C9  <0> d          -0.167   0.060   4.869  0.00  0.00     0.310 C 
ATOM      6  O2  <0> d          -0.183   1.274   4.870  0.00  0.00    -0.262 OA
ATOM      7  N2  <0> d          -0.248  -0.615   6.033  0.00  0.00    -0.347 N 
ATOM      8  H11 <0> d          -0.235  -1.585   6.032  0.00  0.00     0.163 HD
BRANCH   7   9
ATOM      9  C10 <0> d          -0.357   0.116   7.298  0.00  0.00     0.106 C 
ATOM     10  C11 <0> d           1.041   0.498   7.787  0.00  0.00     0.034 C 
BRANCH   9  11
ATOM     11  C12 <0> d          -1.038  -0.771   8.342  0.00  0.00     0.259 C 
BRANCH  11  12
ATOM     12  N3  <0> d          -2.330  -1.236   7.822  0.00  0.00    -0.069 N 
ATOM     13  C17 <0> d          -2.928  -2.181   8.773  0.00  0.00     0.239 C 
ATOM     14  C16 <0> d          -4.235  -2.731   8.199  0.00  0.00     0.008 C 
ATOM     15  C15 <0> d          -5.205  -1.571   7.952  0.00  0.00     0.011 C 
ATOM     16  C18 <0> d          -4.857  -3.714   9.193  0.00  0.00     0.011 C 
ATOM     17  C14 <0> d          -4.542  -0.555   7.017  0.00  0.00     0.008 C 
ATOM     18  C13 <0> d          -3.223  -0.086   7.635  0.00  0.00     0.239 C 
ATOM     19  C19 <0> d          -5.471   0.645   6.825  0.00  0.00     0.011 C 
ATOM     20  H33 <0> d          -2.189  -1.697   6.936  0.00  0.00     0.280 HD
ENDBRANCH  11  12
ENDBRANCH   9  11
ENDBRANCH   7   9
ENDBRANCH   2   5
BRANCH   1  21
ATOM     21  C7  <0> d           0.033  -0.704   1.204  0.00  0.00     0.042 A 
ATOM     22  C2  <0> d          -0.587  -0.158   0.086  0.00  0.00    -0.035 A 
ATOM     23  C1  <0> d          -1.267   1.183   0.183  0.00  0.00     0.050 C 
ATOM     24  C3  <0> d          -0.576  -0.839  -1.117  0.00  0.00     0.010 A 
ATOM     25  C4  <0> d           0.044  -2.068  -1.215  0.00  0.00     0.017 A 
ATOM     26  C5  <0> d           0.664  -2.627  -0.096  0.00  0.00     0.034 A 
ATOM     27  C6  <0> d           0.655  -1.941   1.117  0.00  0.00     0.047 A 
BRANCH  26  28
ATOM     28  C20 <0> d           1.329  -3.944  -0.198  0.00  0.00     0.251 C 
ATOM     29  O3  <0> d           1.869  -4.429   0.777  0.00  0.00    -0.268 OA
ATOM     30  N4  <0> d           1.337  -4.606  -1.372  0.00  0.00    -0.361 N 
ATOM     31  C21 <0> d           1.996  -5.911  -1.472  0.00  0.00     0.149 C 
ATOM     32  H29 <0> d           0.906  -4.219  -2.150  0.00  0.00     0.162 HD
ENDBRANCH  26  28
ENDBRANCH   1  21
TORSDOF 6
