REMARK  7 active torsions:
REMARK  status: ('A' for Active; 'I' for Inactive)
REMARK    1  A    between atoms: C4_4  and  N1_10 
REMARK    2  A    between atoms: C10_13  and  C11_14 
REMARK    3  A    between atoms: C11_14  and  N2_15 
REMARK    4  A    between atoms: N2_15  and  C12_16 
REMARK    5  A    between atoms: C12_16  and  C13_17 
REMARK    6  A    between atoms: C13_17  and  C14_18 
REMARK    7  A    between atoms: C14_18  and  O2_19 
ROOT
ATOM      1  N1  <0> d           2.009  -0.051  -5.863  0.00  0.00    -0.231 N 
ATOM      2  C9  <0> d           1.374   0.258  -4.714  0.00  0.00     0.251 A 
ATOM      3  O1  <0> d           1.794  -0.137  -3.642  0.00  0.00    -0.271 OA
ATOM      4  C10 <0> d           0.159   1.089  -4.791  0.00  0.00     0.211 A 
ATOM      5  C15 <0> d          -0.277   1.516  -6.132  0.00  0.00     0.243 A 
ATOM      6  O3  <0> d          -1.274   2.199  -6.276  0.00  0.00    -0.272 OA
ATOM      7  N3  <0> d           0.461   1.135  -7.194  0.00  0.00    -0.278 N 
ATOM      8  C16 <0> d           1.557   0.377  -7.050  0.00  0.00     0.336 A 
ATOM      9  O4  <0> d           2.175   0.062  -8.048  0.00  0.00    -0.246 OA
ATOM     10  H18 <0> d           0.190   1.411  -8.084  0.00  0.00     0.173 HD
ENDROOT
BRANCH   1  11
ATOM     11  C4  <0> d           3.167  -0.840  -5.815  0.00  0.00     0.065 A 
ATOM     12  C3  <0> d           3.070  -2.223  -5.888  0.00  0.00     0.039 A 
ATOM     13  C2  <0> d           4.213  -2.997  -5.845  0.00  0.00    -0.054 A 
ATOM     14  C1  <0> d           4.109  -4.498  -5.931  0.00  0.00     0.049 C 
ATOM     15  C7  <0> d           5.452  -2.397  -5.718  0.00  0.00    -0.055 A 
ATOM     16  C6  <0> d           5.552  -1.020  -5.640  0.00  0.00     0.028 A 
ATOM     17  C8  <0> d           6.697  -3.246  -5.666  0.00  0.00     0.049 C 
ATOM     18  C5  <0> d           4.413  -0.240  -5.688  0.00  0.00     0.038 A 
ATOM     19 Br1  <0> d           4.550   1.643  -5.580  0.00  0.00    -0.049 Br
ENDBRANCH   1  11
BRANCH   4  20
ATOM     20  C11 <0> d          -0.544   1.446  -3.655  0.00  0.00     0.107 C 
BRANCH  20  21
ATOM     21  N2  <0> d          -0.037   1.176  -2.436  0.00  0.00    -0.304 NA
BRANCH  21  22
ATOM     22  C12 <0> d          -0.781   1.554  -1.232  0.00  0.00     0.150 C 
BRANCH  22  23
ATOM     23  C13 <0> d           0.009   1.137   0.009  0.00  0.00     0.048 C 
BRANCH  23  24
ATOM     24  C14 <0> d          -0.769   1.532   1.266  0.00  0.00     0.165 C 
BRANCH  24  25
ATOM     25  O2  <0> d          -0.030   1.142   2.426  0.00  0.00    -0.401 OA
ATOM     26  H17 <0> d          -0.465   1.363   3.261  0.00  0.00     0.209 HD
ENDBRANCH  24  25
ENDBRANCH  23  24
ENDBRANCH  22  23
ENDBRANCH  21  22
ENDBRANCH  20  21
ENDBRANCH   4  20
TORSDOF 7
