REMARK  5 active torsions:
REMARK  status: ('A' for Active; 'I' for Inactive)
REMARK    1  A    between atoms: C2_2  and  C3_3 
REMARK    2  A    between atoms: C2_2  and  N2_8 
REMARK       I    between atoms: C3_3  and  N1_5 
REMARK    3  A    between atoms: N2_8  and  C6_9 
REMARK    4  A    between atoms: C6_9  and  C15_18 
REMARK    5  A    between atoms: C9_12  and  C12_15 
ROOT
ATOM      1  C6  <0> d           2.172   0.209  -0.290  0.00  0.00     0.213 C 
ATOM      2  C7  <0> d           2.032   1.726  -0.432  0.00  0.00     0.051 C 
ATOM      3  C8  <0> d           3.399   2.385  -0.236  0.00  0.00     0.008 C 
ATOM      4  C9  <0> d           4.374   1.861  -1.293  0.00  0.00    -0.011 C 
ATOM      5  C10 <0> d           4.513   0.344  -1.151  0.00  0.00     0.008 C 
ATOM      6  C11 <0> d           3.146  -0.314  -1.347  0.00  0.00     0.051 C 
ENDROOT
BRANCH   1   7
ATOM      7  N2  <0> d           0.859  -0.423  -0.479  0.00  0.00    -0.044 N 
ATOM      8  H11 <0> d           0.195  -0.017   0.164  0.00  0.00     0.279 HD
ATOM      9  H28 <0> d           0.934  -1.413  -0.303  0.00  0.00     0.279 HD
BRANCH   7  10
ATOM     10  C2  <0> d           0.403  -0.204  -1.858  0.00  0.00     0.274 C 
ATOM     11  C1  <0> d           0.886  -1.354  -2.744  0.00  0.00     0.050 C 
BRANCH  10  12
ATOM     12  C3  <0> d          -1.102  -0.146  -1.886  0.00  0.00     0.249 C 
ATOM     13  O1  <0> d          -1.743  -0.572  -0.949  0.00  0.00    -0.271 OA
ATOM     14  N1  <0> d          -1.736   0.380  -2.953  0.00  0.00    -0.359 N 
ATOM     15  C4  <0> d          -3.200   0.373  -3.011  0.00  0.00     0.152 C 
ATOM     16  C5  <0> d          -0.962   0.957  -4.054  0.00  0.00     0.152 C 
ENDBRANCH  10  12
ENDBRANCH   7  10
ENDBRANCH   1   7
BRANCH   1  17
ATOM     17  C15 <0> d           2.696  -0.121   1.083  0.00  0.00     0.210 C 
ATOM     18  O2  <0> d           2.033  -0.811   1.839  0.00  0.00    -0.646 OA
ATOM     19  O3  <0> d           3.782   0.303   1.439  0.00  0.00    -0.646 OA
ENDBRANCH   1  17
BRANCH   4  20
ATOM     20  C12 <0> d           5.741   2.520  -1.097  0.00  0.00    -0.019 C 
ATOM     21  C13 <0> d           6.715   1.996  -2.154  0.00  0.00     0.010 C 
ATOM     22  C14 <0> d           5.601   4.037  -1.239  0.00  0.00     0.010 C 
ENDBRANCH   4  20
TORSDOF 5
