REMARK  4 active torsions:
REMARK  status: ('A' for Active; 'I' for Inactive)
REMARK    1  A    between atoms: C4_4  and  N1_7 
REMARK    2  A    between atoms: C8_9  and  C10_12 
REMARK    3  A    between atoms: C10_12  and  N3_13 
REMARK       I    between atoms: N3_13  and  C11_14 
REMARK    4  A    between atoms: C11_14  and  C12_16 
ROOT
ATOM      1  N3  <0> d           5.954  -4.041  -1.470  0.00  0.00    -0.351 N 
ATOM      2  C11 <0> d           6.516  -5.237  -1.732  0.00  0.00     0.268 C 
ATOM      3  O1  <0> d           6.861  -5.961  -0.817  0.00  0.00    -0.266 OA
ATOM      4  H11 <0> d           5.679  -3.463  -2.200  0.00  0.00     0.163 HD
ENDROOT
BRANCH   1   5
ATOM      5  C10 <0> d           5.757  -3.612  -0.083  0.00  0.00     0.164 C 
BRANCH   5   6
ATOM      6  C8  <0> d           5.115  -2.248  -0.065  0.00  0.00    -0.004 A 
ATOM      7  C7  <0> d           3.786  -1.994  -0.052  0.00  0.00     0.129 A 
ATOM      8  N1  <0> d           3.624  -0.652  -0.037  0.00  0.00    -0.245 N 
ATOM      9  N2  <0> d           4.895  -0.065  -0.048  0.00  0.00    -0.180 NA
ATOM     10  C9  <0> d           5.788  -1.022  -0.059  0.00  0.00     0.149 A 
BRANCH   8  11
ATOM     11  C4  <0> d           2.399   0.031  -0.021  0.00  0.00     0.058 A 
ATOM     12  C3  <0> d           2.377   1.419  -0.013  0.00  0.00     0.031 A 
ATOM     13  C2  <0> d           1.170   2.089   0.002  0.00  0.00     0.002 A 
ATOM     14  C1  <0> d          -0.017   1.379   0.010  0.00  0.00     0.000 A 
ATOM     15  C6  <0> d           0.002  -0.004   0.002  0.00  0.00     0.002 A 
ATOM     16  C5  <0> d           1.207  -0.680  -0.013  0.00  0.00     0.031 A 
ENDBRANCH   8  11
ENDBRANCH   5   6
ENDBRANCH   1   5
BRANCH   2  17
ATOM     17  C12 <0> d           6.713  -5.668  -3.124  0.00  0.00     0.102 A 
ATOM     18  N4  <0> d           6.365  -4.938  -4.245  0.00  0.00    -0.351 N 
ATOM     19  C19 <0> d           6.705  -5.660  -5.365  0.00  0.00     0.044 A 
ATOM     20  H1  <0> d           5.952  -4.061  -4.242  0.00  0.00     0.166 HD
ATOM     21  C14 <0> d           7.270  -6.874  -4.929  0.00  0.00    -0.007 A 
ATOM     22  C18 <0> d           6.588  -5.411  -6.730  0.00  0.00     0.049 A 
ATOM     23  C13 <0> d           7.261  -6.848  -3.513  0.00  0.00     0.049 A 
ATOM     24  C15 <0> d           7.706  -7.815  -5.871  0.00  0.00     0.015 A 
ATOM     25  C16 <0> d           7.581  -7.549  -7.203  0.00  0.00     0.020 A 
ATOM     26  C17 <0> d           7.024  -6.352  -7.637  0.00  0.00     0.013 A 
ATOM     27 Br1  <0> d           6.863  -6.011  -9.490  0.00  0.00    -0.051 Br
ENDBRANCH   2  17
TORSDOF 4
