REMARK  3 active torsions:
REMARK  status: ('A' for Active; 'I' for Inactive)
REMARK    1  A    between atoms: N1_2  and  C2_3 
REMARK    2  A    between atoms: C2_3  and  C3_4 
REMARK    3  A    between atoms: C2_3  and  C11_15 
ROOT
ATOM      1  C3  <0> d          -2.067  -0.116  -1.267  0.00  0.00    -0.005 A 
ATOM      2  C4  <0> d          -1.324   0.130  -2.405  0.00  0.00     0.050 A 
ATOM      3  C5  <0> d          -1.957   0.494  -3.584  0.00  0.00     0.102 A 
ATOM      4  C6  <0> d          -3.342   0.609  -3.618  0.00  0.00     0.103 A 
ATOM      5  C7  <0> d          -4.083   0.362  -2.472  0.00  0.00     0.059 A 
ATOM      6  C8  <0> d          -3.445  -0.005  -1.301  0.00  0.00     0.022 A 
ATOM      7 Br1  <0> d          -4.459  -0.348   0.258  0.00  0.00    -0.050 Br
ATOM      8  O1  <0> d          -3.984   0.957  -4.766  0.00  0.00    -0.346 OA
ATOM      9  C9  <0> d          -3.187   1.557  -5.793  0.00  0.00     0.202 C 
ATOM     10  C10 <0> d          -1.903   0.731  -5.949  0.00  0.00     0.202 C 
ATOM     11  O2  <0> d          -1.211   0.736  -4.696  0.00  0.00    -0.346 OA
ENDROOT
BRANCH   1  12
ATOM     12  C2  <0> d          -1.376  -0.512   0.012  0.00  0.00     0.248 C 
BRANCH  12  13
ATOM     13  N1  <0> d           0.002  -0.004   0.002  0.00  0.00    -0.068 N 
ATOM     14  C1  <0> d          -0.018   1.465   0.010  0.00  0.00     0.267 C 
ATOM     15  H6  <0> d           0.474  -0.330  -0.828  0.00  0.00     0.277 HD
ATOM     16  H19 <0> d           0.490  -0.338   0.820  0.00  0.00     0.277 HD
ENDBRANCH  12  13
BRANCH  12  17
ATOM     17  C11 <0> d          -1.356  -2.038   0.130  0.00  0.00     0.156 C 
ATOM     18  O3  <0> d          -0.620  -2.600  -0.963  0.00  0.00    -0.383 OA
ATOM     19  C14 <0> d           0.529  -3.308  -0.467  0.00  0.00     0.168 C 
ATOM     20  C13 <0> d           0.165  -3.700   0.988  0.00  0.00     0.029 C 
ATOM     21  C12 <0> d          -0.645  -2.453   1.436  0.00  0.00     0.036 C 
ENDBRANCH  12  17
ENDBRANCH   1  12
TORSDOF 3
