REMARK  5 active torsions:
REMARK  status: ('A' for Active; 'I' for Inactive)
REMARK    1  A    between atoms: C11_14  and  C20_26 
REMARK    2  A    between atoms: N4_17  and  C13_18 
REMARK    3  A    between atoms: C13_18  and  C14_19 
REMARK       I    between atoms: C20_26  and  N5_28 
REMARK    4  A    between atoms: N5_28  and  C21_29 
REMARK    5  A    between atoms: C21_29  and  C22_30 
ROOT
ATOM      1  C1  <0> d          -0.299   1.913   0.086  0.00  0.00     0.052 C 
ATOM      2  C2  <0> d          -0.142   0.414   0.078  0.00  0.00    -0.015 A 
ATOM      3  C3  <0> d           1.101  -0.145   0.082  0.00  0.00     0.012 A 
ATOM      4  C4  <0> d           1.231  -1.541   0.074  0.00  0.00     0.018 A 
ATOM      5  C5  <0> d           0.129  -2.324   0.063  0.00  0.00     0.102 A 
ATOM      6  N1  <0> d          -1.118  -1.774   0.058  0.00  0.00    -0.272 N 
ATOM      7  C6  <0> d          -1.278  -0.416   0.072  0.00  0.00     0.145 A 
ATOM      8  N2  <0> d          -2.488   0.143   0.073  0.00  0.00    -0.211 NA
ATOM      9  C7  <0> d          -3.594  -0.590   0.068  0.00  0.00     0.149 A 
ATOM     10  C8  <0> d          -3.490  -2.000   0.060  0.00  0.00     0.080 A 
ATOM     11  C9  <0> d          -2.197  -2.587   0.046  0.00  0.00     0.267 A 
ATOM     12  O1  <0> d          -2.064  -3.797   0.039  0.00  0.00    -0.267 OA
ATOM     13  C10 <0> d          -4.638  -2.804   0.053  0.00  0.00     0.042 A 
ATOM     14  C11 <0> d          -5.891  -2.204   0.055  0.00  0.00     0.076 A 
ATOM     15  C12 <0> d          -5.979  -0.736   0.064  0.00  0.00     0.118 A 
ATOM     16  N3  <0> d          -7.149  -0.147   0.066  0.00  0.00    -0.384 N 
ATOM     17  N4  <0> d          -4.825   0.018   0.069  0.00  0.00    -0.312 N 
ATOM     18  H8  <0> d          -7.212   0.951   0.072  0.00  0.00     0.157 HD
ATOM     19  H22 <0> d          -8.068  -0.751   0.061  0.00  0.00     0.157 HD
ENDROOT
BRANCH  14  20
ATOM     20  C20 <0> d          -7.108  -3.023   0.049  0.00  0.00     0.255 C 
ATOM     21  O2  <0> d          -8.198  -2.493   0.156  0.00  0.00    -0.268 OA
ATOM     22  N5  <0> d          -7.019  -4.362  -0.075  0.00  0.00    -0.353 N 
ATOM     23  H15 <0> d          -6.033  -4.841  -0.172  0.00  0.00     0.163 HD
BRANCH  22  24
ATOM     24  C21 <0> d          -8.234  -5.180  -0.081  0.00  0.00     0.161 C 
BRANCH  24  25
ATOM     25  C22 <0> d          -7.862  -6.633  -0.231  0.00  0.00    -0.040 A 
ATOM     26  C27 <0> d          -7.625  -7.404   0.892  0.00  0.00     0.012 A 
ATOM     27  C26 <0> d          -7.284  -8.736   0.756  0.00  0.00     0.043 A 
ATOM     28  C25 <0> d          -7.179  -9.298  -0.505  0.00  0.00     0.116 A 
ATOM     29  C24 <0> d          -7.415  -8.524  -1.629  0.00  0.00     0.043 A 
ATOM     30  F2  <0> d          -6.845 -10.600  -0.640  0.00  0.00    -0.206 F 
ATOM     31  C23 <0> d          -7.762  -7.194  -1.490  0.00  0.00     0.012 A 
ENDBRANCH  24  25
ENDBRANCH  22  24
ENDBRANCH  14  20
BRANCH  17  32
ATOM     32  C13 <0> d          -4.913   1.480   0.077  0.00  0.00     0.171 C 
BRANCH  32  33
ATOM     33  C14 <0> d          -4.941   1.990  -1.341  0.00  0.00    -0.040 A 
ATOM     34  C19 <0> d          -6.149   2.152  -1.993  0.00  0.00     0.012 A 
ATOM     35  C18 <0> d          -6.175   2.619  -3.293  0.00  0.00     0.043 A 
ATOM     36  C17 <0> d          -4.992   2.926  -3.943  0.00  0.00     0.116 A 
ATOM     37  C16 <0> d          -3.782   2.763  -3.288  0.00  0.00     0.043 A 
ATOM     38  F1  <0> d          -5.016   3.382  -5.214  0.00  0.00    -0.206 F 
ATOM     39  C15 <0> d          -3.758   2.300  -1.986  0.00  0.00     0.012 A 
ENDBRANCH  32  33
ENDBRANCH  17  32
TORSDOF 5
