REMARK  4 active torsions:
REMARK  status: ('A' for Active; 'I' for Inactive)
REMARK    1  A    between atoms: N1_2  and  C2_3 
REMARK    2  A    between atoms: C2_3  and  C3_4 
REMARK    3  A    between atoms: N3_7  and  C6_9 
REMARK    4  A    between atoms: C12_15  and  O1_16 
ROOT
ATOM      1  C3  <0> d          -1.356  -2.019   0.004  0.00  0.00     0.004 A 
ATOM      2  C4  <0> d          -1.349  -2.836  -1.131  0.00  0.00     0.149 A 
ATOM      3  N2  <0> d          -1.330  -4.084  -0.737  0.00  0.00    -0.184 NA
ATOM      4  N3  <0> d          -1.324  -4.100   0.663  0.00  0.00    -0.273 N 
ATOM      5  C5  <0> d          -1.334  -2.821   1.094  0.00  0.00     0.123 A 
ENDROOT
BRANCH   4   6
ATOM      6  C6  <0> d          -1.304  -5.295   1.511  0.00  0.00     0.138 C 
ATOM      7  C12 <0> d          -2.752  -5.670   1.879  0.00  0.00     0.143 C 
ATOM      8  C11 <0> d          -2.835  -6.624   3.085  0.00  0.00     0.034 C 
ATOM      9  C10 <0> d          -1.786  -7.702   3.040  0.00  0.00     0.002 C 
ATOM     10  C9  <0> d          -0.566  -7.233   3.858  0.00  0.00     0.000 C 
ATOM     11  C8  <0> d           0.281  -6.314   3.113  0.00  0.00     0.002 C 
ATOM     12  C7  <0> d          -0.457  -5.017   2.724  0.00  0.00     0.030 C 
BRANCH   7  13
ATOM     13  O1  <0> d          -3.474  -4.475   2.185  0.00  0.00    -0.393 OA
ATOM     14  H21 <0> d          -4.398  -4.625   2.427  0.00  0.00     0.210 HD
ENDBRANCH   7  13
ENDBRANCH   4   6
BRANCH   1  15
ATOM     15  C2  <0> d          -1.376  -0.512   0.012  0.00  0.00     0.273 C 
BRANCH  15  16
ATOM     16  N1  <0> d           0.002  -0.004   0.002  0.00  0.00    -0.075 N 
ATOM     17  C1  <0> d          -0.018   1.465   0.010  0.00  0.00     0.267 C 
ATOM     18  H6  <0> d           0.474  -0.330  -0.828  0.00  0.00     0.277 HD
ATOM     19  H22 <0> d           0.490  -0.338   0.820  0.00  0.00     0.277 HD
ENDBRANCH  15  16
ENDBRANCH   1  15
TORSDOF 4
