REMARK  3 active torsions:
REMARK  status: ('A' for Active; 'I' for Inactive)
REMARK    1  A    between atoms: C2_2  and  C8_14 
REMARK    2  A    between atoms: N1_3  and  N2_4 
REMARK       I    between atoms: N2_4  and  C3_5 
REMARK    3  A    between atoms: C3_5  and  C4_7 
ROOT
ATOM      1  N2  <0> d           0.024   0.035   2.340  0.00  0.00    -0.241 N 
ATOM      2  C3  <0> d           0.044  -0.645   3.503  0.00  0.00     0.291 C 
ATOM      3  O1  <0> d           0.060  -1.861   3.496  0.00  0.00    -0.264 OA
ATOM      4  H4  <0> d           0.011   1.005   2.345  0.00  0.00     0.192 HD
ENDROOT
BRANCH   1   5
ATOM      5  N1  <0> d           0.022  -0.659   1.122  0.00  0.00    -0.176 NA
ATOM      6  C2  <0> d           0.002  -0.004   0.002  0.00  0.00     0.061 C 
ATOM      7  C1  <0> d          -0.018   1.503   0.010  0.00  0.00     0.073 C 
BRANCH   6   8
ATOM      8  C8  <0> d          -0.000  -0.735  -1.279  0.00  0.00    -0.010 A 
ATOM      9  C13 <0> d           0.019  -2.131  -1.290  0.00  0.00     0.013 A 
ATOM     10  C12 <0> d           0.011  -2.808  -2.493  0.00  0.00     0.001 A 
ATOM     11  C11 <0> d          -0.004  -2.106  -3.685  0.00  0.00     0.000 A 
ATOM     12  C10 <0> d          -0.017  -0.723  -3.681  0.00  0.00     0.001 A 
ATOM     13  C9  <0> d          -0.015  -0.033  -2.487  0.00  0.00     0.013 A 
ENDBRANCH   6   8
ENDBRANCH   1   5
BRANCH   2  14
ATOM     14  C4  <0> d           0.046   0.088   4.789  0.00  0.00     0.143 A 
ATOM     15  N4  <0> d           0.028   1.419   4.799  0.00  0.00    -0.253 NA
ATOM     16  C7  <0> d           0.025   2.069   5.946  0.00  0.00     0.137 A 
ATOM     17  C6  <0> d           0.053   1.370   7.142  0.00  0.00     0.144 A 
ATOM     18  N3  <0> d           0.075   0.047   7.140  0.00  0.00    -0.207 N 
ATOM     19  C5  <0> d           0.073  -0.613   5.994  0.00  0.00     0.163 A 
ATOM     20  O2  <0> d           0.102  -0.662   8.365  0.00  0.00    -0.082 OA
ENDBRANCH   2  14
TORSDOF 3
