REMARK  5 active torsions:
REMARK  status: ('A' for Active; 'I' for Inactive)
REMARK    1  A    between atoms: C2_2  and  C3_4 
REMARK    2  A    between atoms: C6_7  and  N1_10 
REMARK    3  A    between atoms: N1_10  and  C9_11 
REMARK    4  A    between atoms: N2_13  and  S1_14 
REMARK    5  A    between atoms: S1_14  and  C11_17 
ROOT
ATOM      1  C9  <0> d           0.119  -4.247  -4.891  0.00  0.00     0.254 A 
ATOM      2  C10 <0> d          -0.890  -4.789  -5.877  0.00  0.00     0.160 A 
ATOM      3  N2  <0> d          -2.156  -4.530  -5.734  0.00  0.00    -0.142 NA
ATOM      4  N3  <0> d          -0.460  -5.540  -6.903  0.00  0.00    -0.339 N 
ATOM      5  C15 <0> d           0.817  -5.815  -7.070  0.00  0.00     0.060 A 
ATOM      6  C16 <0> d           1.236  -6.611  -8.165  0.00  0.00     0.032 A 
ATOM      7  C17 <0> d           2.545  -6.897  -8.341  0.00  0.00     0.002 A 
ATOM      8  C18 <0> d           3.547  -6.434  -7.472  0.00  0.00     0.002 A 
ATOM      9  C19 <0> d           3.257  -5.669  -6.397  0.00  0.00     0.031 A 
ATOM     10  C20 <0> d           1.854  -5.312  -6.136  0.00  0.00     0.057 A 
ATOM     11  N4  <0> d           1.537  -4.575  -5.109  0.00  0.00    -0.361 N 
ATOM     12  H17 <0> d           2.221  -4.249  -4.503  0.00  0.00     0.162 HD
ATOM     13  H18 <0> d          -1.105  -5.889  -7.537  0.00  0.00     0.167 HD
ENDROOT
BRANCH   1  14
ATOM     14  N1  <0> d          -0.005  -2.787  -4.879  0.00  0.00    -0.362 N 
ATOM     15  H9  <0> d           0.015  -2.292  -5.713  0.00  0.00     0.162 HD
BRANCH  14  16
ATOM     16  C6  <0> d          -0.152  -2.112  -3.675  0.00  0.00     0.029 A 
ATOM     17  C5  <0> d          -0.001  -2.797  -2.471  0.00  0.00     0.030 A 
ATOM     18  C4  <0> d          -0.144  -2.137  -1.284  0.00  0.00     0.017 A 
ATOM     19  C3  <0> d          -0.443  -0.769  -1.278  0.00  0.00     0.009 A 
ATOM     20  C8  <0> d          -0.599  -0.084  -2.491  0.00  0.00     0.017 A 
ATOM     21  C7  <0> d          -0.450  -0.751  -3.673  0.00  0.00     0.030 A 
BRANCH  19  22
ATOM     22  C2  <0> d          -0.598  -0.055  -0.005  0.00  0.00     0.155 C 
ATOM     23  C1  <0> d          -0.429  -0.793   1.298  0.00  0.00     0.096 C 
ATOM     24  O1  <0> d          -0.862   1.129  -0.002  0.00  0.00    -0.293 OA
ENDBRANCH  19  22
ENDBRANCH  14  16
ENDBRANCH   1  14
BRANCH   3  25
ATOM     25  S1  <0> d          -3.252  -5.130  -6.822  0.00  0.00     0.291 S 
ATOM     26  O2  <0> d          -2.981  -4.494  -8.064  0.00  0.00    -0.198 OA
ATOM     27  O3  <0> d          -3.242  -6.543  -6.671  0.00  0.00    -0.198 OA
BRANCH  25  28
ATOM     28  C11 <0> d          -4.846  -4.581  -6.312  0.00  0.00     0.122 A 
ATOM     29  S2  <0> d          -6.009  -5.371  -5.212  0.00  0.00    -0.088 SA
ATOM     30  C14 <0> d          -7.299  -4.138  -5.281  0.00  0.00     0.051 A 
ATOM     31  C13 <0> d          -6.768  -3.224  -6.130  0.00  0.00     0.009 A 
ATOM     32  C12 <0> d          -5.511  -3.451  -6.658  0.00  0.00     0.033 A 
ENDBRANCH  25  28
ENDBRANCH   3  25
TORSDOF 5
