REMARK  6 active torsions:
REMARK  status: ('A' for Active; 'I' for Inactive)
REMARK    1  A    between atoms: N1_6  and  C7_8 
REMARK    2  A    between atoms: C7_8  and  C8_9 
REMARK    3  A    between atoms: C8_9  and  S1_10 
REMARK    4  A    between atoms: S1_10  and  C9_13 
REMARK    5  A    between atoms: C9_13  and  C10_14 
REMARK    6  A    between atoms: C10_14  and  N2_15 
ROOT
ATOM      1  S1  <0> d           2.116  -4.586   4.035  0.00  0.00     0.147 S 
ATOM      2  O1  <0> d           3.505  -4.293   3.959  0.00  0.00    -0.228 OA
ATOM      3  O2  <0> d           1.371  -4.116   5.150  0.00  0.00    -0.228 OA
ENDROOT
BRANCH   1   4
ATOM      4  C8  <0> d           1.320  -3.989   2.519  0.00  0.00     0.168 C 
BRANCH   4   5
ATOM      5  C7  <0> d           1.413  -2.463   2.461  0.00  0.00     0.249 C 
BRANCH   5   6
ATOM      6  N1  <0> d           0.768  -1.979   1.233  0.00  0.00    -0.070 N 
ATOM      7  C5  <0> d           1.518  -2.460   0.066  0.00  0.00     0.235 C 
ATOM      8  C4  <0> d           0.805  -2.027  -1.217  0.00  0.00     0.028 C 
ATOM      9  C3  <0> d           0.721  -0.499  -1.257  0.00  0.00     0.007 C 
ATOM     10  C2  <0> d           0.002  -0.004   0.002  0.00  0.00     0.007 C 
ATOM     11  C1  <0> d          -0.019   1.526   0.010  0.00  0.00     0.011 C 
ATOM     12  C6  <0> d           0.744  -0.512   1.240  0.00  0.00     0.239 C 
ATOM     13  H33 <0> d          -0.177  -2.330   1.192  0.00  0.00     0.279 HD
ENDBRANCH   5   6
ENDBRANCH   4   5
ENDBRANCH   1   4
BRANCH   1  14
ATOM     14  C9  <0> d           1.903  -6.384   3.919  0.00  0.00     0.168 C 
BRANCH  14  15
ATOM     15  C10 <0> d           2.531  -7.052   5.144  0.00  0.00     0.249 C 
BRANCH  15  16
ATOM     16  N2  <0> d           2.358  -8.508   5.050  0.00  0.00    -0.070 N 
ATOM     17  C15 <0> d           3.063  -9.156   6.162  0.00  0.00     0.239 C 
ATOM     18  C14 <0> d           2.954 -10.676   6.023  0.00  0.00     0.007 C 
ATOM     19  C13 <0> d           1.477 -11.081   6.048  0.00  0.00     0.007 C 
ATOM     20  C16 <0> d           3.688 -11.350   7.184  0.00  0.00     0.011 C 
ATOM     21  C12 <0> d           0.737 -10.342   4.930  0.00  0.00     0.028 C 
ATOM     22  C11 <0> d           0.928  -8.834   5.109  0.00  0.00     0.235 C 
ATOM     23  H34 <0> d           2.739  -8.835   4.175  0.00  0.00     0.279 HD
ENDBRANCH  15  16
ENDBRANCH  14  15
ENDBRANCH   1  14
TORSDOF 6
