REMARK  5 active torsions:
REMARK  status: ('A' for Active; 'I' for Inactive)
REMARK    1  A    between atoms: C8_10  and  C10_14 
REMARK    2  A    between atoms: C9_11  and  O2_13 
REMARK    3  A    between atoms: C10_14  and  C11_15 
REMARK       I    between atoms: C11_15  and  N3_17 
REMARK    4  A    between atoms: N3_17  and  C12_18 
REMARK    5  A    between atoms: C13_21  and  C14_23 
ROOT
ATOM      1  C10 <0> d           2.479  -1.377   2.531  0.00  0.00     0.136 C 
ENDROOT
BRANCH   1   2
ATOM      2  C8  <0> d           3.076  -2.344   1.506  0.00  0.00     0.170 C 
ATOM      3  N1  <0> d           2.002  -2.936   0.706  0.00  0.00    -0.344 N 
ATOM      4  C7  <0> d           1.168  -2.167   0.003  0.00  0.00     0.254 C 
ATOM      5  H6  <0> d           1.896  -3.900   0.687  0.00  0.00     0.163 HD
ATOM      6  C5  <0> d           1.221  -0.701  -0.013  0.00  0.00     0.060 A 
ATOM      7  O1  <0> d           0.312  -2.715  -0.665  0.00  0.00    -0.268 OA
ATOM      8  C4  <0> d           2.421   0.020  -0.033  0.00  0.00     0.075 A 
ATOM      9  C6  <0> d           0.002  -0.004   0.002  0.00  0.00     0.019 A 
ATOM     10  C3  <0> d           2.377   1.423  -0.020  0.00  0.00     0.032 A 
ATOM     11  N2  <0> d           3.646  -0.565  -0.071  0.00  0.00    -0.226 NA
ATOM     12  C2  <0> d           1.172   2.085   0.002  0.00  0.00     0.002 A 
ATOM     13  C1  <0> d          -0.017   1.371   0.010  0.00  0.00     0.001 A 
ATOM     14  C9  <0> d           4.008  -1.601   0.591  0.00  0.00     0.162 C 
BRANCH  14  15
ATOM     15  O2  <0> d           5.274  -2.042   0.461  0.00  0.00    -0.346 OA
ATOM     16  H7  <0> d           5.814  -1.515  -0.144  0.00  0.00     0.219 HD
ENDBRANCH  14  15
ENDBRANCH   1   2
BRANCH   1  17
ATOM     17  C11 <0> d           1.630  -2.144   3.511  0.00  0.00     0.226 C 
ATOM     18  O3  <0> d           1.513  -3.347   3.401  0.00  0.00    -0.273 OA
ATOM     19  N3  <0> d           0.999  -1.495   4.510  0.00  0.00    -0.304 N 
ATOM     20  H21 <0> d           1.092  -0.533   4.597  0.00  0.00     0.171 HD
BRANCH  19  21
ATOM     21  C12 <0> d           0.216  -2.203   5.414  0.00  0.00     0.196 A 
ATOM     22  S1  <0> d          -0.664  -1.632   6.734  0.00  0.00    -0.033 SA
ATOM     23  C13 <0> d          -1.315  -3.211   7.261  0.00  0.00     0.105 A 
ATOM     24  N5  <0> d          -0.770  -4.002   6.358  0.00  0.00    -0.144 NA
ATOM     25  N4  <0> d          -0.029  -3.498   5.467  0.00  0.00    -0.123 NA
BRANCH  23  26
ATOM     26  C14 <0> d          -2.224  -3.545   8.415  0.00  0.00     0.047 C 
ATOM     27  C19 <0> d          -3.502  -4.199   7.885  0.00  0.00     0.011 C 
ATOM     28  C18 <0> d          -4.426  -4.538   9.056  0.00  0.00     0.001 C 
ATOM     29  C17 <0> d          -3.713  -5.505  10.004  0.00  0.00     0.000 C 
ATOM     30  C16 <0> d          -2.436  -4.852  10.534  0.00  0.00     0.001 C 
ATOM     31  C15 <0> d          -1.512  -4.513   9.362  0.00  0.00     0.011 C 
ENDBRANCH  23  26
ENDBRANCH  19  21
ENDBRANCH   1  17
TORSDOF 5
