REMARK  8 active torsions:
REMARK  status: ('A' for Active; 'I' for Inactive)
REMARK    1  A    between atoms: C2_2  and  S1_4 
REMARK    2  A    between atoms: S1_4  and  C4_7 
REMARK    3  A    between atoms: C5_8  and  O5_21 
REMARK    4  A    between atoms: C8_11  and  C10_14 
REMARK    5  A    between atoms: C10_14  and  C11_15 
REMARK    6  A    between atoms: C10_14  and  N1_18 
REMARK    7  A    between atoms: C11_15  and  C12_16 
REMARK    8  A    between atoms: N1_18  and  C13_19 
ROOT
ATOM      1  C4  <0> d          -0.003  -2.961   3.621  0.00  0.00     0.132 A 
ATOM      2  C5  <0> d           0.965  -2.750   4.592  0.00  0.00     0.092 A 
ATOM      3  C6  <0> d           0.670  -1.979   5.707  0.00  0.00     0.039 A 
ATOM      4  C7  <0> d          -0.587  -1.423   5.849  0.00  0.00     0.015 A 
ATOM      5  C8  <0> d          -1.551  -1.633   4.882  0.00  0.00     0.005 A 
ATOM      6  C9  <0> d          -1.258  -2.398   3.765  0.00  0.00     0.149 A 
ATOM      7  F1  <0> d          -2.201  -2.598   2.817  0.00  0.00    -0.204 F 
ENDROOT
BRANCH   5   8
ATOM      8  C10 <0> d          -2.921  -1.026   5.040  0.00  0.00     0.126 C 
BRANCH   8   9
ATOM      9  C11 <0> d          -3.038   0.209   4.144  0.00  0.00     0.099 C 
BRANCH   9  10
ATOM     10  C12 <0> d          -4.445   0.745   4.208  0.00  0.00     0.233 C 
ATOM     11  O3  <0> d          -4.639   1.897   4.512  0.00  0.00    -0.307 OA
ENDBRANCH   9  10
ENDBRANCH   8   9
BRANCH   8  12
ATOM     12  N1  <0> d          -3.123  -0.635   6.438  0.00  0.00    -0.359 N 
ATOM     13  H14 <0> d          -2.923   0.270   6.722  0.00  0.00     0.162 HD
BRANCH  12  14
ATOM     14  C13 <0> d          -3.588  -1.534   7.328  0.00  0.00     0.349 C 
ATOM     15  O4  <0> d          -3.838  -2.667   6.973  0.00  0.00    -0.284 OA
ENDBRANCH  12  14
ENDBRANCH   8  12
ENDBRANCH   5   8
BRANCH   1  16
ATOM     16  S1  <0> d           0.368  -3.940   2.204  0.00  0.00     0.184 S 
ATOM     17  O1  <0> d          -0.888  -4.450   1.777  0.00  0.00    -0.222 OA
ATOM     18  O2  <0> d           1.400  -4.819   2.630  0.00  0.00    -0.222 OA
BRANCH  16  19
ATOM     19  C2  <0> d           1.013  -2.765   0.982  0.00  0.00     0.105 C 
ATOM     20  C1  <0> d           2.263  -2.082   1.541  0.00  0.00     0.026 C 
ATOM     21  C3  <0> d           1.372  -3.512  -0.304  0.00  0.00     0.026 C 
ENDBRANCH  16  19
ENDBRANCH   1  16
BRANCH   2  22
ATOM     22  O5  <0> d           2.201  -3.298   4.451  0.00  0.00    -0.354 OA
ATOM     23  C14 <0> d           3.148  -3.038   5.489  0.00  0.00     0.210 C 
ENDBRANCH   2  22
TORSDOF 8
