REMARK  1 active torsions:
REMARK  status: ('A' for Active; 'I' for Inactive)
REMARK    1  A    between atoms: C6_6  and  C7_7 
ROOT
ATOM      1  C1  <0> d          -0.017   1.378   0.010  0.00  0.00     0.013 A 
ATOM      2  C2  <0> d           1.170   2.088   0.002  0.00  0.00     0.040 A 
ATOM      3  C3  <0> d           2.382   1.415  -0.013  0.00  0.00     0.102 A 
ATOM      4  C4  <0> d           2.401   0.025  -0.018  0.00  0.00     0.102 A 
ATOM      5  C5  <0> d           1.207  -0.681  -0.011  0.00  0.00     0.049 A 
ATOM      6  C6  <0> d           0.002  -0.004   0.002  0.00  0.00    -0.022 A 
ATOM      7  O2  <0> d           3.579  -0.656  -0.024  0.00  0.00    -0.346 OA
ATOM      8  C10 <0> d           4.746   0.081  -0.406  0.00  0.00     0.202 C 
ATOM      9  C11 <0> d           4.733   1.422   0.340  0.00  0.00     0.202 C 
ATOM     10  O3  <0> d           3.542   2.127  -0.024  0.00  0.00    -0.346 OA
ENDROOT
BRANCH   6  11
ATOM     11  C7  <0> d          -1.293  -0.774   0.009  0.00  0.00     0.226 A 
ATOM     12  N3  <0> d          -2.213  -0.128  -0.943  0.00  0.00    -0.293 N 
ATOM     13  N2  <0> d          -3.303   0.289  -0.538  0.00  0.00    -0.148 NA
ATOM     14  H10 <0> d          -1.966  -0.030  -1.875  0.00  0.00     0.183 HD
ATOM     15  C9  <0> d          -3.716   0.192   0.729  0.00  0.00     0.218 A 
ATOM     16  N1  <0> d          -2.996  -0.369   1.714  0.00  0.00    -0.299 N 
ATOM     17  S1  <0> d          -5.259   0.822   1.122  0.00  0.00    -0.037 SA
ATOM     18  C8  <0> d          -1.770  -0.880   1.446  0.00  0.00     0.252 A 
ATOM     19  H5  <0> d          -3.353  -0.409   2.615  0.00  0.00     0.171 HD
ATOM     20  O1  <0> d          -1.090  -1.393   2.308  0.00  0.00    -0.270 OA
ENDBRANCH   6  11
TORSDOF 1
