REMARK  4 active torsions:
REMARK  status: ('A' for Active; 'I' for Inactive)
REMARK    1  A    between atoms: C2_2  and  C3_3 
REMARK    2  A    between atoms: C3_3  and  C4_4 
REMARK    3  A    between atoms: C3_3  and  N1_9 
REMARK    4  A    between atoms: N1_9  and  C8_10 
ROOT
ATOM      1  N1  <0> d          -0.206  -0.014  -2.438  0.00  0.00    -0.053 N 
ATOM      2  H13 <0> d          -1.103  -0.452  -2.294  0.00  0.00     0.279 HD
ATOM      3  H15 <0> d          -0.323   0.988  -2.477  0.00  0.00     0.279 HD
ENDROOT
BRANCH   1   4
ATOM      4  C3  <0> d           0.691  -0.359  -1.327  0.00  0.00     0.226 C 
BRANCH   4   5
ATOM      5  C2  <0> d           0.140   0.227  -0.026  0.00  0.00     0.034 C 
ATOM      6  C1  <0> d           0.182   1.754  -0.096  0.00  0.00     0.007 C 
ENDBRANCH   4   5
BRANCH   4   7
ATOM      7  C4  <0> d           0.783  -1.859  -1.204  0.00  0.00     0.013 A 
ATOM      8  S1  <0> d          -0.506  -3.082  -1.372  0.00  0.00    -0.104 SA
ATOM      9  C7  <0> d           0.487  -4.536  -1.075  0.00  0.00     0.050 A 
ATOM     10  C6  <0> d           1.714  -4.000  -0.865  0.00  0.00     0.008 A 
ATOM     11  C5  <0> d           1.866  -2.627  -0.930  0.00  0.00     0.017 A 
ENDBRANCH   4   7
ENDBRANCH   1   4
BRANCH   1  12
ATOM     12  C8  <0> d           0.374  -0.489  -3.701  0.00  0.00     0.286 A 
ATOM     13  C11 <0> d           1.641   0.273  -4.026  0.00  0.00     0.255 A 
ATOM     14  N2  <0> d           1.473   0.927  -5.185  0.00  0.00    -0.296 N 
ATOM     15  O2  <0> d           2.644   0.289  -3.345  0.00  0.00    -0.271 OA
ATOM     16  C10 <0> d           0.274   0.752  -5.754  0.00  0.00     0.226 A 
ATOM     17  H14 <0> d           2.166   1.480  -5.580  0.00  0.00     0.171 HD
ATOM     18  C9  <0> d          -0.560  -0.163  -4.884  0.00  0.00     0.146 A 
ATOM     19  O1  <0> d          -0.086   1.247  -6.800  0.00  0.00    -0.273 OA
ENDBRANCH   1  12
TORSDOF 4
