REMARK  3 active torsions:
REMARK  status: ('A' for Active; 'I' for Inactive)
REMARK    1  A    between atoms: C5_5  and  N1_9 
REMARK    2  A    between atoms: C10_13  and  C16_23 
REMARK    3  A    between atoms: C11_15  and  C15_20 
ROOT
ATOM      1  N1  <0> d           0.059  -4.173  -0.022  0.00  0.00    -0.252 N 
ATOM      2  C8  <0> d           0.069  -4.926  -1.170  0.00  0.00     0.238 C 
ATOM      3  O1  <0> d           0.282  -4.548  -2.301  0.00  0.00    -0.272 OA
ATOM      4  C9  <0> d          -0.231  -6.267  -0.733  0.00  0.00     0.132 C 
ATOM      5  C10 <0> d          -0.090  -7.666  -1.174  0.00  0.00     0.258 C 
ATOM      6  N2  <0> d          -0.471  -8.427   0.066  0.00  0.00    -0.045 N 
ATOM      7  C11 <0> d          -0.255  -7.529   1.239  0.00  0.00     0.222 C 
ATOM      8  C12 <0> d           0.493  -6.312   0.671  0.00  0.00     0.141 C 
ATOM      9  C13 <0> d           0.075  -4.937   1.111  0.00  0.00     0.239 C 
ATOM     10  O2  <0> d          -0.195  -4.580   2.237  0.00  0.00    -0.272 OA
ATOM     11  C14 <0> d          -1.597  -7.119   1.848  0.00  0.00     0.059 C 
ATOM     12  H10 <0> d          -1.443  -8.696   0.016  0.00  0.00     0.279 HD
ATOM     13  H19 <0> d           0.107  -9.249   0.153  0.00  0.00     0.279 HD
ENDROOT
BRANCH   5  14
ATOM     14  C16 <0> d          -1.036  -7.971  -2.306  0.00  0.00     0.086 A 
ATOM     15  O5  <0> d          -2.344  -8.250  -2.162  0.00  0.00    -0.312 OA
ATOM     16  C23 <0> d          -2.922  -8.475  -3.359  0.00  0.00     0.086 A 
ATOM     17  C18 <0> d          -1.922  -8.341  -4.337  0.00  0.00     0.000 A 
ATOM     18  C22 <0> d          -4.216  -8.791  -3.752  0.00  0.00     0.038 A 
ATOM     19  C17 <0> d          -0.696  -8.009  -3.601  0.00  0.00     0.049 A 
ATOM     20  C19 <0> d          -2.231  -8.526  -5.684  0.00  0.00     0.014 A 
ATOM     21  C20 <0> d          -3.511  -8.837  -6.049  0.00  0.00     0.001 A 
ATOM     22  C21 <0> d          -4.503  -8.970  -5.088  0.00  0.00     0.003 A 
ENDBRANCH   5  14
BRANCH   7  23
ATOM     23  C15 <0> d           0.600  -8.216   2.272  0.00  0.00     0.211 C 
ATOM     24  O3  <0> d           0.981  -9.359   2.085  0.00  0.00    -0.646 OA
ATOM     25  O4  <0> d           0.910  -7.630   3.295  0.00  0.00    -0.646 OA
ENDBRANCH   7  23
BRANCH   1  26
ATOM     26  C5  <0> d           0.040  -2.771  -0.013  0.00  0.00     0.047 A 
ATOM     27  C4  <0> d           0.025  -2.068  -1.211  0.00  0.00     0.031 A 
ATOM     28  C3  <0> d           0.006  -0.688  -1.200  0.00  0.00     0.011 A 
ATOM     29  C2  <0> d           0.002  -0.004   0.002  0.00  0.00    -0.040 A 
ATOM     30  C1  <0> d          -0.018   1.503   0.010  0.00  0.00     0.050 C 
ATOM     31  C7  <0> d           0.023  -0.701   1.197  0.00  0.00     0.042 A 
ATOM     32  C6  <0> d           0.037  -2.084   1.192  0.00  0.00     0.054 A 
ATOM     33 Cl1  <0> d           0.025   0.161   2.704  0.00  0.00    -0.084 Cl
ENDBRANCH   1  26
TORSDOF 3
