REMARK  3 active torsions:
REMARK  status: ('A' for Active; 'I' for Inactive)
REMARK    1  A    between atoms: C2_2  and  N1_3 
REMARK    2  A    between atoms: C5_7  and  N2_8 
REMARK    3  A    between atoms: N2_8  and  N3_9 
ROOT
ATOM      1  N1  <0> d           0.711  -0.489   1.189  0.00  0.00    -0.298 N 
ATOM      2  C3  <0> d           2.017  -0.684   1.134  0.00  0.00     0.267 A 
ATOM      3  O1  <0> d           2.640  -0.465   0.110  0.00  0.00    -0.266 OA
ATOM      4  C4  <0> d           2.675  -1.156   2.306  0.00  0.00     0.092 A 
ATOM      5  C5  <0> d           3.987  -1.431   2.507  0.00  0.00     0.132 C 
ATOM      6  S1  <0> d           1.300  -1.287   3.440  0.00  0.00    -0.053 SA
ATOM      7  C8  <0> d           0.020  -0.727   2.326  0.00  0.00     0.148 A 
ATOM      8  S2  <0> d          -1.656  -0.540   2.623  0.00  0.00    -0.052 SA
ENDROOT
BRANCH   5   9
ATOM      9  N2  <0> d           4.413  -1.880   3.727  0.00  0.00    -0.302 N 
ATOM     10  H7  <0> d           3.776  -2.002   4.448  0.00  0.00     0.186 HD
BRANCH   9  11
ATOM     11  N3  <0> d           5.769  -2.164   3.934  0.00  0.00    -0.240 N 
ATOM     12  C7  <0> d           6.343  -2.613   5.077  0.00  0.00     0.257 A 
ATOM     13  N5  <0> d           7.620  -2.751   4.843  0.00  0.00    -0.142 NA
ATOM     14  N4  <0> d           7.877  -2.407   3.631  0.00  0.00    -0.142 NA
ATOM     15  C6  <0> d           6.775  -2.040   3.035  0.00  0.00     0.257 A 
ENDBRANCH   9  11
ENDBRANCH   5   9
BRANCH   1  16
ATOM     16  C2  <0> d           0.002  -0.004   0.002  0.00  0.00     0.129 C 
ATOM     17  C1  <0> d          -0.019   1.526   0.010  0.00  0.00     0.027 C 
ENDBRANCH   1  16
TORSDOF 3
