REMARK  5 active torsions:
REMARK  status: ('A' for Active; 'I' for Inactive)
REMARK    1  A    between atoms: C7_7  and  C8_8 
REMARK    2  A    between atoms: C8_8  and  S1_9 
REMARK    3  A    between atoms: S1_9  and  C9_10 
REMARK    4  A    between atoms: C10_13  and  C11_16 
REMARK    5  A    between atoms: N3_14  and  N4_15 
ROOT
ATOM      1  C9  <0> d          -1.513   1.192   4.568  0.00  0.00     0.206 A 
ATOM      2  N1  <0> d          -0.385   1.547   5.141  0.00  0.00    -0.121 NA
ATOM      3  N2  <0> d          -0.624   2.168   6.240  0.00  0.00    -0.127 NA
ATOM      4  C10 <0> d          -1.919   2.248   6.437  0.00  0.00     0.179 A 
ATOM      5  N3  <0> d          -2.529   1.630   5.369  0.00  0.00    -0.235 N 
ENDROOT
BRANCH   1   6
ATOM      6  S1  <0> d          -1.684   0.321   3.046  0.00  0.00    -0.084 SA
BRANCH   6   7
ATOM      7  C8  <0> d           0.025   0.045   2.504  0.00  0.00     0.121 C 
BRANCH   7   8
ATOM      8  C7  <0> d           0.023  -0.702   1.195  0.00  0.00    -0.043 A 
ATOM      9  C2  <0> d           0.002  -0.004   0.002  0.00  0.00    -0.055 A 
ATOM     10  C1  <0> d          -0.018   1.503   0.010  0.00  0.00     0.049 C 
ATOM     11  C3  <0> d           0.006  -0.689  -1.199  0.00  0.00     0.007 A 
ATOM     12  C4  <0> d           0.025  -2.071  -1.207  0.00  0.00     0.001 A 
ATOM     13  C5  <0> d           0.040  -2.768  -0.013  0.00  0.00     0.001 A 
ATOM     14  C6  <0> d           0.037  -2.084   1.188  0.00  0.00     0.008 A 
ENDBRANCH   7   8
ENDBRANCH   6   7
ENDBRANCH   1   6
BRANCH   5  15
ATOM     15  N4  <0> d          -3.870   1.483   5.156  0.00  0.00    -0.239 NA
ATOM     16  H10 <0> d          -4.210   0.626   5.566  0.00  0.00     0.143 HD
ATOM     17  H11 <0> d          -4.381   2.279   5.506  0.00  0.00     0.143 HD
ENDBRANCH   5  15
BRANCH   4  18
ATOM     18  C11 <0> d          -2.596   2.886   7.586  0.00  0.00     0.014 A 
ATOM     19  C16 <0> d          -1.888   3.743   8.429  0.00  0.00     0.034 A 
ATOM     20  C15 <0> d          -2.527   4.340   9.497  0.00  0.00     0.011 A 
ATOM     21  C14 <0> d          -3.865   4.080   9.739  0.00  0.00     0.019 A 
ATOM     22 Br1  <0> d          -1.572   5.509  10.635  0.00  0.00    -0.051 Br
ATOM     23  C13 <0> d          -4.571   3.226   8.911  0.00  0.00     0.002 A 
ATOM     24  C12 <0> d          -3.945   2.628   7.837  0.00  0.00     0.015 A 
ENDBRANCH   4  18
TORSDOF 5
