REMARK  4 active torsions:
REMARK  status: ('A' for Active; 'I' for Inactive)
REMARK    1  A    between atoms: C2_2  and  C3_3 
REMARK    2  A    between atoms: C2_2  and  S1_18 
REMARK       I    between atoms: C3_3  and  N1_5 
REMARK    3  A    between atoms: S1_18  and  C14_19 
REMARK    4  A    between atoms: N6_23  and  C15_24 
ROOT
ATOM      1  C3  <0> d          -6.098   3.646   1.947  0.00  0.00     0.239 C 
ATOM      2  O1  <0> d          -5.252   4.513   2.003  0.00  0.00    -0.272 OA
ATOM      3  N1  <0> d          -7.375   3.927   2.276  0.00  0.00    -0.297 N 
ATOM      4  C4  <0> d          -7.713   5.144   2.890  0.00  0.00     0.065 A 
ATOM      5  C5  <0> d          -6.814   5.808   3.704  0.00  0.00     0.032 A 
ATOM      6  C6  <0> d          -7.179   7.003   4.298  0.00  0.00     0.002 A 
ATOM      7  C7  <0> d          -8.438   7.531   4.080  0.00  0.00     0.002 A 
ATOM      8  C8  <0> d          -9.345   6.875   3.256  0.00  0.00     0.032 A 
ATOM      9  C9  <0> d          -8.986   5.676   2.660  0.00  0.00     0.062 A 
ATOM     10  N2  <0> d          -9.883   4.991   1.833  0.00  0.00    -0.323 N 
ATOM     11  C10 <0> d          -9.655   3.712   1.481  0.00  0.00     0.250 C 
ATOM     12  O2  <0> d         -10.424   3.152   0.728  0.00  0.00    -0.270 OA
ATOM     13  C11 <0> d          -8.456   2.967   2.010  0.00  0.00     0.114 C 
ATOM     14  C12 <0> d          -7.989   1.945   0.972  0.00  0.00     0.049 C 
ATOM     15  C13 <0> d          -8.832   2.247   3.307  0.00  0.00     0.049 C 
ATOM     16  H9  <0> d         -10.678   5.443   1.510  0.00  0.00     0.169 HD
ENDROOT
BRANCH   1  17
ATOM     17  C2  <0> d          -5.722   2.254   1.509  0.00  0.00     0.144 C 
ATOM     18  C1  <0> d          -5.882   1.289   2.686  0.00  0.00     0.031 C 
BRANCH  17  19
ATOM     19  S1  <0> d          -4.001   2.242   0.949  0.00  0.00    -0.074 SA
BRANCH  19  20
ATOM     20  C14 <0> d          -3.880   0.582   0.370  0.00  0.00     0.215 A 
ATOM     21  N6  <0> d          -2.780  -0.007  -0.177  0.00  0.00    -0.188 N 
ATOM     22  N5  <0> d          -3.178  -1.323  -0.470  0.00  0.00    -0.038 NA
ATOM     23  N4  <0> d          -4.410  -1.431  -0.110  0.00  0.00    -0.022 NA
ATOM     24  N3  <0> d          -4.834  -0.323   0.381  0.00  0.00    -0.101 NA
BRANCH  21  25
ATOM     25  C15 <0> d          -1.522   0.572  -0.396  0.00  0.00     0.065 A 
ATOM     26  C20 <0> d          -0.371  -0.190  -0.252  0.00  0.00     0.074 A 
ATOM     27  C19 <0> d           0.868   0.383  -0.474  0.00  0.00     0.118 A 
ATOM     28  C18 <0> d           0.960   1.717  -0.834  0.00  0.00     0.042 A 
ATOM     29  F1  <0> d           1.989  -0.360  -0.341  0.00  0.00    -0.206 F 
ATOM     30  C17 <0> d          -0.185   2.479  -0.972  0.00  0.00     0.005 A 
ATOM     31  C16 <0> d          -1.425   1.911  -0.751  0.00  0.00     0.032 A 
ENDBRANCH  21  25
ENDBRANCH  19  20
ENDBRANCH  17  19
ENDBRANCH   1  17
TORSDOF 4
