REMARK  4 active torsions:
REMARK  status: ('A' for Active; 'I' for Inactive)
REMARK    1  A    between atoms: C2_2  and  C4_4 
REMARK    2  A    between atoms: C9_9  and  O1_10 
REMARK    3  A    between atoms: O1_10  and  C10_11 
REMARK    4  A    between atoms: C18_20  and  N1_21 
ROOT
ATOM      1  C10 <0> d           3.683   3.521  -0.501  0.00  0.00     0.188 C 
ATOM      2  C11 <0> d           2.696   4.146   0.493  0.00  0.00     0.210 C 
ATOM      3  O2  <0> d           1.417   3.542   0.297  0.00  0.00    -0.348 OA
ATOM      4  C12 <0> d           1.356   2.186   0.250  0.00  0.00     0.077 A 
ATOM      5  C13 <0> d           0.120   1.570   0.426  0.00  0.00     0.037 A 
ATOM      6  C14 <0> d           0.017   0.195   0.376  0.00  0.00     0.003 A 
ATOM      7  C15 <0> d           1.143  -0.575   0.149  0.00  0.00     0.001 A 
ATOM      8  C16 <0> d           2.371   0.033  -0.024  0.00  0.00     0.012 A 
ATOM      9  C17 <0> d           2.482   1.413   0.028  0.00  0.00     0.008 A 
ATOM     10  C18 <0> d           3.841   2.039  -0.156  0.00  0.00     0.250 C 
ENDROOT
BRANCH   1  11
ATOM     11  O1  <0> d           3.177   3.655  -1.831  0.00  0.00    -0.341 OA
BRANCH  11  12
ATOM     12  C9  <0> d           3.437   4.822  -2.476  0.00  0.00     0.076 A 
ATOM     13  C4  <0> d           3.071   4.978  -3.805  0.00  0.00    -0.021 A 
ATOM     14  C5  <0> d           3.337   6.166  -4.458  0.00  0.00     0.010 A 
ATOM     15  C6  <0> d           3.967   7.198  -3.789  0.00  0.00     0.001 A 
ATOM     16  C7  <0> d           4.334   7.045  -2.465  0.00  0.00     0.003 A 
ATOM     17  C8  <0> d           4.065   5.862  -1.805  0.00  0.00     0.037 A 
BRANCH  13  18
ATOM     18  C2  <0> d           2.384   3.853  -4.535  0.00  0.00     0.013 C 
ATOM     19  C1  <0> d           1.011   4.324  -5.019  0.00  0.00     0.015 C 
ATOM     20  C3  <0> d           3.232   3.431  -5.736  0.00  0.00     0.015 C 
ENDBRANCH  13  18
ENDBRANCH  11  12
ENDBRANCH   1  11
BRANCH  10  21
ATOM     21  N1  <0> d           4.550   1.355  -1.246  0.00  0.00    -0.068 N 
ATOM     22  H20 <0> d           4.663   0.289  -0.998  0.00  0.00     0.275 HD
ATOM     23  H21 <0> d           5.544   1.809  -1.378  0.00  0.00     0.275 HD
ATOM     24  H22 <0> d           3.975   1.456  -2.178  0.00  0.00     0.275 HD
ENDBRANCH  10  21
TORSDOF 4
