REMARK  6 active torsions:
REMARK  status: ('A' for Active; 'I' for Inactive)
REMARK    1  A    between atoms: N2_10  and  C10_13 
REMARK    2  A    between atoms: C10_13  and  C11_14 
REMARK    3  A    between atoms: C11_14  and  C12_15 
REMARK       I    between atoms: C12_15  and  N3_17 
REMARK    4  A    between atoms: N3_17  and  N4_18 
REMARK       I    between atoms: N4_18  and  C13_19 
REMARK    5  A    between atoms: C13_19  and  C14_21 
REMARK    6  A    between atoms: N5_24  and  C17_26 
ROOT
ATOM      1  C12 <0> d          -1.325  -3.684   6.712  0.00  0.00     0.237 C 
ATOM      2  O2  <0> d          -0.266  -3.943   7.243  0.00  0.00    -0.272 OA
ATOM      3  N3  <0> d          -2.482  -4.005   7.324  0.00  0.00    -0.267 N 
ATOM      4  H12 <0> d          -3.329  -3.798   6.899  0.00  0.00     0.190 HD
ENDROOT
BRANCH   3   5
ATOM      5  N4  <0> d          -2.461  -4.637   8.574  0.00  0.00    -0.262 N 
ATOM      6  C13 <0> d          -3.618  -4.957   9.187  0.00  0.00     0.293 C 
ATOM      7  O3  <0> d          -4.680  -4.698   8.654  0.00  0.00    -0.264 OA
ATOM      8  H13 <0> d          -1.614  -4.843   8.999  0.00  0.00     0.190 HD
BRANCH   6   9
ATOM      9  C14 <0> d          -3.596  -5.623  10.503  0.00  0.00     0.184 A 
ATOM     10  N6  <0> d          -2.523  -5.962  11.192  0.00  0.00    -0.159 NA
ATOM     11  N5  <0> d          -2.864  -6.520  12.298  0.00  0.00    -0.242 N 
ATOM     12  C16 <0> d          -4.220  -6.587  12.390  0.00  0.00     0.161 A 
ATOM     13  C15 <0> d          -4.724  -6.024  11.263  0.00  0.00     0.160 A 
ATOM     14  O4  <0> d          -6.036  -5.876  10.932  0.00  0.00    -0.188 OA
BRANCH  11  15
ATOM     15  C17 <0> d          -1.969  -6.996  13.265  0.00  0.00     0.058 A 
ATOM     16  C22 <0> d          -0.600  -6.875  13.066  0.00  0.00     0.031 A 
ATOM     17  C21 <0> d           0.280  -7.340  14.024  0.00  0.00     0.002 A 
ATOM     18  C20 <0> d          -0.202  -7.936  15.175  0.00  0.00     0.000 A 
ATOM     19  C19 <0> d          -1.565  -8.063  15.374  0.00  0.00     0.002 A 
ATOM     20  C18 <0> d          -2.449  -7.594  14.422  0.00  0.00     0.031 A 
ENDBRANCH  11  15
ENDBRANCH   6   9
ENDBRANCH   3   5
BRANCH   1  21
ATOM     21  C11 <0> d          -1.348  -3.004   5.367  0.00  0.00     0.125 C 
BRANCH  21  22
ATOM     22  C10 <0> d           0.087  -2.754   4.898  0.00  0.00     0.142 C 
BRANCH  22  23
ATOM     23  N2  <0> d           0.065  -2.093   3.591  0.00  0.00    -0.307 N 
ATOM     24  C8  <0> d           0.045  -0.736   3.523  0.00  0.00     0.213 A 
ATOM     25  N1  <0> d           0.025  -0.077   2.404  0.00  0.00    -0.242 NA
ATOM     26  C7  <0> d           0.023  -0.712   1.205  0.00  0.00     0.079 A 
ATOM     27  C2  <0> d           0.002  -0.004   0.002  0.00  0.00    -0.032 A 
ATOM     28  C6  <0> d           0.037  -2.124   1.177  0.00  0.00     0.061 A 
ATOM     29  C1  <0> d          -0.018   1.503   0.010  0.00  0.00     0.050 C 
ATOM     30  C3  <0> d           0.006  -0.689  -1.192  0.00  0.00     0.009 A 
ATOM     31  C4  <0> d           0.025  -2.078  -1.216  0.00  0.00     0.002 A 
ATOM     32  C5  <0> d           0.040  -2.798  -0.042  0.00  0.00     0.019 A 
ATOM     33  C9  <0> d           0.053  -2.840   2.462  0.00  0.00     0.261 A 
ATOM     34  O1  <0> d           0.069  -4.056   2.508  0.00  0.00    -0.267 OA
ENDBRANCH  22  23
ENDBRANCH  21  22
ENDBRANCH   1  21
TORSDOF 6
