REMARK  7 active torsions:
REMARK  status: ('A' for Active; 'I' for Inactive)
REMARK    1  A    between atoms: C2_2  and  N1_3 
REMARK    2  A    between atoms: N1_3  and  C3_4 
REMARK    3  A    between atoms: C6_8  and  N4_10 
REMARK    4  A    between atoms: N4_10  and  C7_11 
REMARK    5  A    between atoms: C10_14  and  N5_17 
REMARK    6  A    between atoms: N5_17  and  S1_18 
REMARK    7  A    between atoms: S1_18  and  C13_21 
ROOT
ATOM      1  C7  <0> d           2.653  -5.926   3.444  0.00  0.00     0.033 A 
ATOM      2  C8  <0> d           2.244  -7.042   2.726  0.00  0.00     0.032 A 
ATOM      3  C9  <0> d           2.329  -8.298   3.293  0.00  0.00     0.032 A 
ATOM      4  C10 <0> d           2.825  -8.445   4.582  0.00  0.00     0.042 A 
ATOM      5  C11 <0> d           3.235  -7.329   5.300  0.00  0.00     0.032 A 
ATOM      6  C12 <0> d           3.154  -6.074   4.731  0.00  0.00     0.032 A 
ENDROOT
BRANCH   1   7
ATOM      7  N4  <0> d           2.566  -4.652   2.868  0.00  0.00    -0.340 N 
ATOM      8  H8  <0> d           3.217  -3.971   3.098  0.00  0.00     0.167 HD
BRANCH   7   9
ATOM      9  C6  <0> d           1.550  -4.365   1.971  0.00  0.00     0.149 A 
ATOM     10  C5  <0> d           1.524  -3.142   1.297  0.00  0.00     0.076 A 
ATOM     11  C4  <0> d           0.492  -2.899   0.412  0.00  0.00     0.026 A 
ATOM     12  N2  <0> d          -0.436  -3.826   0.228  0.00  0.00    -0.194 N 
ATOM     13  C21 <0> d           0.423  -1.593  -0.338  0.00  0.00     0.069 C 
ATOM     14  C3  <0> d          -0.387  -4.979   0.881  0.00  0.00     0.702 A 
ATOM     15  H26 <0> d          -1.162  -3.660  -0.393  0.00  0.00     0.184 HD
ATOM     16  N3  <0> d           0.583  -5.248   1.742  0.00  0.00    -0.047 NA
BRANCH  14  17
ATOM     17  N1  <0> d          -1.375  -5.922   0.661  0.00  0.00    -0.225 N 
ATOM     18  H6  <0> d          -1.353  -6.768   1.135  0.00  0.00     0.177 HD
BRANCH  17  19
ATOM     19  C2  <0> d          -2.456  -5.642  -0.288  0.00  0.00     0.134 C 
ATOM     20  C1  <0> d          -3.408  -6.839  -0.343  0.00  0.00     0.027 C 
ENDBRANCH  17  19
ENDBRANCH  14  17
ENDBRANCH   7   9
ENDBRANCH   1   7
BRANCH   4  21
ATOM     21  N5  <0> d           2.911  -9.718   5.158  0.00  0.00    -0.281 N 
ATOM     22  H13 <0> d           2.164 -10.333   5.088  0.00  0.00     0.179 HD
BRANCH  21  23
ATOM     23  S1  <0> d           4.288 -10.173   5.958  0.00  0.00     0.263 S 
ATOM     24  O1  <0> d           4.091 -11.518   6.371  0.00  0.00    -0.200 OA
ATOM     25  O2  <0> d           5.381  -9.780   5.140  0.00  0.00    -0.200 OA
BRANCH  23  26
ATOM     26  C13 <0> d           4.382  -9.204   7.426  0.00  0.00     0.086 A 
ATOM     27  C18 <0> d           3.435  -9.361   8.420  0.00  0.00    -0.039 A 
ATOM     28  C17 <0> d           3.511  -8.603   9.574  0.00  0.00     0.009 A 
ATOM     29  C19 <0> d           2.321 -10.361   8.248  0.00  0.00     0.050 C 
ATOM     30  C16 <0> d           4.530  -7.682   9.729  0.00  0.00     0.007 A 
ATOM     31  C15 <0> d           5.475  -7.521   8.733  0.00  0.00    -0.060 A 
ATOM     32  C14 <0> d           5.401  -8.282   7.581  0.00  0.00     0.032 A 
ATOM     33  C20 <0> d           6.585  -6.517   8.902  0.00  0.00     0.048 C 
ENDBRANCH  23  26
ENDBRANCH  21  23
ENDBRANCH   4  21
TORSDOF 7
