REMARK  5 active torsions:
REMARK  status: ('A' for Active; 'I' for Inactive)
REMARK    1  A    between atoms: C4_5  and  C6_7 
REMARK    2  A    between atoms: C6_7  and  N2_8 
REMARK    3  A    between atoms: C9_11  and  N3_14 
REMARK    4  A    between atoms: N3_14  and  C12_15 
REMARK    5  A    between atoms: C13_16  and  N6_26 
ROOT
ATOM      1  N3  <0> d           2.618  -4.588  -4.923  0.00  0.00    -0.368 N 
ATOM      2  H16 <0> d           2.337  -3.964  -5.611  0.00  0.00     0.161 HD
ENDROOT
BRANCH   1   3
ATOM      3  C9  <0> d           2.582  -4.189  -3.514  0.00  0.00     0.086 C 
ATOM      4  C8  <0> d           2.686  -2.665  -3.410  0.00  0.00     0.053 C 
ATOM      5  C7  <0> d           2.568  -2.250  -1.942  0.00  0.00     0.237 C 
ATOM      6  N2  <0> d           1.275  -2.691  -1.407  0.00  0.00    -0.066 N 
ATOM      7  C11 <0> d           1.197  -4.157  -1.438  0.00  0.00     0.237 C 
ATOM      8  H21 <0> d           0.531  -2.304  -1.970  0.00  0.00     0.280 HD
ATOM      9  C10 <0> d           1.262  -4.645  -2.886  0.00  0.00     0.053 C 
BRANCH   6  10
ATOM     10  C6  <0> d           1.134  -2.223  -0.022  0.00  0.00     0.293 C 
BRANCH  10  11
ATOM     11  C4  <0> d           1.090  -0.717  -0.003  0.00  0.00     0.060 A 
ATOM     12  N1  <0> d           2.217  -0.032   0.011  0.00  0.00    -0.264 NA
ATOM     13  C3  <0> d           2.227   1.286   0.027  0.00  0.00     0.117 A 
ATOM     14  C2  <0> d           1.045   2.002   0.030  0.00  0.00     0.019 A 
ATOM     15  C1  <0> d          -0.160   1.317   0.016  0.00  0.00     0.003 A 
ATOM     16  C5  <0> d          -0.131  -0.069  -0.001  0.00  0.00     0.029 A 
ENDBRANCH  10  11
ENDBRANCH   6  10
ENDBRANCH   1   3
BRANCH   1  17
ATOM     17  C12 <0> d           3.051  -5.854  -5.273  0.00  0.00     0.165 A 
ATOM     18  N5  <0> d           3.538  -6.673  -4.344  0.00  0.00    -0.211 NA
ATOM     19  C19 <0> d           3.957  -7.897  -4.655  0.00  0.00     0.139 A 
ATOM     20  N4  <0> d           3.910  -8.349  -5.944  0.00  0.00    -0.271 N 
ATOM     21  C18 <0> d           4.458  -8.736  -3.641  0.00  0.00     0.051 A 
ATOM     22  C14 <0> d           3.430  -7.553  -6.923  0.00  0.00     0.290 A 
ATOM     23  C15 <0> d           4.346  -9.603  -6.252  0.00  0.00     0.102 A 
ATOM     24  C13 <0> d           2.986  -6.273  -6.599  0.00  0.00     0.216 A 
ATOM     25  O1  <0> d           3.386  -7.950  -8.078  0.00  0.00    -0.265 OA
ATOM     26  C16 <0> d           4.832 -10.421  -5.292  0.00  0.00     0.018 A 
ATOM     27  C17 <0> d           4.891  -9.987  -3.960  0.00  0.00     0.005 A 
BRANCH  24  28
ATOM     28  N6  <0> d           2.453  -5.373  -7.648  0.00  0.00    -0.106 N 
ATOM     29  O2  <0> d           2.167  -4.231  -7.376  0.00  0.00    -0.531 OA
ATOM     30  O3  <0> d           2.304  -5.782  -8.776  0.00  0.00    -0.531 OA
ENDBRANCH  24  28
ENDBRANCH   1  17
TORSDOF 5
