REMARK  3 active torsions:
REMARK  status: ('A' for Active; 'I' for Inactive)
REMARK    1  A    between atoms: C6_8  and  N3_13 
REMARK    2  A    between atoms: C7_9  and  C8_10 
REMARK       I    between atoms: C8_10  and  N2_12 
REMARK       I    between atoms: N3_13  and  C9_14 
REMARK    3  A    between atoms: C9_14  and  C10_16 
ROOT
ATOM      1  C1  <0> d          -0.018   1.465   0.010  0.00  0.00     0.270 C 
ATOM      2  N1  <0> d           0.002  -0.004   0.002  0.00  0.00    -0.070 N 
ATOM      3  C2  <0> d          -1.376  -0.512   0.008  0.00  0.00     0.239 C 
ATOM      4  C3  <0> d          -1.389  -2.010  -0.313  0.00  0.00     0.068 C 
ATOM      5  C4  <0> d          -0.409  -2.698   0.626  0.00  0.00    -0.023 A 
ATOM      6  C5  <0> d           0.522  -1.973   1.288  0.00  0.00     0.018 A 
ATOM      7  S1  <0> d           1.416  -3.159   2.244  0.00  0.00    -0.074 SA
ATOM      8  C6  <0> d           0.605  -4.560   1.793  0.00  0.00     0.093 A 
ATOM      9  C7  <0> d          -0.363  -4.120   0.903  0.00  0.00     0.073 A 
ATOM     10  C18 <0> d           0.715  -0.492   1.197  0.00  0.00     0.281 C 
ATOM     11  H20 <0> d           0.475  -0.329  -0.828  0.00  0.00     0.279 HD
ENDROOT
BRANCH   8  12
ATOM     12  N3  <0> d           0.848  -5.858   2.215  0.00  0.00    -0.318 N 
ATOM     13  C9  <0> d           1.839  -6.107   3.094  0.00  0.00     0.254 C 
ATOM     14  O2  <0> d           2.519  -5.196   3.515  0.00  0.00    -0.270 OA
ATOM     15  H11 <0> d           0.305  -6.588   1.878  0.00  0.00     0.169 HD
BRANCH  13  16
ATOM     16  C10 <0> d           2.103  -7.518   3.552  0.00  0.00     0.245 C 
ATOM     17  O4  <0> d           3.260  -7.543   4.396  0.00  0.00    -0.331 OA
ATOM     18  C17 <0> d           3.459  -8.674   5.127  0.00  0.00     0.103 A 
ATOM     19  C12 <0> d           2.426  -9.582   5.329  0.00  0.00     0.102 A 
ATOM     20  C16 <0> d           4.708  -8.917   5.679  0.00  0.00     0.040 A 
ATOM     21  O3  <0> d           1.194  -9.366   4.793  0.00  0.00    -0.345 OA
ATOM     22  C13 <0> d           2.650 -10.724   6.085  0.00  0.00     0.039 A 
ATOM     23  C11 <0> d           0.905  -8.032   4.362  0.00  0.00     0.218 C 
ATOM     24  C14 <0> d           3.896 -10.958   6.633  0.00  0.00     0.003 A 
ATOM     25  C15 <0> d           4.924 -10.057   6.430  0.00  0.00     0.003 A 
ENDBRANCH  13  16
ENDBRANCH   8  12
BRANCH   9  26
ATOM     26  C8  <0> d          -1.299  -5.053   0.268  0.00  0.00     0.252 C 
ATOM     27  O1  <0> d          -1.013  -5.574  -0.794  0.00  0.00    -0.268 OA
ATOM     28  N2  <0> d          -2.476  -5.334   0.861  0.00  0.00    -0.366 N 
ATOM     29  H9  <0> d          -2.704  -4.919   1.707  0.00  0.00     0.159 HD
ATOM     30  H10 <0> d          -3.096  -5.952   0.441  0.00  0.00     0.159 HD
ENDBRANCH   9  26
TORSDOF 3
