REMARK  2 active torsions:
REMARK  status: ('A' for Active; 'I' for Inactive)
REMARK    1  A    between atoms: C2_2  and  C8_14 
REMARK    2  A    between atoms: C8_14  and  C9_16 
ROOT
ATOM      1  C1  <0> d          -0.017   1.376   0.010  0.00  0.00     0.048 A 
ATOM      2  C2  <0> d           1.190   2.087   0.002  0.00  0.00     0.030 A 
ATOM      3  C3  <0> d           2.408   1.394  -0.013  0.00  0.00     0.027 A 
ATOM      4  C4  <0> d           2.420   0.017  -0.021  0.00  0.00     0.052 A 
ATOM      5  C5  <0> d           1.223  -0.689  -0.014  0.00  0.00     0.064 A 
ATOM      6  C6  <0> d           0.002  -0.004   0.002  0.00  0.00     0.064 A 
ATOM      7  N1  <0> d          -1.001  -0.972   0.006  0.00  0.00    -0.306 N 
ATOM      8  H1  <0> d          -1.956  -0.802   0.016  0.00  0.00     0.170 HD
ATOM      9  C7  <0> d          -0.416  -2.185  -0.006  0.00  0.00     0.325 A 
ATOM     10  O1  <0> d          -1.009  -3.248  -0.008  0.00  0.00    -0.247 OA
ATOM     11  N2  <0> d           0.922  -2.044  -0.019  0.00  0.00    -0.306 N 
ATOM     12  H2  <0> d           1.568  -2.768  -0.030  0.00  0.00     0.170 HD
ATOM     13 Br1  <0> d           4.039   2.352  -0.024  0.00  0.00    -0.050 Br
ENDROOT
BRANCH   2  14
ATOM     14  C8  <0> d           1.178   3.555   0.009  0.00  0.00     0.170 C 
ATOM     15  O2  <0> d           2.224   4.169   0.003  0.00  0.00    -0.291 OA
BRANCH  14  16
ATOM     16  C9  <0> d          -0.132   4.298   0.025  0.00  0.00     0.169 C 
ATOM     17 Br2  <0> d           0.212   6.234   0.032  0.00  0.00    -0.088 Br
ENDBRANCH  14  16
ENDBRANCH   2  14
TORSDOF 2
