REMARK  8 active torsions:
REMARK  status: ('A' for Active; 'I' for Inactive)
REMARK    1  A    between atoms: N1_2  and  C2_3 
REMARK    2  A    between atoms: N1_2  and  C11_16 
REMARK    3  A    between atoms: C2_3  and  C3_4 
REMARK    4  A    between atoms: C6_8  and  O3_15 
REMARK    5  A    between atoms: N2_10  and  C8_11 
REMARK    6  A    between atoms: C8_11  and  C9_12 
REMARK    7  A    between atoms: C9_12  and  C10_13 
REMARK    8  A    between atoms: C10_13  and  O2_14 
ROOT
ATOM      1  C3  <0> d           2.079  -0.100  -1.109  0.00  0.00     0.041 A 
ATOM      2  C4  <0> d           2.514   1.114  -1.515  0.00  0.00     0.084 A 
ATOM      3  C5  <0> d           3.897   1.321  -1.716  0.00  0.00     0.208 A 
ATOM      4  O1  <0> d           4.318   2.410  -2.082  0.00  0.00    -0.285 OA
ATOM      5  C6  <0> d           4.787   0.242  -1.484  0.00  0.00     0.131 A 
ATOM      6  C7  <0> d           4.288  -0.950  -1.078  0.00  0.00     0.131 A 
ATOM      7  N2  <0> d           2.952  -1.112  -0.890  0.00  0.00    -0.356 N 
ENDROOT
BRANCH   1   8
ATOM      8  C2  <0> d           0.605  -0.329  -0.893  0.00  0.00     0.291 C 
BRANCH   8   9
ATOM      9  N1  <0> d           0.318  -0.340   0.547  0.00  0.00    -0.066 N 
ATOM     10  C1  <0> d           0.585   0.990   1.111  0.00  0.00     0.270 C 
ATOM     11  H27 <0> d           0.906  -1.022   1.002  0.00  0.00     0.280 HD
BRANCH   9  12
ATOM     12  C11 <0> d          -1.093  -0.688   0.763  0.00  0.00     0.188 C 
ATOM     13  C16 <0> d          -1.371  -2.074   0.176  0.00  0.00     0.033 C 
ATOM     14  C15 <0> d          -2.841  -2.437   0.400  0.00  0.00     0.002 C 
ATOM     15  C14 <0> d          -3.140  -2.448   1.901  0.00  0.00     0.000 C 
ATOM     16  C13 <0> d          -2.862  -1.063   2.487  0.00  0.00     0.002 C 
ATOM     17  C12 <0> d          -1.393  -0.700   2.263  0.00  0.00     0.033 C 
ENDBRANCH   9  12
ENDBRANCH   8   9
ENDBRANCH   1   8
BRANCH   7  18
ATOM     18  C8  <0> d           2.445  -2.412  -0.445  0.00  0.00     0.130 C 
BRANCH  18  19
ATOM     19  C9  <0> d           2.246  -3.324  -1.657  0.00  0.00     0.046 C 
BRANCH  19  20
ATOM     20  C10 <0> d           1.616  -4.643  -1.206  0.00  0.00     0.165 C 
BRANCH  20  21
ATOM     21  O2  <0> d           1.529  -5.535  -2.319  0.00  0.00    -0.401 OA
ATOM     22  H14 <0> d           1.138  -6.394  -2.105  0.00  0.00     0.209 HD
ENDBRANCH  20  21
ENDBRANCH  19  20
ENDBRANCH  18  19
ENDBRANCH   7  18
BRANCH   5  23
ATOM     23  O3  <0> d           6.126   0.402  -1.667  0.00  0.00    -0.356 OA
ATOM     24  H15 <0> d           6.380   1.289  -1.957  0.00  0.00     0.218 HD
ENDBRANCH   5  23
TORSDOF 8
