REMARK  3 active torsions:
REMARK  status: ('A' for Active; 'I' for Inactive)
REMARK    1  A    between atoms: C3_3  and  C13_18 
REMARK    2  A    between atoms: C5_5  and  N1_7 
REMARK       I    between atoms: N1_7  and  C7_8 
REMARK    3  A    between atoms: C7_8  and  C8_10 
ROOT
ATOM      1  C1  <0> d           0.085   1.406  -0.235  0.00  0.00     0.003 A 
ATOM      2  C2  <0> d           1.212   2.078   0.197  0.00  0.00     0.014 A 
ATOM      3  C3  <0> d           2.357   1.365   0.549  0.00  0.00    -0.006 A 
ATOM      4  C4  <0> d           2.361  -0.025   0.463  0.00  0.00     0.043 A 
ATOM      5  C5  <0> d           1.226  -0.692   0.028  0.00  0.00     0.035 A 
ATOM      6  C6  <0> d           0.089   0.027  -0.321  0.00  0.00     0.029 A 
ENDROOT
BRANCH   5   7
ATOM      7  N1  <0> d           1.225  -2.087  -0.060  0.00  0.00    -0.323 N 
ATOM      8  C7  <0> d           0.074  -2.772   0.089  0.00  0.00     0.259 C 
ATOM      9  O1  <0> d          -0.986  -2.176   0.138  0.00  0.00    -0.267 OA
ATOM     10  H6  <0> d           2.054  -2.563  -0.227  0.00  0.00     0.169 HD
BRANCH   8  11
ATOM     11  C8  <0> d           0.098  -4.239   0.191  0.00  0.00     0.070 A 
ATOM     12  C12 <0> d          -1.111  -4.981   0.207  0.00  0.00     0.116 A 
ATOM     13  N2  <0> d          -1.070  -6.324   0.294  0.00  0.00    -0.356 N 
ATOM     14  S1  <0> d          -2.616  -4.172   0.106  0.00  0.00    -0.059 SA
ATOM     15  C11 <0> d           0.110  -6.983   0.382  0.00  0.00     0.089 A 
ATOM     16  H1  <0> d          -1.900  -6.827   0.300  0.00  0.00     0.166 HD
ATOM     17  C10 <0> d           1.291  -6.315   0.377  0.00  0.00     0.018 A 
ATOM     18  C9  <0> d           1.308  -4.923   0.281  0.00  0.00     0.022 A 
ENDBRANCH   8  11
ENDBRANCH   5   7
BRANCH   3  19
ATOM     19  C13 <0> d           3.568   2.086   1.013  0.00  0.00     0.059 A 
ATOM     20  N4  <0> d           3.698   3.423   1.142  0.00  0.00    -0.344 N 
ATOM     21  C15 <0> d           4.892   3.696   1.577  0.00  0.00     0.083 A 
ATOM     22  H19 <0> d           3.009   4.077   0.944  0.00  0.00     0.167 HD
ATOM     23  N3  <0> d           5.577   2.537   1.733  0.00  0.00    -0.344 N 
ATOM     24  C16 <0> d           5.468   5.062   1.869  0.00  0.00     0.076 C 
ATOM     25  C14 <0> d           4.748   1.517   1.380  0.00  0.00     0.122 A 
ATOM     26  C19 <0> d           6.963   2.441   2.200  0.00  0.00     0.130 C 
ATOM     27  C18 <0> d           7.625   3.817   2.067  0.00  0.00     0.021 C 
ATOM     28  C17 <0> d           6.733   4.879   2.716  0.00  0.00     0.009 C 
ENDBRANCH   3  19
TORSDOF 3
