REMARK  6 active torsions:
REMARK  status: ('A' for Active; 'I' for Inactive)
REMARK    1  A    between atoms: C2_2  and  C3_3 
REMARK    2  A    between atoms: C2_2  and  N2_15 
REMARK    3  A    between atoms: C3_3  and  C4_4 
REMARK    4  A    between atoms: C4_4  and  N1_5 
REMARK    5  A    between atoms: N1_5  and  S1_6 
REMARK    6  A    between atoms: S1_6  and  C5_9 
ROOT
ATOM      1  N1  <0> d           1.581  -2.519   2.358  0.00  0.00    -0.315 N 
ATOM      2  H9  <0> d           2.070  -1.897   2.918  0.00  0.00     0.172 HD
ENDROOT
BRANCH   1   3
ATOM      3  C4  <0> d           0.872  -2.034   1.171  0.00  0.00     0.134 C 
BRANCH   3   4
ATOM      4  C3  <0> d           0.742  -0.511   1.242  0.00  0.00     0.052 C 
BRANCH   4   5
ATOM      5  C2  <0> d           0.002  -0.004   0.002  0.00  0.00     0.181 C 
ATOM      6  C1  <0> d          -0.019   1.526   0.010  0.00  0.00     0.039 C 
BRANCH   5   7
ATOM      7  N2  <0> d          -1.376  -0.512   0.012  0.00  0.00    -0.075 N 
ATOM      8  H12 <0> d          -1.864  -0.178  -0.805  0.00  0.00     0.274 HD
ATOM      9  H13 <0> d          -1.362  -1.521   0.007  0.00  0.00     0.274 HD
ATOM     10  H14 <0> d          -1.848  -0.187   0.843  0.00  0.00     0.274 HD
ENDBRANCH   5   7
ENDBRANCH   4   5
ENDBRANCH   3   4
ENDBRANCH   1   3
BRANCH   1  11
ATOM     11  S1  <0> d           1.545  -4.129   2.742  0.00  0.00     0.266 S 
ATOM     12  O1  <0> d           2.336  -4.285   3.913  0.00  0.00    -0.200 OA
ATOM     13  O2  <0> d           0.184  -4.531   2.684  0.00  0.00    -0.200 OA
BRANCH  11  14
ATOM     14  C5  <0> d           2.381  -4.991   1.452  0.00  0.00     0.137 A 
ATOM     15  S2  <0> d           3.147  -4.340  -0.022  0.00  0.00    -0.087 SA
ATOM     16  C8  <0> d           3.720  -5.884  -0.712  0.00  0.00     0.052 A 
ATOM     17  C7  <0> d           3.289  -6.780   0.210  0.00  0.00     0.028 A 
ATOM     18  C6  <0> d           2.602  -6.322   1.319  0.00  0.00     0.041 A 
ATOM     19 Br1  <0> d           1.983  -7.535   2.631  0.00  0.00    -0.049 Br
ENDBRANCH  11  14
ENDBRANCH   1  11
TORSDOF 6
