REMARK  6 active torsions:
REMARK  status: ('A' for Active; 'I' for Inactive)
REMARK    1  A    between atoms: C3_3  and  C7_8 
REMARK    2  A    between atoms: C7_8  and  C8_9 
REMARK       I    between atoms: C8_9  and  N1_11 
REMARK    3  A    between atoms: N1_11  and  C9_12 
REMARK    4  A    between atoms: C9_12  and  C10_13 
REMARK    5  A    between atoms: C10_13  and  S1_14 
REMARK    6  A    between atoms: S1_14  and  N2_17 
ROOT
ATOM      1  C8  <0> d           4.117   2.433   1.396  0.00  0.00     0.221 C 
ATOM      2  O1  <0> d           3.450   2.024   2.322  0.00  0.00    -0.273 OA
ATOM      3  N1  <0> d           5.258   3.111   1.634  0.00  0.00    -0.360 N 
ATOM      4  H7  <0> d           5.792   3.437   0.893  0.00  0.00     0.162 HD
ENDROOT
BRANCH   1   5
ATOM      5  C7  <0> d           3.672   2.183  -0.022  0.00  0.00     0.141 C 
BRANCH   5   6
ATOM      6  C3  <0> d           2.378   1.411  -0.013  0.00  0.00    -0.048 A 
ATOM      7  C2  <0> d           1.171   2.086   0.002  0.00  0.00     0.007 A 
ATOM      8  C1  <0> d          -0.017   1.378   0.010  0.00  0.00     0.002 A 
ATOM      9  C6  <0> d           0.002  -0.004   0.002  0.00  0.00     0.019 A 
ATOM     10  C5  <0> d           1.210  -0.679  -0.014  0.00  0.00     0.011 A 
ATOM     11  C4  <0> d           2.397   0.029  -0.022  0.00  0.00     0.026 A 
ATOM     12 Br1  <0> d           1.236  -2.570  -0.025  0.00  0.00    -0.051 Br
ENDBRANCH   5   6
ENDBRANCH   1   5
BRANCH   3  13
ATOM     13  C9  <0> d           5.691   3.353   3.013  0.00  0.00     0.139 C 
BRANCH  13  14
ATOM     14  C10 <0> d           7.005   4.137   3.004  0.00  0.00     0.182 C 
BRANCH  14  15
ATOM     15  S1  <0> d           7.541   4.438   4.710  0.00  0.00     0.226 S 
ATOM     16  O2  <0> d           6.646   5.334   5.354  0.00  0.00    -0.206 OA
ATOM     17  O3  <0> d           7.911   3.213   5.330  0.00  0.00    -0.206 OA
BRANCH  15  18
ATOM     18  N2  <0> d           8.957   5.284   4.569  0.00  0.00    -0.328 N 
ATOM     19  H12 <0> d           9.306   5.502   3.690  0.00  0.00     0.168 HD
ATOM     20  H13 <0> d           9.438   5.562   5.364  0.00  0.00     0.168 HD
ENDBRANCH  15  18
ENDBRANCH  14  15
ENDBRANCH  13  14
ENDBRANCH   3  13
TORSDOF 6
