REMARK  6 active torsions:
REMARK  status: ('A' for Active; 'I' for Inactive)
REMARK    1  A    between atoms: N1_2  and  C2_3 
REMARK       I    between atoms: N1_2  and  C6_10 
REMARK    2  A    between atoms: C6_10  and  C7_12 
REMARK    3  A    between atoms: C7_12  and  S2_13 
REMARK    4  A    between atoms: S2_13  and  C8_14 
REMARK    5  A    between atoms: C9_16  and  C10_19 
REMARK    6  A    between atoms: C11_20  and  C12_21 
ROOT
ATOM      1  C8  <0> d          -0.047  -0.052  -5.284  0.00  0.00     0.209 A 
ATOM      2  N2  <0> d          -0.059  -0.483  -6.546  0.00  0.00    -0.203 NA
ATOM      3  C9  <0> d          -0.080   0.551  -7.370  0.00  0.00     0.146 A 
ATOM      4  N3  <0> d          -0.082   1.683  -6.614  0.00  0.00    -0.259 N 
ATOM      5  N4  <0> d          -0.066   1.261  -5.275  0.00  0.00    -0.145 NA
ATOM      6  H20 <0> d          -0.095   2.597  -6.937  0.00  0.00     0.191 HD
ENDROOT
BRANCH   1   7
ATOM      7  S2  <0> d          -0.020  -1.082  -3.855  0.00  0.00    -0.079 SA
BRANCH   7   8
ATOM      8  C7  <0> d          -0.023   0.089  -2.470  0.00  0.00     0.185 C 
BRANCH   8   9
ATOM      9  C6  <0> d           0.000  -0.672  -1.169  0.00  0.00     0.229 C 
ATOM     10  N1  <0> d           0.002  -0.004   0.002  0.00  0.00    -0.350 N 
ATOM     11  C1  <0> d          -0.018   1.461   0.010  0.00  0.00     0.153 C 
ATOM     12  O3  <0> d           0.017  -1.884  -1.175  0.00  0.00    -0.273 OA
BRANCH  10  13
ATOM     13  C2  <0> d           0.024  -0.743   1.267  0.00  0.00     0.101 C 
ATOM     14  C5  <0> d           1.295  -0.360   2.077  0.00  0.00     0.165 C 
ATOM     15  S1  <0> d           0.791  -0.893   3.767  0.00  0.00     0.146 S 
ATOM     16  C4  <0> d          -1.036  -0.889   3.555  0.00  0.00     0.142 C 
ATOM     17  O1  <0> d           1.229  -2.228   3.981  0.00  0.00    -0.228 OA
ATOM     18  O2  <0> d           1.151   0.119   4.698  0.00  0.00    -0.228 OA
ATOM     19  C3  <0> d          -1.209  -0.372   2.107  0.00  0.00     0.041 C 
ENDBRANCH  10  13
ENDBRANCH   8   9
ENDBRANCH   7   8
ENDBRANCH   1   7
BRANCH   3  20
ATOM     20  C10 <0> d          -0.097   0.489  -8.836  0.00  0.00     0.053 C 
ATOM     21  C11 <0> d          -0.093  -0.704  -9.459  0.00  0.00     0.015 C 
BRANCH  21  22
ATOM     22  C12 <0> d          -0.110  -0.766 -10.930  0.00  0.00    -0.036 A 
ATOM     23  C17 <0> d          -0.106  -2.003 -11.581  0.00  0.00     0.011 A 
ATOM     24  C16 <0> d          -0.128  -2.054 -12.959  0.00  0.00     0.001 A 
ATOM     25  C15 <0> d          -0.143  -0.883 -13.697  0.00  0.00     0.000 A 
ATOM     26  C14 <0> d          -0.142   0.345 -13.060  0.00  0.00     0.001 A 
ATOM     27  C13 <0> d          -0.125   0.411 -11.683  0.00  0.00     0.011 A 
ENDBRANCH  21  22
ENDBRANCH   3  20
TORSDOF 6
