REMARK  7 active torsions:
REMARK  status: ('A' for Active; 'I' for Inactive)
REMARK    1  A    between atoms: O1_2  and  C2_3 
REMARK    2  A    between atoms: C7_8  and  C8_9 
REMARK    3  A    between atoms: C9_12  and  N4_15 
REMARK    4  A    between atoms: C10_16  and  C11_18 
REMARK    5  A    between atoms: C11_18  and  N5_19 
REMARK       I    between atoms: N5_19  and  C12_20 
REMARK    6  A    between atoms: C12_20  and  C13_22 
REMARK    7  A    between atoms: C14_23  and  C15_24 
ROOT
ATOM      1  N4  <0> d          -0.781  -5.860  -1.491  0.00  0.00    -0.036 NA
ATOM      2  C10 <0> d          -0.330  -6.835  -0.755  0.00  0.00     0.213 C 
ATOM      3  O2  <0> d           0.338  -6.565   0.383  0.00  0.00    -0.173 OA
ENDROOT
BRANCH   1   4
ATOM      4  C9  <0> d          -0.579  -4.567  -1.110  0.00  0.00     0.747 A 
ATOM      5  N1  <0> d           0.056  -4.168  -0.025  0.00  0.00    -0.039 NA
ATOM      6  C8  <0> d           0.063  -2.830   0.026  0.00  0.00     0.201 A 
ATOM      7  N3  <0> d          -0.571  -2.355  -1.023  0.00  0.00    -0.138 NA
ATOM      8  N2  <0> d          -0.994  -3.459  -1.781  0.00  0.00    -0.103 N 
ATOM      9  H1  <0> d          -1.487  -3.436  -2.616  0.00  0.00     0.208 HD
BRANCH   6  10
ATOM     10  C7  <0> d           0.683  -2.014   1.099  0.00  0.00     0.047 A 
ATOM     11  C2  <0> d           0.625  -0.618   1.041  0.00  0.00     0.082 A 
ATOM     12  C3  <0> d           1.202   0.137   2.050  0.00  0.00     0.038 A 
ATOM     13  C4  <0> d           1.836  -0.489   3.107  0.00  0.00     0.003 A 
ATOM     14  C5  <0> d           1.900  -1.870   3.163  0.00  0.00     0.001 A 
ATOM     15  C6  <0> d           1.330  -2.634   2.165  0.00  0.00     0.018 A 
BRANCH  11  16
ATOM     16  O1  <0> d           0.002  -0.004   0.002  0.00  0.00    -0.355 OA
ATOM     17  C1  <0> d          -0.017   1.425   0.010  0.00  0.00     0.210 C 
ENDBRANCH  11  16
ENDBRANCH   6  10
ENDBRANCH   1   4
BRANCH   2  18
ATOM     18  C11 <0> d          -0.554  -8.264  -1.177  0.00  0.00     0.213 C 
BRANCH  18  19
ATOM     19  N5  <0> d          -1.298  -8.290  -2.438  0.00  0.00    -0.350 N 
ATOM     20  C12 <0> d          -1.615  -9.469  -3.010  0.00  0.00     0.241 C 
ATOM     21  O3  <0> d          -1.283 -10.512  -2.477  0.00  0.00    -0.269 OA
ATOM     22  H11 <0> d          -1.563  -7.459  -2.862  0.00  0.00     0.163 HD
BRANCH  20  23
ATOM     23  C13 <0> d          -2.335  -9.494  -4.229  0.00  0.00     0.077 C 
ATOM     24  C14 <0> d          -2.654 -10.680  -4.804  0.00  0.00     0.042 C 
BRANCH  24  25
ATOM     25  C15 <0> d          -3.373 -10.705  -6.023  0.00  0.00     0.075 A 
ATOM     26  O4  <0> d          -3.801  -9.629  -6.716  0.00  0.00    -0.323 OA
ATOM     27  C18 <0> d          -4.442 -10.036  -7.820  0.00  0.00     0.142 A 
ATOM     28  C17 <0> d          -4.447 -11.387  -7.855  0.00  0.00     0.027 A 
ATOM     29  C16 <0> d          -3.766 -11.834  -6.712  0.00  0.00     0.039 A 
ENDBRANCH  24  25
ENDBRANCH  20  23
ENDBRANCH  18  19
ENDBRANCH   2  18
TORSDOF 7
