REMARK  1 active torsions:
REMARK  status: ('A' for Active; 'I' for Inactive)
REMARK    1  A    between atoms: C5_6  and  C8_10 
ROOT
ATOM      1  C1  <0> d          -0.016   1.344   0.009  0.00  0.00     0.002 A 
ATOM      2  C2  <0> d           1.158   2.118   0.002  0.00  0.00     0.002 A 
ATOM      3  C3  <0> d           2.389   1.570  -0.013  0.00  0.00     0.031 A 
ATOM      4  C4  <0> d           2.533   0.108  -0.022  0.00  0.00     0.056 A 
ATOM      5  N1  <0> d           3.569  -0.680  -0.036  0.00  0.00    -0.364 N 
ATOM      6  C5  <0> d           3.071  -2.062  -0.039  0.00  0.00     0.215 A 
ATOM      7  N2  <0> d           1.606  -1.974  -0.024  0.00  0.00    -0.364 N 
ATOM      8  C6  <0> d           1.290  -0.712  -0.014  0.00  0.00     0.056 A 
ATOM      9  C7  <0> d           0.002  -0.004   0.002  0.00  0.00     0.031 A 
ATOM     10  H11 <0> d           4.499  -0.405  -0.045  0.00  0.00     0.162 HD
ATOM     11  H12 <0> d           0.987  -2.721  -0.022  0.00  0.00     0.162 HD
ENDROOT
BRANCH   6  12
ATOM     12  C8  <0> d           3.566  -2.800   1.206  0.00  0.00     0.191 A 
ATOM     13  S1  <0> d           2.750  -2.159   2.723  0.00  0.00    -0.098 SA
ATOM     14  C14 <0> d           1.929  -3.658   3.218  0.00  0.00     0.030 A 
ATOM     15  C9  <0> d           2.278  -4.603   2.248  0.00  0.00     0.046 A 
ATOM     16  C13 <0> d           1.111  -3.959   4.284  0.00  0.00     0.040 A 
ATOM     17  N3  <0> d           3.113  -4.197   1.207  0.00  0.00    -0.372 N 
ATOM     18  C10 <0> d           1.747  -5.895   2.415  0.00  0.00     0.032 A 
ATOM     19  H7  <0> d           3.384  -4.815   0.510  0.00  0.00     0.161 HD
ATOM     20  C11 <0> d           0.929  -6.197   3.478  0.00  0.00     0.021 A 
ATOM     21  C12 <0> d           0.602  -5.240   4.422  0.00  0.00     0.012 A 
ATOM     22 Br1  <0> d          -0.525  -5.673   5.878  0.00  0.00    -0.051 Br
ENDBRANCH   6  12
TORSDOF 1
