REMARK  4 active torsions:
REMARK  status: ('A' for Active; 'I' for Inactive)
REMARK    1  A    between atoms: C7_7  and  C8_8 
REMARK       I    between atoms: C8_8  and  N1_10 
REMARK    2  A    between atoms: N1_10  and  C9_11 
REMARK    3  A    between atoms: N1_10  and  C12_16 
REMARK    4  A    between atoms: C9_11  and  C10_12 
REMARK       I    between atoms: C10_12  and  N2_14 
ROOT
ATOM      1  C12 <0> d           0.293  -0.262   4.924  0.00  0.00     0.039 A 
ATOM      2  C13 <0> d           0.605  -0.972   6.077  0.00  0.00     0.030 A 
ATOM      3  C14 <0> d           0.560  -0.349   7.310  0.00  0.00     0.004 A 
ATOM      4  C15 <0> d           0.205   0.982   7.404  0.00  0.00     0.021 A 
ATOM      5  C16 <0> d          -0.110   1.703   6.252  0.00  0.00     0.019 A 
ATOM      6  C17 <0> d          -0.060   1.076   5.007  0.00  0.00     0.050 A 
ATOM      7  C18 <0> d          -0.479   3.083   6.347  0.00  0.00    -0.078 C 
ATOM      8  C19 <0> d          -0.782   4.215   6.425  0.00  0.00     0.018 C 
ENDROOT
BRANCH   1   9
ATOM      9  N1  <0> d           0.340  -0.896   3.678  0.00  0.00    -0.305 N 
ATOM     10  C8  <0> d           0.211  -0.173   2.548  0.00  0.00     0.259 C 
ATOM     11  O1  <0> d           0.167   1.041   2.605  0.00  0.00    -0.267 OA
BRANCH  10  12
ATOM     12  C7  <0> d           0.123  -0.855   1.240  0.00  0.00     0.038 A 
ATOM     13  C2  <0> d           1.110  -0.650   0.275  0.00  0.00    -0.046 A 
ATOM     14  C1  <0> d           2.270   0.268   0.564  0.00  0.00     0.049 C 
ATOM     15  C3  <0> d           1.025  -1.294  -0.942  0.00  0.00     0.007 A 
ATOM     16  C4  <0> d          -0.039  -2.137  -1.209  0.00  0.00     0.001 A 
ATOM     17  C5  <0> d          -1.025  -2.339  -0.259  0.00  0.00     0.001 A 
ATOM     18  C6  <0> d          -0.951  -1.702   0.962  0.00  0.00     0.017 A 
ENDBRANCH  10  12
BRANCH   9  19
ATOM     19  C9  <0> d           0.529  -2.347   3.601  0.00  0.00     0.235 C 
BRANCH  19  20
ATOM     20  C10 <0> d           1.993  -2.653   3.418  0.00  0.00     0.235 C 
ATOM     21  O2  <0> d           2.799  -1.749   3.357  0.00  0.00    -0.272 OA
ATOM     22  N2  <0> d           2.407  -3.932   3.321  0.00  0.00    -0.364 N 
ATOM     23  C11 <0> d           3.830  -4.230   3.143  0.00  0.00     0.149 C 
ATOM     24  H10 <0> d           1.763  -4.655   3.370  0.00  0.00     0.161 HD
ENDBRANCH  19  20
ENDBRANCH   9  19
ENDBRANCH   1   9
TORSDOF 4
