REMARK  1 active torsions:
REMARK  status: ('A' for Active; 'I' for Inactive)
REMARK    1  A    between atoms: N2_8  and  C5_9 
ROOT
ATOM      1  C1  <0> d          -1.779  -0.616   0.025  0.00  0.00     0.120 A 
ATOM      2  C2  <0> d          -3.062  -0.852   0.356  0.00  0.00     0.066 A 
ATOM      3  C3  <0> d          -3.874  -1.688  -0.539  0.00  0.00     0.120 A 
ATOM      4  N1  <0> d          -3.282  -2.192  -1.687  0.00  0.00    -0.294 N 
ATOM      5  H1  <0> d          -3.794  -2.747  -2.295  0.00  0.00     0.172 HD
ATOM      6  C4  <0> d          -1.994  -1.908  -1.952  0.00  0.00     0.330 A 
ATOM      7  O1  <0> d          -1.484  -2.355  -2.962  0.00  0.00    -0.246 OA
ATOM      8  N2  <0> d          -1.258  -1.143  -1.130  0.00  0.00    -0.281 N 
ATOM      9  I1  <0> d          -3.881  -0.051   2.110  0.00  0.00    -0.039 I 
ATOM     10  H4  <0> d          -5.617  -1.638   0.523  0.00  0.00     0.157 HD
ATOM     11  N3  <0> d          -5.149  -1.992  -0.312  0.00  0.00    -0.384 N 
ATOM     12  H13 <0> d          -5.663  -2.582  -0.976  0.00  0.00     0.157 HD
ENDROOT
BRANCH   8  13
ATOM     13  C5  <0> d           0.140  -0.869  -1.472  0.00  0.00     0.231 C 
ATOM     14  O2  <0> d           0.466  -1.516  -2.704  0.00  0.00    -0.366 OA
ATOM     15  C9  <0> d           1.821  -1.333  -3.119  0.00  0.00     0.170 C 
ATOM     16  C8  <0> d           2.090   0.158  -3.335  0.00  0.00     0.026 C 
ATOM     17  C7  <0> d           1.790   0.916  -2.038  0.00  0.00     0.006 C 
ATOM     18  C6  <0> d           0.342   0.642  -1.623  0.00  0.00     0.054 C 
ENDBRANCH   8  13
TORSDOF 1
