REMARK  3 active torsions:
REMARK  status: ('A' for Active; 'I' for Inactive)
REMARK    1  A    between atoms: C3_3  and  O3_23 
REMARK    2  A    between atoms: C6_6  and  C7_7 
REMARK    3  A    between atoms: C7_7  and  C8_9 
ROOT
ATOM      1  C8  <0> d          -1.242  -2.243  -0.110  0.00  0.00     0.205 A 
ATOM      2  N1  <0> d          -0.076  -2.856  -0.117  0.00  0.00    -0.185 NA
ATOM      3  C9  <0> d           0.042  -4.183  -0.217  0.00  0.00     0.282 A 
ATOM      4  O2  <0> d           1.138  -4.718  -0.224  0.00  0.00    -0.265 OA
ATOM      5  C10 <0> d          -1.213  -4.994  -0.321  0.00  0.00     0.073 A 
ATOM      6  C11 <0> d          -1.329  -6.335  -0.366  0.00  0.00    -0.047 C 
ATOM      7  C12 <0> d          -0.165  -7.299  -0.147  0.00  0.00     0.036 C 
ATOM      8  C13 <0> d          -0.584  -8.248   0.984  0.00  0.00     0.004 C 
ATOM      9  C14 <0> d          -1.934  -8.886   0.666  0.00  0.00     0.002 C 
ATOM     10  C15 <0> d          -3.034  -7.823   0.591  0.00  0.00     0.020 C 
ATOM     11  C16 <0> d          -2.732  -6.890  -0.585  0.00  0.00     0.084 C 
ATOM     12  S1  <0> d          -3.762  -5.379  -0.468  0.00  0.00    -0.100 SA
ATOM     13  C17 <0> d          -2.452  -4.191  -0.312  0.00  0.00     0.112 A 
ATOM     14  N2  <0> d          -2.403  -2.885  -0.200  0.00  0.00    -0.218 NA
ENDROOT
BRANCH   1  15
ATOM     15  C7  <0> d          -1.261  -0.760   0.011  0.00  0.00     0.229 C 
ATOM     16  O1  <0> d          -2.318  -0.174   0.130  0.00  0.00    -0.283 OA
BRANCH  15  17
ATOM     17  C6  <0> d           0.001  -0.003  -0.015  0.00  0.00     0.018 A 
ATOM     18  C1  <0> d           0.056   1.290   0.521  0.00  0.00     0.018 A 
ATOM     19  C2  <0> d           1.234   1.990   0.495  0.00  0.00     0.037 A 
ATOM     20  C3  <0> d           2.373   1.420  -0.063  0.00  0.00     0.065 A 
ATOM     21  C4  <0> d           2.324   0.136  -0.597  0.00  0.00     0.037 A 
ATOM     22  C5  <0> d           1.151  -0.573  -0.576  0.00  0.00     0.018 A 
BRANCH  20  23
ATOM     23  O3  <0> d           3.537   2.118  -0.087  0.00  0.00    -0.361 OA
ATOM     24  H14 <0> d           4.091   1.984   0.694  0.00  0.00     0.217 HD
ENDBRANCH  20  23
ENDBRANCH  15  17
ENDBRANCH   1  15
TORSDOF 3
