REMARK  4 active torsions:
REMARK  status: ('A' for Active; 'I' for Inactive)
REMARK    1  A    between atoms: C6_7  and  N3_12 
REMARK    2  A    between atoms: N3_12  and  C8_13 
REMARK    3  A    between atoms: C8_13  and  C11_16 
REMARK    4  A    between atoms: C11_16  and  O1_17 
ROOT
ATOM      1  C1  <0> d          -0.552   1.486   0.113  0.00  0.00     0.050 C 
ATOM      2  C2  <0> d          -0.480  -0.020   0.095  0.00  0.00    -0.032 A 
ATOM      3  C3  <0> d          -0.766  -0.699  -1.026  0.00  0.00    -0.012 A 
ATOM      4  S1  <0> d          -0.542  -2.402  -0.549  0.00  0.00    -0.074 SA
ATOM      5  C4  <0> d          -0.070  -2.156   1.143  0.00  0.00     0.115 A 
ATOM      6  C5  <0> d          -0.095  -0.751   1.289  0.00  0.00     0.052 A 
ATOM      7  C6  <0> d           0.255  -0.266   2.579  0.00  0.00     0.141 A 
ATOM      8  N1  <0> d           0.575  -1.131   3.529  0.00  0.00    -0.200 NA
ATOM      9  C7  <0> d           0.582  -2.436   3.319  0.00  0.00     0.226 A 
ATOM     10  N2  <0> d           0.257  -2.946   2.146  0.00  0.00    -0.210 NA
ATOM     11 Cl1  <0> d           1.014  -3.502   4.619  0.00  0.00    -0.041 Cl
ATOM     12  C12 <0> d          -1.178  -0.152  -2.368  0.00  0.00     0.057 C 
ENDROOT
BRANCH   7  13
ATOM     13  N3  <0> d           0.261   1.092   2.838  0.00  0.00    -0.363 N 
ATOM     14  H4  <0> d           0.109   1.724   2.118  0.00  0.00     0.162 HD
BRANCH  13  15
ATOM     15  C8  <0> d           0.496   1.577   4.200  0.00  0.00     0.045 C 
ATOM     16  C9  <0> d          -0.586   1.028   5.132  0.00  0.00     0.040 C 
ATOM     17  C10 <0> d           1.870   1.103   4.680  0.00  0.00     0.040 C 
BRANCH  15  18
ATOM     18  C11 <0> d           0.452   3.106   4.212  0.00  0.00     0.194 C 
BRANCH  18  19
ATOM     19  O1  <0> d           0.681   3.579   5.541  0.00  0.00    -0.398 OA
ATOM     20  H13 <0> d           0.667   4.543   5.624  0.00  0.00     0.209 HD
ENDBRANCH  18  19
ENDBRANCH  15  18
ENDBRANCH  13  15
ENDBRANCH   7  13
TORSDOF 4
