REMARK  7 active torsions:
REMARK  status: ('A' for Active; 'I' for Inactive)
REMARK    1  A    between atoms: C2_2  and  N1_3 
REMARK    2  A    between atoms: N1_3  and  C3_4 
REMARK       I    between atoms: N1_3  and  C5_6 
REMARK    3  A    between atoms: C5_6  and  C6_8 
REMARK    4  A    between atoms: C6_8  and  N2_9 
REMARK       I    between atoms: N2_9  and  C7_10 
REMARK    5  A    between atoms: C7_10  and  C8_12 
REMARK       I    between atoms: C8_12  and  N3_14 
REMARK    6  A    between atoms: C14_20  and  O4_24 
REMARK    7  A    between atoms: O4_24  and  C18_25 
ROOT
ATOM      1  C8  <0> d          -5.546  -2.089   4.247  0.00  0.00     0.316 C 
ATOM      2  O3  <0> d          -4.912  -1.470   5.076  0.00  0.00    -0.262 OA
ATOM      3  N3  <0> d          -6.819  -2.452   4.505  0.00  0.00    -0.307 N 
ATOM      4  C9  <0> d          -7.737  -2.786   3.408  0.00  0.00     0.133 C 
ATOM      5  C10 <0> d          -9.078  -2.096   3.693  0.00  0.00     0.025 C 
ATOM      6  C11 <0> d          -9.662  -2.667   4.984  0.00  0.00     0.042 C 
ATOM      7  C12 <0> d          -8.642  -2.618   6.092  0.00  0.00    -0.028 A 
ATOM      8  C13 <0> d          -7.285  -2.522   5.824  0.00  0.00     0.077 A 
ATOM      9  C14 <0> d          -6.366  -2.489   6.873  0.00  0.00     0.102 A 
ATOM     10  C15 <0> d          -6.810  -2.555   8.183  0.00  0.00     0.039 A 
ATOM     11  C16 <0> d          -8.164  -2.653   8.447  0.00  0.00     0.003 A 
ATOM     12  C17 <0> d          -9.077  -2.676   7.406  0.00  0.00     0.009 A 
ENDROOT
BRANCH   1  13
ATOM     13  C7  <0> d          -4.918  -2.447   2.940  0.00  0.00     0.310 C 
ATOM     14  N2  <0> d          -3.688  -1.988   2.636  0.00  0.00    -0.344 N 
ATOM     15  H13 <0> d          -3.211  -1.424   3.265  0.00  0.00     0.163 HD
ATOM     16  O2  <0> d          -5.515  -3.152   2.153  0.00  0.00    -0.262 OA
BRANCH  14  17
ATOM     17  C6  <0> d          -3.071  -2.339   1.354  0.00  0.00     0.226 C 
BRANCH  17  18
ATOM     18  C5  <0> d          -1.708  -1.704   1.261  0.00  0.00     0.237 C 
ATOM     19  N1  <0> d          -0.951  -1.891   0.162  0.00  0.00    -0.351 N 
ATOM     20  O1  <0> d          -1.292  -1.024   2.176  0.00  0.00    -0.272 OA
BRANCH  19  21
ATOM     21  C2  <0> d           0.374  -1.273   0.072  0.00  0.00     0.121 C 
ATOM     22  C1  <0> d           0.249   0.113  -0.563  0.00  0.00     0.026 C 
ENDBRANCH  19  21
BRANCH  19  23
ATOM     23  C3  <0> d          -1.453  -2.712  -0.942  0.00  0.00     0.121 C 
ATOM     24  C4  <0> d          -1.041  -4.169  -0.723  0.00  0.00     0.026 C 
ENDBRANCH  19  23
ENDBRANCH  17  18
ENDBRANCH  14  17
ENDBRANCH   1  13
BRANCH   9  25
ATOM     25  O4  <0> d          -5.036  -2.393   6.609  0.00  0.00    -0.288 OA
BRANCH  25  26
ATOM     26  C18 <0> d          -4.152  -2.364   7.732  0.00  0.00     0.505 C 
ATOM     27  F1  <0> d          -4.457  -1.261   8.537  0.00  0.00    -0.184 F 
ATOM     28  F2  <0> d          -4.304  -3.540   8.475  0.00  0.00    -0.184 F 
ENDBRANCH  25  26
ENDBRANCH   9  25
TORSDOF 7
