REMARK  5 active torsions:
REMARK  status: ('A' for Active; 'I' for Inactive)
REMARK    1  A    between atoms: C3_4  and  C5_7 
REMARK    2  A    between atoms: C5_7  and  N3_8 
REMARK    3  A    between atoms: N3_8  and  C7_10 
REMARK    4  A    between atoms: C8_11  and  C12_18 
REMARK    5  A    between atoms: C12_18  and  N6_19 
ROOT
ATOM      1  C7  <0> d           1.470  -3.478  -2.914  0.00  0.00     0.153 A 
ATOM      2  C8  <0> d           2.679  -3.846  -3.387  0.00  0.00     0.089 A 
ATOM      3  N4  <0> d           2.928  -3.097  -4.540  0.00  0.00    -0.299 N 
ATOM      4  C9  <0> d           3.921  -2.964  -5.485  0.00  0.00     0.106 A 
ATOM      5  C10 <0> d           3.795  -2.100  -6.491  0.00  0.00     0.071 A 
ATOM      6  S1  <0> d           2.194  -1.381  -6.161  0.00  0.00    -0.062 SA
ATOM      7  C11 <0> d           1.821  -2.305  -4.688  0.00  0.00     0.179 A 
ATOM      8  N5  <0> d           0.966  -2.538  -3.732  0.00  0.00    -0.204 NA
ENDROOT
BRANCH   1   9
ATOM      9  N3  <0> d           0.844  -3.992  -1.768  0.00  0.00    -0.364 N 
ATOM     10  C6  <0> d           1.564  -4.921  -0.894  0.00  0.00     0.151 C 
BRANCH   9  11
ATOM     11  C5  <0> d          -0.530  -3.599  -1.446  0.00  0.00     0.165 C 
BRANCH  11  12
ATOM     12  C3  <0> d          -0.510  -2.369  -0.576  0.00  0.00    -0.004 A 
ATOM     13  C2  <0> d          -0.528  -1.087  -1.008  0.00  0.00     0.122 A 
ATOM     14  N1  <0> d          -0.501  -0.286   0.077  0.00  0.00    -0.285 N 
ATOM     15  C1  <0> d          -0.508   1.179   0.068  0.00  0.00     0.179 C 
ATOM     16  N2  <0> d          -0.459  -1.103   1.215  0.00  0.00    -0.185 NA
ATOM     17  C4  <0> d          -0.470  -2.351   0.822  0.00  0.00     0.149 A 
ENDBRANCH  11  12
ENDBRANCH   9  11
ENDBRANCH   1   9
BRANCH   2  18
ATOM     18  C12 <0> d           3.595  -4.878  -2.781  0.00  0.00     0.290 C 
BRANCH  18  19
ATOM     19  N6  <0> d           4.548  -4.218  -1.879  0.00  0.00    -0.074 N 
ATOM     20  H15 <0> d           5.161  -4.909  -1.473  0.00  0.00     0.274 HD
ATOM     21  H16 <0> d           5.094  -3.547  -2.399  0.00  0.00     0.274 HD
ATOM     22  H17 <0> d           4.043  -3.744  -1.145  0.00  0.00     0.274 HD
ENDBRANCH  18  19
ENDBRANCH   2  18
TORSDOF 5
