REMARK  5 active torsions:
REMARK  status: ('A' for Active; 'I' for Inactive)
REMARK    1  A    between atoms: C2_2  and  N1_3 
REMARK    2  A    between atoms: C9_10  and  C11_13 
REMARK    3  A    between atoms: C9_10  and  O4_23 
REMARK    4  A    between atoms: C11_13  and  C12_14 
REMARK    5  A    between atoms: C12_14  and  C13_16 
ROOT
ATOM      1  N1  <0> d          -1.463  -0.843   0.386  0.00  0.00    -0.315 N 
ATOM      2  C3  <0> d          -2.259  -1.145   1.492  0.00  0.00     0.047 A 
ATOM      3  C4  <0> d          -1.975  -1.110   2.856  0.00  0.00     0.030 A 
ATOM      4  C5  <0> d          -2.943  -1.460   3.774  0.00  0.00     0.002 A 
ATOM      5  C6  <0> d          -4.201  -1.848   3.350  0.00  0.00     0.001 A 
ATOM      6  C7  <0> d          -4.491  -1.886   1.997  0.00  0.00     0.013 A 
ATOM      7  C8  <0> d          -3.526  -1.537   1.079  0.00  0.00     0.013 A 
ATOM      8  C9  <0> d          -3.520  -1.472  -0.431  0.00  0.00     0.175 A 
ATOM      9  C10 <0> d          -2.122  -1.002  -0.774  0.00  0.00     0.264 A 
ATOM     10  O1  <0> d          -1.680  -0.807  -1.886  0.00  0.00    -0.269 OA
ENDROOT
BRANCH   8  11
ATOM     11  C11 <0> d          -3.786  -2.856  -1.028  0.00  0.00     0.137 C 
BRANCH  11  12
ATOM     12  C12 <0> d          -3.654  -2.790  -2.528  0.00  0.00     0.166 C 
ATOM     13  O2  <0> d          -3.483  -1.721  -3.075  0.00  0.00    -0.292 OA
BRANCH  12  14
ATOM     14  C13 <0> d          -3.730  -4.018  -3.325  0.00  0.00     0.047 A 
ATOM     15  C16 <0> d          -2.697  -4.845  -3.674  0.00  0.00     0.063 A 
ATOM     16  O3  <0> d          -3.191  -5.852  -4.398  0.00  0.00    -0.326 OA
ATOM     17  C17 <0> d          -1.249  -4.653  -3.301  0.00  0.00     0.077 C 
ATOM     18  C15 <0> d          -4.518  -5.725  -4.555  0.00  0.00     0.149 A 
ATOM     19  C14 <0> d          -4.934  -4.618  -3.923  0.00  0.00    -0.023 A 
ATOM     20  C18 <0> d          -6.345  -4.095  -3.842  0.00  0.00     0.051 C 
ENDBRANCH  12  14
ENDBRANCH  11  12
ENDBRANCH   8  11
BRANCH   8  21
ATOM     21  O4  <0> d          -4.489  -0.530  -0.896  0.00  0.00    -0.375 OA
ATOM     22  H19 <0> d          -4.528  -0.449  -1.859  0.00  0.00     0.211 HD
ENDBRANCH   8  21
BRANCH   1  23
ATOM     23  C2  <0> d          -0.071  -0.397   0.480  0.00  0.00     0.128 C 
ATOM     24  C1  <0> d          -0.030   1.130   0.575  0.00  0.00     0.027 C 
ENDBRANCH   1  23
TORSDOF 5
