REMARK  4 active torsions:
REMARK  status: ('A' for Active; 'I' for Inactive)
REMARK    1  A    between atoms: C2_2  and  C3_3 
REMARK    2  A    between atoms: C2_2  and  N4_15 
REMARK    3  A    between atoms: C3_3  and  C4_4 
REMARK    4  A    between atoms: C3_3  and  N1_10 
ROOT
ATOM      1  C3  <0> d           0.742  -0.511   1.242  0.00  0.00     0.181 C 
ENDROOT
BRANCH   1   2
ATOM      2  C2  <0> d           0.002  -0.004   0.002  0.00  0.00     0.209 C 
ATOM      3  C1  <0> d          -0.019   1.526   0.010  0.00  0.00     0.042 C 
BRANCH   2   4
ATOM      4  N4  <0> d           0.690  -0.478  -1.207  0.00  0.00    -0.073 N 
ATOM      5  H10 <0> d           1.636  -0.129  -1.214  0.00  0.00     0.274 HD
ATOM      6  H11 <0> d           0.703  -1.487  -1.212  0.00  0.00     0.274 HD
ATOM      7  H12 <0> d           0.202  -0.144  -2.024  0.00  0.00     0.274 HD
ENDBRANCH   2   4
ENDBRANCH   1   2
BRANCH   1   8
ATOM      8  C4  <0> d           0.762  -2.018   1.233  0.00  0.00     0.011 A 
ATOM      9  S1  <0> d          -0.609  -3.160   1.241  0.00  0.00    -0.085 SA
ATOM     10  C7  <0> d           0.329  -4.680   1.221  0.00  0.00     0.051 A 
ATOM     11  C6  <0> d           1.605  -4.221   1.218  0.00  0.00     0.028 A 
ATOM     12 Br1  <0> d          -0.296  -6.465   1.213  0.00  0.00    -0.043 Br
ATOM     13  C5  <0> d           1.827  -2.857   1.224  0.00  0.00     0.019 A 
ENDBRANCH   1   8
BRANCH   1  14
ATOM     14  N1  <0> d           0.056  -0.038   2.447  0.00  0.00    -0.251 N 
ATOM     15  N3  <0> d           0.363   1.110   3.194  0.00  0.00    -0.164 NA
ATOM     16  C9  <0> d          -0.492   1.158   4.181  0.00  0.00     0.256 A 
ATOM     17  N2  <0> d          -1.307   0.107   4.099  0.00  0.00    -0.234 NA
ATOM     18  C8  <0> d          -0.988  -0.622   3.061  0.00  0.00     0.230 A 
ENDBRANCH   1  14
TORSDOF 4
