REMARK  4 active torsions:
REMARK  status: ('A' for Active; 'I' for Inactive)
REMARK    1  A    between atoms: C6_6  and  N1_7 
REMARK       I    between atoms: N1_7  and  C7_8 
REMARK    2  A    between atoms: C7_8  and  C8_10 
REMARK    3  A    between atoms: C8_10  and  S1_11 
REMARK    4  A    between atoms: S1_11  and  C9_12 
ROOT
ATOM      1  S1  <0> d          -2.125  -4.603  -0.337  0.00  0.00    -0.100 SA
ENDROOT
BRANCH   1   2
ATOM      2  C8  <0> d          -2.478  -2.828  -0.204  0.00  0.00     0.184 C 
BRANCH   2   3
ATOM      3  C7  <0> d          -1.183  -2.065  -0.099  0.00  0.00     0.231 C 
ATOM      4  N1  <0> d          -1.200  -0.722   0.010  0.00  0.00    -0.327 N 
ATOM      5  H6  <0> d          -2.044  -0.252   0.098  0.00  0.00     0.169 HD
ATOM      6  O1  <0> d          -0.126  -2.659  -0.113  0.00  0.00    -0.272 OA
BRANCH   4   7
ATOM      7  C6  <0> d           0.002  -0.004  -0.004  0.00  0.00     0.034 A 
ATOM      8  C1  <0> d           1.072  -0.453  -0.766  0.00  0.00     0.031 A 
ATOM      9  C2  <0> d           2.256   0.258  -0.778  0.00  0.00     0.021 A 
ATOM     10  C3  <0> d           2.377   1.416  -0.032  0.00  0.00     0.011 A 
ATOM     11  C4  <0> d           1.312   1.866   0.729  0.00  0.00     0.021 A 
ATOM     12 Br1  <0> d           4.000   2.387  -0.051  0.00  0.00    -0.051 Br
ATOM     13  C5  <0> d           0.126   1.159   0.745  0.00  0.00     0.031 A 
ENDBRANCH   4   7
ENDBRANCH   2   3
ENDBRANCH   1   2
BRANCH   1  14
ATOM     14  C9  <0> d          -3.718  -5.347  -0.450  0.00  0.00     0.107 A 
ATOM     15  N3  <0> d          -4.807  -4.590  -0.424  0.00  0.00    -0.187 NA
ATOM     16  C12 <0> d          -6.015  -5.143  -0.514  0.00  0.00     0.347 A 
ATOM     17  N2  <0> d          -6.159  -6.474  -0.621  0.00  0.00    -0.310 N 
ATOM     18  O2  <0> d          -7.005  -4.430  -0.494  0.00  0.00    -0.245 OA
ATOM     19  C11 <0> d          -5.065  -7.298  -0.640  0.00  0.00     0.023 A 
ATOM     20  H1  <0> d          -7.048  -6.856  -0.684  0.00  0.00     0.170 HD
ATOM     21  C10 <0> d          -3.837  -6.754  -0.563  0.00  0.00     0.000 A 
ATOM     22  C13 <0> d          -5.299  -8.781  -0.740  0.00  0.00     0.058 C 
ATOM     23  C16 <0> d          -2.574  -7.571  -0.596  0.00  0.00     0.043 C 
ATOM     24  C15 <0> d          -2.873  -9.036  -0.280  0.00  0.00     0.005 C 
ATOM     25  C14 <0> d          -4.024  -9.498  -1.182  0.00  0.00     0.006 C 
ENDBRANCH   1  14
TORSDOF 4
