REMARK  5 active torsions:
REMARK  status: ('A' for Active; 'I' for Inactive)
REMARK    1  A    between atoms: C2_2  and  C3_3 
REMARK    2  A    between atoms: C3_3  and  C4_4 
REMARK    3  A    between atoms: C4_4  and  C5_5 
REMARK    4  A    between atoms: C4_4  and  N2_17 
REMARK       I    between atoms: C5_5  and  N1_7 
REMARK    5  A    between atoms: N1_7  and  C6_8 
ROOT
ATOM      1  C5  <0> d           0.955  -1.417  -3.056  0.00  0.00     0.252 C 
ATOM      2  O1  <0> d           1.857  -0.746  -3.511  0.00  0.00    -0.271 OA
ATOM      3  N1  <0> d           0.579  -2.552  -3.677  0.00  0.00    -0.323 N 
ATOM      4  H9  <0> d          -0.092  -3.125  -3.275  0.00  0.00     0.169 HD
ENDROOT
BRANCH   3   5
ATOM      5  C6  <0> d           1.158  -2.905  -4.902  0.00  0.00     0.070 A 
ATOM      6  C11 <0> d           0.533  -2.557  -6.093  0.00  0.00     0.040 A 
ATOM      7  C10 <0> d           1.109  -2.901  -7.301  0.00  0.00     0.040 A 
ATOM      8 Br1  <0> d          -1.102  -1.606  -6.062  0.00  0.00    -0.049 Br
ATOM      9  C9  <0> d           2.302  -3.602  -7.325  0.00  0.00     0.013 A 
ATOM     10  C8  <0> d           2.924  -3.954  -6.141  0.00  0.00     0.040 A 
ATOM     11 Br2  <0> d           3.084  -4.077  -8.980  0.00  0.00    -0.051 Br
ATOM     12  C7  <0> d           2.356  -3.608  -4.930  0.00  0.00     0.040 A 
ATOM     13 Br3  <0> d           3.208  -4.089  -3.312  0.00  0.00    -0.049 Br
ENDBRANCH   3   5
BRANCH   1  14
ATOM     14  C4  <0> d           0.254  -0.980  -1.796  0.00  0.00     0.275 C 
BRANCH  14  15
ATOM     15  C3  <0> d          -1.068  -0.299  -2.157  0.00  0.00     0.042 C 
BRANCH  15  16
ATOM     16  C2  <0> d          -1.838   0.033  -0.877  0.00  0.00    -0.002 C 
ATOM     17  C1  <0> d          -3.159   0.713  -1.238  0.00  0.00     0.005 C 
ENDBRANCH  15  16
ENDBRANCH  14  15
BRANCH  14  18
ATOM     18  N2  <0> d           1.107  -0.034  -1.063  0.00  0.00    -0.066 N 
ATOM     19  H12 <0> d           1.291   0.771  -1.643  0.00  0.00     0.275 HD
ATOM     20  H13 <0> d           0.637   0.258  -0.220  0.00  0.00     0.275 HD
ATOM     21  H14 <0> d           1.979  -0.483  -0.825  0.00  0.00     0.275 HD
ENDBRANCH  14  18
ENDBRANCH   1  14
TORSDOF 5
