REMARK  5 active torsions:
REMARK  status: ('A' for Active; 'I' for Inactive)
REMARK    1  A    between atoms: C8_9  and  S1_11 
REMARK    2  A    between atoms: S1_11  and  C9_12 
REMARK    3  A    between atoms: C9_12  and  C10_13 
REMARK    4  A    between atoms: C9_12  and  C14_19 
REMARK    5  A    between atoms: C14_19  and  N3_21 
ROOT
ATOM      1  C9  <0> d           0.036  -6.935   0.913  0.00  0.00     0.125 C 
ENDROOT
BRANCH   1   2
ATOM      2  S1  <0> d           0.246  -5.679   2.205  0.00  0.00    -0.080 SA
BRANCH   2   3
ATOM      3  C8  <0> d           0.244  -4.155   1.322  0.00  0.00     0.168 A 
ATOM      4  N1  <0> d           0.381  -2.919   1.889  0.00  0.00    -0.333 N 
ATOM      5  C6  <0> d           0.327  -1.989   0.863  0.00  0.00     0.063 A 
ATOM      6  H17 <0> d           0.494  -2.728   2.833  0.00  0.00     0.168 HD
ATOM      7  C5  <0> d           0.154  -2.723  -0.322  0.00  0.00     0.086 A 
ATOM      8  C7  <0> d           0.412  -0.606   0.815  0.00  0.00     0.038 A 
ATOM      9  C4  <0> d           0.064  -2.048  -1.542  0.00  0.00     0.034 A 
ATOM     10  N2  <0> d           0.111  -4.036   0.024  0.00  0.00    -0.223 NA
ATOM     11  C3  <0> d           0.146  -0.674  -1.571  0.00  0.00     0.009 A 
ATOM     12  C2  <0> d           0.316   0.046  -0.397  0.00  0.00    -0.060 A 
ATOM     13  C1  <0> d           0.403   1.550  -0.448  0.00  0.00     0.048 C 
ENDBRANCH   2   3
ENDBRANCH   1   2
BRANCH   1  14
ATOM     14  C10 <0> d           0.194  -8.307   1.515  0.00  0.00     0.000 A 
ATOM     15  S2  <0> d          -0.756  -9.081   2.814  0.00  0.00    -0.081 SA
ATOM     16  C13 <0> d           0.109 -10.642   2.863  0.00  0.00     0.075 A 
ATOM     17  C12 <0> d           1.055 -10.469   1.906  0.00  0.00     0.032 A 
ATOM     18 Cl1  <0> d          -0.181 -12.021   3.877  0.00  0.00    -0.076 Cl
ATOM     19  C11 <0> d           1.098  -9.272   1.216  0.00  0.00     0.018 A 
ENDBRANCH   1  14
BRANCH   1  20
ATOM     20  C14 <0> d          -1.359  -6.806   0.298  0.00  0.00     0.198 C 
ATOM     21  C15 <0> d          -2.410  -6.833   1.409  0.00  0.00     0.041 C 
BRANCH  20  22
ATOM     22  N3  <0> d          -1.592  -7.924  -0.626  0.00  0.00    -0.074 N 
ATOM     23  H14 <0> d          -1.569  -8.793  -0.114  0.00  0.00     0.274 HD
ATOM     24  H15 <0> d          -2.495  -7.815  -1.064  0.00  0.00     0.274 HD
ATOM     25  H16 <0> d          -0.874  -7.931  -1.334  0.00  0.00     0.274 HD
ENDBRANCH  20  22
ENDBRANCH   1  20
TORSDOF 5
