REMARK  6 active torsions:
REMARK  status: ('A' for Active; 'I' for Inactive)
REMARK    1  A    between atoms: C3_3  and  C11_14 
REMARK    2  A    between atoms: C4_5  and  C5_7 
REMARK    3  A    between atoms: C11_14  and  N3_35 
REMARK    4  A    between atoms: C14_17  and  C17_20 
REMARK       I    between atoms: C17_20  and  N2_22 
REMARK    5  A    between atoms: N2_22  and  C18_23 
REMARK    6  A    between atoms: C18_23  and  C19_24 
ROOT
ATOM      1  C12 <0> d          -0.019   1.526   0.010  0.00  0.00     0.236 C 
ATOM      2  C13 <0> d           0.002  -0.004   0.002  0.00  0.00     0.042 C 
ATOM      3  C14 <0> d           0.761  -0.506   1.233  0.00  0.00     0.081 C 
ATOM      4  C15 <0> d           2.177   0.078   1.224  0.00  0.00     0.042 C 
ATOM      5  C16 <0> d           2.093   1.605   1.197  0.00  0.00     0.236 C 
ATOM      6  N3  <0> d           1.373   2.025  -0.024  0.00  0.00    -0.066 N 
ATOM      7  H29 <0> d           1.848   1.629  -0.844  0.00  0.00     0.280 HD
ENDROOT
BRANCH   3   8
ATOM      8  C17 <0> d           0.837  -2.011   1.200  0.00  0.00     0.222 C 
ATOM      9  O2  <0> d           0.334  -2.623   0.281  0.00  0.00    -0.273 OA
ATOM     10  N2  <0> d           1.464  -2.677   2.189  0.00  0.00    -0.358 N 
ATOM     11  H20 <0> d           1.866  -2.187   2.924  0.00  0.00     0.162 HD
BRANCH  10  12
ATOM     12  C18 <0> d           1.537  -4.139   2.156  0.00  0.00     0.157 C 
BRANCH  12  13
ATOM     13  C19 <0> d           2.296  -4.640   3.387  0.00  0.00     0.171 C 
ATOM     14  O4  <0> d           3.631  -4.121   3.376  0.00  0.00    -0.339 OA
ATOM     15  C26 <0> d           4.518  -4.699   4.231  0.00  0.00     0.102 A 
ATOM     16  C21 <0> d           4.256  -5.940   4.797  0.00  0.00     0.102 A 
ATOM     17  C25 <0> d           5.699  -4.037   4.536  0.00  0.00     0.039 A 
ATOM     18  O3  <0> d           3.102  -6.605   4.514  0.00  0.00    -0.346 OA
ATOM     19  C22 <0> d           5.176  -6.513   5.662  0.00  0.00     0.039 A 
ATOM     20  C20 <0> d           2.376  -6.172   3.358  0.00  0.00     0.209 C 
ATOM     21  C23 <0> d           6.351  -5.848   5.961  0.00  0.00     0.003 A 
ATOM     22  C24 <0> d           6.611  -4.612   5.400  0.00  0.00     0.003 A 
ENDBRANCH  12  13
ENDBRANCH  10  12
ENDBRANCH   3   8
BRANCH   6  23
ATOM     23  C11 <0> d           1.378   3.499  -0.132  0.00  0.00     0.296 C 
BRANCH  23  24
ATOM     24  C3  <0> d           2.776   4.006   0.106  0.00  0.00     0.092 A 
ATOM     25  C2  <0> d           3.294   4.377   1.292  0.00  0.00     0.078 A 
ATOM     26  C1  <0> d           2.584   4.361   2.621  0.00  0.00     0.079 C 
ATOM     27  O1  <0> d           4.566   4.762   1.070  0.00  0.00    -0.294 OA
ATOM     28  C4  <0> d           4.809   4.632  -0.245  0.00  0.00     0.180 A 
ATOM     29  N1  <0> d           3.725   4.175  -0.827  0.00  0.00    -0.224 NA
BRANCH  28  30
ATOM     30  C5  <0> d           6.084   4.950  -0.923  0.00  0.00     0.018 A 
ATOM     31  C10 <0> d           6.210   4.764  -2.301  0.00  0.00     0.035 A 
ATOM     32  C9  <0> d           7.402   5.067  -2.928  0.00  0.00     0.011 A 
ATOM     33  C8  <0> d           8.473   5.545  -2.192  0.00  0.00     0.019 A 
ATOM     34 Br1  <0> d           7.575   4.822  -4.795  0.00  0.00    -0.051 Br
ATOM     35  C7  <0> d           8.355   5.727  -0.826  0.00  0.00     0.002 A 
ATOM     36  C6  <0> d           7.168   5.432  -0.188  0.00  0.00     0.016 A 
ENDBRANCH  28  30
ENDBRANCH  23  24
ENDBRANCH   6  23
TORSDOF 6
