REMARK  3 active torsions:
REMARK  status: ('A' for Active; 'I' for Inactive)
REMARK    1  A    between atoms: C3_4  and  N3_7 
REMARK       I    between atoms: N3_7  and  C5_8 
REMARK    2  A    between atoms: C5_8  and  C6_10 
REMARK    3  A    between atoms: N4_14  and  C10_16 
ROOT
ATOM      1  C6  <0> d           0.069  -5.679  -1.816  0.00  0.00     0.105 C 
ATOM      2  C7  <0> d          -1.227  -5.786  -2.653  0.00  0.00     0.119 C 
ATOM      3  C8  <0> d          -1.518  -7.270  -2.697  0.00  0.00     0.225 C 
ATOM      4  O2  <0> d          -2.279  -7.806  -3.475  0.00  0.00    -0.273 OA
ATOM      5  N4  <0> d          -0.812  -7.909  -1.748  0.00  0.00    -0.317 N 
ATOM      6  C9  <0> d           0.006  -6.970  -0.970  0.00  0.00     0.146 C 
ENDROOT
BRANCH   1   7
ATOM      7  C5  <0> d           0.043  -4.456  -0.936  0.00  0.00     0.228 C 
ATOM      8  N3  <0> d           0.028  -3.228  -1.490  0.00  0.00    -0.324 N 
ATOM      9  H7  <0> d           0.033  -3.131  -2.456  0.00  0.00     0.169 HD
ATOM     10  O1  <0> d           0.037  -4.577   0.271  0.00  0.00    -0.273 OA
BRANCH   8  11
ATOM     11  C3  <0> d           0.004  -2.085  -0.669  0.00  0.00     0.071 A 
ATOM     12  C2  <0> d          -0.014  -0.795  -1.093  0.00  0.00     0.142 A 
ATOM     13  N1  <0> d          -0.035  -0.002   0.009  0.00  0.00    -0.283 N 
ATOM     14  C1  <0> d          -0.057   1.463   0.016  0.00  0.00     0.179 C 
ATOM     15  N2  <0> d          -0.024  -0.832   1.137  0.00  0.00    -0.183 NA
ATOM     16  C4  <0> d          -0.007  -2.076   0.734  0.00  0.00     0.169 A 
ENDBRANCH   8  11
ENDBRANCH   1   7
BRANCH   5  17
ATOM     17  C10 <0> d          -0.850  -9.290  -1.531  0.00  0.00     0.037 A 
ATOM     18  C15 <0> d          -1.742 -10.082  -2.240  0.00  0.00     0.037 A 
ATOM     19  C14 <0> d          -1.778 -11.449  -2.030  0.00  0.00    -0.050 A 
ATOM     20  C13 <0> d          -0.930 -12.026  -1.102  0.00  0.00    -0.052 A 
ATOM     21  C16 <0> d          -2.641 -12.517  -2.668  0.00  0.00     0.039 C 
ATOM     22  C12 <0> d          -0.042 -11.236  -0.390  0.00  0.00     0.010 A 
ATOM     23  C18 <0> d          -1.166 -13.521  -1.055  0.00  0.00     0.039 C 
ATOM     24  C11 <0> d           0.000  -9.873  -0.600  0.00  0.00     0.030 A 
ATOM     25  C17 <0> d          -1.931 -13.851  -2.354  0.00  0.00     0.009 C 
ENDBRANCH   5  17
TORSDOF 3
