REMARK  8 active torsions:
REMARK  status: ('A' for Active; 'I' for Inactive)
REMARK    1  A    between atoms: C2_2  and  C3_3 
REMARK    2  A    between atoms: C3_3  and  C4_4 
REMARK    3  A    between atoms: C4_4  and  C6_6 
REMARK       I    between atoms: C6_6  and  N1_8 
REMARK    4  A    between atoms: C8_10  and  C15_18 
REMARK       I    between atoms: C15_18  and  N3_20 
REMARK    5  A    between atoms: N3_20  and  C16_21 
REMARK    6  A    between atoms: C16_21  and  C17_22 
REMARK    7  A    between atoms: C17_22  and  N4_23 
REMARK    8  A    between atoms: N4_23  and  C18_24 
ROOT
ATOM      1  C6  <0> d           1.432  -2.532  -2.693  0.00  0.00     0.223 C 
ATOM      2  O1  <0> d           1.761  -1.758  -3.567  0.00  0.00    -0.273 OA
ATOM      3  N1  <0> d           1.505  -3.861  -2.906  0.00  0.00    -0.350 N 
ATOM      4  C7  <0> d           1.145  -4.952  -1.970  0.00  0.00     0.140 C 
ATOM      5  C8  <0> d           0.461  -6.017  -2.857  0.00  0.00     0.106 C 
ATOM      6  C9  <0> d           1.004  -5.756  -4.272  0.00  0.00    -0.007 C 
ATOM      7  C10 <0> d           1.958  -4.561  -4.132  0.00  0.00     0.136 C 
ATOM      8  C11 <0> d           1.760  -6.980  -4.781  0.00  0.00     0.039 C 
ATOM      9  C12 <0> d           2.240  -6.718  -6.212  0.00  0.00     0.233 C 
ATOM     10  N2  <0> d           1.086  -6.437  -7.074  0.00  0.00    -0.075 N 
ATOM     11  C13 <0> d           0.419  -5.207  -6.632  0.00  0.00     0.233 C 
ATOM     12  C14 <0> d          -0.138  -5.404  -5.220  0.00  0.00     0.039 C 
ATOM     13  H21 <0> d           1.399  -6.326  -8.027  0.00  0.00     0.277 HD
ATOM     14  H37 <0> d           0.436  -7.207  -7.024  0.00  0.00     0.277 HD
ENDROOT
BRANCH   5  15
ATOM     15  C15 <0> d           0.835  -7.402  -2.395  0.00  0.00     0.224 C 
ATOM     16  O2  <0> d           1.916  -7.599  -1.883  0.00  0.00    -0.273 OA
ATOM     17  N3  <0> d          -0.033  -8.421  -2.552  0.00  0.00    -0.359 N 
ATOM     18  H26 <0> d          -0.897  -8.263  -2.962  0.00  0.00     0.162 HD
BRANCH  17  19
ATOM     19  C16 <0> d           0.331  -9.768  -2.104  0.00  0.00     0.142 C 
BRANCH  19  20
ATOM     20  C17 <0> d          -0.822 -10.731  -2.396  0.00  0.00     0.139 C 
BRANCH  20  21
ATOM     21  N4  <0> d          -0.458 -12.077  -1.948  0.00  0.00    -0.388 N 
ATOM     22  H31 <0> d           0.406 -12.235  -1.538  0.00  0.00     0.159 HD
BRANCH  21  23
ATOM     23  C18 <0> d          -1.357 -13.134  -2.110  0.00  0.00     0.028 A 
ATOM     24  C23 <0> d          -1.015 -14.411  -1.686  0.00  0.00     0.029 A 
ATOM     25  C22 <0> d          -1.908 -15.453  -1.843  0.00  0.00     0.002 A 
ATOM     26  C21 <0> d          -3.139 -15.227  -2.433  0.00  0.00     0.000 A 
ATOM     27  C20 <0> d          -3.481 -13.957  -2.862  0.00  0.00     0.002 A 
ATOM     28  C19 <0> d          -2.594 -12.911  -2.702  0.00  0.00     0.029 A 
ENDBRANCH  21  23
ENDBRANCH  20  21
ENDBRANCH  19  20
ENDBRANCH  17  19
ENDBRANCH   5  15
BRANCH   1  29
ATOM     29  C4  <0> d           0.942  -2.007  -1.368  0.00  0.00     0.074 C 
ATOM     30  C5  <0> d           1.856  -2.511  -0.250  0.00  0.00     0.020 C 
BRANCH  29  31
ATOM     31  C3  <0> d           0.956  -0.477  -1.389  0.00  0.00     0.013 C 
BRANCH  31  32
ATOM     32  C2  <0> d           0.342   0.056  -0.093  0.00  0.00    -0.004 C 
ATOM     33  C1  <0> d           0.357   1.586  -0.113  0.00  0.00     0.005 C 
ENDBRANCH  31  32
ENDBRANCH  29  31
ENDBRANCH   1  29
TORSDOF 8
