REMARK  5 active torsions:
REMARK  status: ('A' for Active; 'I' for Inactive)
REMARK    1  A    between atoms: C6_6  and  C12_14 
REMARK    2  A    between atoms: C12_14  and  S1_15 
REMARK    3  A    between atoms: S1_15  and  C13_16 
REMARK    4  A    between atoms: C14_18  and  N4_23 
REMARK    5  A    between atoms: C16_20  and  N3_22 
ROOT
ATOM      1  C12 <0> d           1.238  -2.169  -0.021  0.00  0.00     0.122 C 
ENDROOT
BRANCH   1   2
ATOM      2  C6  <0> d           1.189  -0.662  -0.013  0.00  0.00    -0.030 A 
ATOM      3  C5  <0> d           2.421   0.132  -0.020  0.00  0.00     0.006 A 
ATOM      4  C4  <0> d           3.676  -0.484  -0.036  0.00  0.00     0.015 A 
ATOM      5  C9  <0> d           2.328   1.534  -0.012  0.00  0.00     0.096 A 
ATOM      6  C3  <0> d           4.807   0.283  -0.042  0.00  0.00     0.008 A 
ATOM      7  C2  <0> d           4.719   1.667  -0.034  0.00  0.00    -0.053 A 
ATOM      8  C1  <0> d           5.979   2.495  -0.042  0.00  0.00     0.049 C 
ATOM      9  C10 <0> d           3.491   2.294  -0.019  0.00  0.00    -0.021 A 
ATOM     10  C11 <0> d           3.411   3.799  -0.011  0.00  0.00     0.052 C 
ATOM     11  O2  <0> d           1.115   2.128   0.003  0.00  0.00    -0.274 OA
ATOM     12  C8  <0> d          -0.017   1.408   0.010  0.00  0.00     0.288 A 
ATOM     13  C7  <0> d           0.002  -0.004   0.002  0.00  0.00     0.091 A 
ATOM     14  O1  <0> d          -1.088   1.986   0.018  0.00  0.00    -0.260 OA
ENDBRANCH   1   2
BRANCH   1  15
ATOM     15  S1  <0> d           1.242  -2.763  -1.730  0.00  0.00    -0.085 SA
BRANCH  15  16
ATOM     16  C13 <0> d           1.302  -4.502  -1.450  0.00  0.00     0.192 A 
ATOM     17  N2  <0> d           1.319  -5.323  -2.490  0.00  0.00    -0.206 NA
ATOM     18  C16 <0> d           1.364  -6.641  -2.316  0.00  0.00     0.127 A 
ATOM     19  C15 <0> d           1.393  -7.154  -1.022  0.00  0.00     0.100 A 
ATOM     20  C14 <0> d           1.374  -6.260   0.045  0.00  0.00     0.127 A 
ATOM     21  N1  <0> d           1.334  -4.953  -0.205  0.00  0.00    -0.206 NA
BRANCH  18  22
ATOM     22  N3  <0> d           1.381  -7.494  -3.409  0.00  0.00    -0.384 N 
ATOM     23  H13 <0> d           1.360  -7.130  -4.308  0.00  0.00     0.157 HD
ATOM     24  H14 <0> d           1.414  -8.454  -3.275  0.00  0.00     0.157 HD
ENDBRANCH  18  22
BRANCH  20  25
ATOM     25  N4  <0> d           1.401  -6.725   1.351  0.00  0.00    -0.384 N 
ATOM     26  H15 <0> d           1.434  -7.678   1.526  0.00  0.00     0.157 HD
ATOM     27  H16 <0> d           1.388  -6.096   2.090  0.00  0.00     0.157 HD
ENDBRANCH  20  25
ENDBRANCH  15  16
ENDBRANCH   1  15
TORSDOF 5
