REMARK  6 active torsions:
REMARK  status: ('A' for Active; 'I' for Inactive)
REMARK    1  A    between atoms: C2_2  and  C3_3 
REMARK    2  A    between atoms: C2_2  and  N8_29 
REMARK    3  A    between atoms: C4_5  and  N5_12 
REMARK    4  A    between atoms: C5_7  and  N4_9 
REMARK    5  A    between atoms: C9_14  and  C10_15 
REMARK    6  A    between atoms: C9_14  and  N8_29 
ROOT
ATOM      1  C8  <0> d           2.281  -4.269   1.213  0.00  0.00     0.271 C 
ATOM      2  N8  <0> d           1.620  -4.634  -0.058  0.00  0.00    -0.057 N 
ATOM      3  H23 <0> d           2.086  -4.142  -0.829  0.00  0.00     0.280 HD
ENDROOT
BRANCH   2   4
ATOM      4  C2  <0> d           1.727  -6.091  -0.282  0.00  0.00     0.256 C 
ATOM      5  C1  <0> d           1.100  -6.431  -1.636  0.00  0.00     0.049 C 
BRANCH   4   6
ATOM      6  C3  <0> d           3.183  -6.479  -0.291  0.00  0.00     0.194 A 
ATOM      7  N3  <0> d           3.581  -7.558   0.360  0.00  0.00    -0.044 NA
ATOM      8  C5  <0> d           4.867  -7.905   0.355  0.00  0.00     0.741 A 
ATOM      9  N2  <0> d           5.749  -7.165  -0.307  0.00  0.00     0.130 NA
ATOM     10  C4  <0> d           5.345  -6.081  -0.961  0.00  0.00     0.737 A 
ATOM     11  N1  <0> d           4.058  -5.743  -0.954  0.00  0.00    -0.044 NA
BRANCH   8  12
ATOM     12  N4  <0> d           5.282  -9.031   1.036  0.00  0.00    -0.222 N 
ATOM     13  C6  <0> d           4.307  -9.846   1.765  0.00  0.00     0.168 C 
ATOM     14  C7  <0> d           6.696  -9.412   1.029  0.00  0.00     0.168 C 
ENDBRANCH   8  12
BRANCH  10  15
ATOM     15  N5  <0> d           6.258  -5.309  -1.649  0.00  0.00    -0.230 N 
ATOM     16  H12 <0> d           7.196  -5.557  -1.656  0.00  0.00     0.174 HD
ATOM     17  H13 <0> d           5.963  -4.517  -2.126  0.00  0.00     0.174 HD
ENDBRANCH  10  15
ENDBRANCH   4   6
ENDBRANCH   2   4
BRANCH   2  18
ATOM     18  C9  <0> d           0.198  -4.232  -0.021  0.00  0.00     0.313 C 
BRANCH  18  19
ATOM     19  C10 <0> d           0.119  -2.727  -0.013  0.00  0.00     0.133 A 
ATOM     20  N7  <0> d           1.227  -2.051  -0.020  0.00  0.00    -0.233 NA
ATOM     21  C17 <0> d           1.234  -0.695  -0.013  0.00  0.00     0.074 A 
ATOM     22  C12 <0> d           0.002  -0.004   0.002  0.00  0.00     0.061 A 
ATOM     23  C16 <0> d           2.426   0.032  -0.021  0.00  0.00     0.032 A 
ATOM     24  C11 <0> d          -1.235  -0.799   0.010  0.00  0.00     0.259 A 
ATOM     25  C13 <0> d          -0.017   1.389   0.010  0.00  0.00     0.019 A 
ATOM     26  N6  <0> d          -1.110  -2.147   0.002  0.00  0.00    -0.309 N 
ATOM     27  O1  <0> d          -2.329  -0.266   0.024  0.00  0.00    -0.267 OA
ATOM     28  H2  <0> d          -1.904  -2.703   0.007  0.00  0.00     0.170 HD
ATOM     29  C14 <0> d           1.173   2.084   0.002  0.00  0.00     0.001 A 
ATOM     30  C15 <0> d           2.386   1.408  -0.013  0.00  0.00     0.002 A 
ENDBRANCH  18  19
ENDBRANCH   2  18
TORSDOF 6
