REMARK  2 active torsions:
REMARK  status: ('A' for Active; 'I' for Inactive)
REMARK    1  A    between atoms: C5_5  and  C8_8 
REMARK    2  A    between atoms: C8_8  and  C9_9 
ROOT
ATOM      1  C9  <0> d          -1.161  -4.797   0.693  0.00  0.00    -0.037 A 
ATOM      2  C10 <0> d          -1.377  -4.467   2.020  0.00  0.00     0.011 A 
ATOM      3  C11 <0> d          -2.491  -4.941   2.682  0.00  0.00     0.032 A 
ATOM      4  C12 <0> d          -3.402  -5.754   2.016  0.00  0.00     0.062 A 
ATOM      5  C13 <0> d          -3.184  -6.087   0.678  0.00  0.00     0.062 A 
ATOM      6  C14 <0> d          -2.060  -5.598   0.021  0.00  0.00     0.040 A 
ATOM      7  N1  <0> d          -4.084  -6.900  -0.005  0.00  0.00    -0.317 N 
ATOM      8  H2  <0> d          -3.923  -7.127  -0.934  0.00  0.00     0.169 HD
ATOM      9  C15 <0> d          -5.178  -7.374   0.624  0.00  0.00     0.314 A 
ATOM     10  O1  <0> d          -5.966  -8.085   0.032  0.00  0.00    -0.262 OA
ATOM     11  C16 <0> d          -5.412  -7.018   2.053  0.00  0.00     0.314 A 
ATOM     12  O2  <0> d          -6.392  -7.435   2.637  0.00  0.00    -0.262 OA
ATOM     13  N2  <0> d          -4.524  -6.229   2.691  0.00  0.00    -0.317 N 
ATOM     14  H3  <0> d          -4.666  -5.992   3.620  0.00  0.00     0.169 HD
ENDROOT
BRANCH   1  15
ATOM     15  C8  <0> d           0.059  -4.275  -0.021  0.00  0.00     0.123 C 
ATOM     16 Br1  <0> d           1.668  -4.723   1.016  0.00  0.00    -0.081 Br
BRANCH  15  17
ATOM     17  C5  <0> d          -0.045  -2.779  -0.165  0.00  0.00    -0.039 A 
ATOM     18  C4  <0> d           0.007  -1.971   0.955  0.00  0.00     0.009 A 
ATOM     19  C3  <0> d          -0.088  -0.599   0.823  0.00  0.00     0.007 A 
ATOM     20  C2  <0> d          -0.234  -0.033  -0.430  0.00  0.00    -0.062 A 
ATOM     21  C1  <0> d          -0.337   1.463  -0.574  0.00  0.00     0.048 C 
ATOM     22  C7  <0> d          -0.290  -0.841  -1.550  0.00  0.00     0.007 A 
ATOM     23  C6  <0> d          -0.191  -2.213  -1.418  0.00  0.00     0.009 A 
ENDBRANCH  15  17
ENDBRANCH   1  15
TORSDOF 2
