REMARK  5 active torsions:
REMARK  status: ('A' for Active; 'I' for Inactive)
REMARK    1  A    between atoms: C4_4  and  N2_10 
REMARK       I    between atoms: N2_10  and  C9_11 
REMARK    2  A    between atoms: C9_11  and  C10_13 
REMARK    3  A    between atoms: C10_13  and  S1_14 
REMARK    4  A    between atoms: S1_14  and  C11_15 
REMARK    5  A    between atoms: C12_18  and  C13_21 
ROOT
ATOM      1  N2  <0> d          -3.540  -0.922   1.007  0.00  0.00    -0.356 N 
ATOM      2  C9  <0> d          -4.546  -0.473   1.784  0.00  0.00     0.227 C 
ATOM      3  O1  <0> d          -4.333   0.384   2.615  0.00  0.00    -0.273 OA
ATOM      4  H17 <0> d          -3.710  -1.608   0.342  0.00  0.00     0.162 HD
ENDROOT
BRANCH   2   5
ATOM      5  C10 <0> d          -5.934  -1.037   1.621  0.00  0.00     0.185 C 
BRANCH   5   6
ATOM      6  S1  <0> d          -7.054  -0.236   2.801  0.00  0.00    -0.081 SA
BRANCH   6   7
ATOM      7  C11 <0> d          -8.614  -0.994   2.488  0.00  0.00     0.185 A 
ATOM      8  N3  <0> d          -8.856  -1.924   1.591  0.00  0.00    -0.201 NA
ATOM      9  C12 <0> d         -10.152  -2.264   1.632  0.00  0.00     0.182 A 
ATOM     10  N4  <0> d         -10.750  -1.552   2.559  0.00  0.00    -0.152 NA
ATOM     11  N5  <0> d          -9.771  -0.724   3.133  0.00  0.00    -0.253 N 
ATOM     12  H1  <0> d          -9.901  -0.083   3.849  0.00  0.00     0.191 HD
BRANCH   9  13
ATOM     13  C13 <0> d         -10.805  -3.280   0.769  0.00  0.00     0.013 A 
ATOM     14  C18 <0> d         -12.166  -3.545   0.909  0.00  0.00     0.017 A 
ATOM     15  C17 <0> d         -12.770  -4.487   0.101  0.00  0.00     0.020 A 
ATOM     16  C16 <0> d         -12.023  -5.176  -0.840  0.00  0.00     0.011 A 
ATOM     17  C15 <0> d         -10.670  -4.920  -0.979  0.00  0.00     0.020 A 
ATOM     18 Br1  <0> d         -12.855  -6.470  -1.939  0.00  0.00    -0.051 Br
ATOM     19  C14 <0> d         -10.058  -3.976  -0.179  0.00  0.00     0.017 A 
ENDBRANCH   9  13
ENDBRANCH   6   7
ENDBRANCH   5   6
ENDBRANCH   2   5
BRANCH   1  20
ATOM     20  C4  <0> d          -2.188  -0.373   1.166  0.00  0.00     0.089 C 
ATOM     21  C3  <0> d          -1.419  -0.538  -0.145  0.00  0.00     0.063 C 
ATOM     22  C2  <0> d           0.002  -0.004   0.002  0.00  0.00     0.121 C 
ATOM     23  C1  <0> d          -0.019   1.528   0.010  0.00  0.00     0.046 C 
ATOM     24  N1  <0> d           0.697  -0.529   1.164  0.00  0.00    -0.059 N 
ATOM     25  C19 <0> d           0.791  -0.440  -1.254  0.00  0.00     0.046 C 
ATOM     26  C6  <0> d          -0.030  -0.627   2.418  0.00  0.00     0.121 C 
ATOM     27  H10 <0> d           1.056  -1.460   0.929  0.00  0.00     0.279 HD
ATOM     28  H27 <0> d           1.534   0.040   1.322  0.00  0.00     0.279 HD
ATOM     29  C5  <0> d          -1.451  -1.155   2.253  0.00  0.00     0.063 C 
ATOM     30  C7  <0> d           0.730  -1.621   3.326  0.00  0.00     0.046 C 
ATOM     31  C8  <0> d          -0.059   0.719   3.151  0.00  0.00     0.046 C 
ENDBRANCH   1  20
TORSDOF 5
