REMARK  5 active torsions:
REMARK  status: ('A' for Active; 'I' for Inactive)
REMARK    1  A    between atoms: N1_4  and  C7_9 
REMARK    2  A    between atoms: C7_9  and  C9_11 
REMARK       I    between atoms: C9_11  and  N2_13 
REMARK    3  A    between atoms: N2_13  and  C10_14 
REMARK    4  A    between atoms: C17_22  and  C18_23 
REMARK    5  A    between atoms: C18_23  and  O4_25 
ROOT
ATOM      1  C10 <0> d          -3.981  -6.583   0.134  0.00  0.00     0.057 A 
ATOM      2  C11 <0> d          -4.727  -7.739  -0.021  0.00  0.00     0.017 A 
ATOM      3  C12 <0> d          -6.122  -7.984  -0.009  0.00  0.00     0.039 A 
ATOM      4  C13 <0> d          -6.584  -9.246  -0.190  0.00  0.00     0.035 A 
ATOM      5  C14 <0> d          -5.714 -10.323  -0.391  0.00  0.00     0.026 A 
ATOM      6  C15 <0> d          -4.369 -10.162  -0.413  0.00  0.00     0.032 A 
ATOM      7  C16 <0> d          -3.809  -8.871  -0.232  0.00  0.00     0.041 A 
ATOM      8  N3  <0> d          -2.558  -8.458  -0.212  0.00  0.00    -0.371 N 
ATOM      9  C17 <0> d          -2.535  -7.008   0.009  0.00  0.00     0.233 A 
ATOM     10 Cl1  <0> d          -8.296  -9.532  -0.173  0.00  0.00    -0.084 Cl
ATOM     11  H25 <0> d          -1.777  -9.022  -0.329  0.00  0.00     0.161 HD
ENDROOT
BRANCH   1  12
ATOM     12  N2  <0> d          -4.452  -5.322   0.348  0.00  0.00    -0.326 N 
ATOM     13  C9  <0> d          -3.599  -4.279   0.367  0.00  0.00     0.255 C 
ATOM     14  O2  <0> d          -2.428  -4.448   0.104  0.00  0.00    -0.271 OA
ATOM     15  H18 <0> d          -5.400  -5.176   0.488  0.00  0.00     0.168 HD
BRANCH  13  16
ATOM     16  C7  <0> d          -4.102  -2.901   0.715  0.00  0.00     0.310 C 
ATOM     17  C8  <0> d          -4.806  -2.294  -0.500  0.00  0.00     0.053 C 
BRANCH  16  18
ATOM     18  N1  <0> d          -2.969  -2.050   1.100  0.00  0.00     0.106 N 
ATOM     19  C3  <0> d          -2.160  -1.686  -0.072  0.00  0.00     0.305 C 
ATOM     20  C2  <0> d          -0.960  -0.850   0.382  0.00  0.00     0.146 C 
ATOM     21  C1  <0> d          -0.159  -0.401  -0.842  0.00  0.00     0.041 C 
ATOM     22  O1  <0> d          -1.427   0.298   1.095  0.00  0.00    -0.378 OA
ATOM     23  C5  <0> d          -2.219  -0.019   2.243  0.00  0.00     0.146 C 
ATOM     24  C4  <0> d          -3.431  -0.847   1.808  0.00  0.00     0.305 C 
ATOM     25  C6  <0> d          -2.694   1.272   2.910  0.00  0.00     0.041 C 
ENDBRANCH  16  18
ENDBRANCH  13  16
ENDBRANCH   1  12
BRANCH   9  26
ATOM     26  C18 <0> d          -1.789  -6.692   1.279  0.00  0.00     0.287 C 
ATOM     27  O3  <0> d          -1.837  -7.455   2.214  0.00  0.00    -0.262 OA
BRANCH  26  28
ATOM     28  O4  <0> d          -1.071  -5.561   1.372  0.00  0.00    -0.325 OA
ATOM     29  C19 <0> d          -0.389  -5.325   2.605  0.00  0.00     0.213 C 
ENDBRANCH  26  28
ENDBRANCH   9  26
TORSDOF 5
