REMARK  3 active torsions:
REMARK  status: ('A' for Active; 'I' for Inactive)
REMARK    1  A    between atoms: C2_2  and  N1_4 
REMARK    2  A    between atoms: N2_7  and  C8_10 
REMARK    3  A    between atoms: C15_17  and  O1_18 
ROOT
ATOM      1  N1  <0> d          -1.396  -0.459  -0.022  0.00  0.00    -0.064 N 
ATOM      2  C4  <0> d          -2.083  -0.030  -1.247  0.00  0.00     0.265 C 
ATOM      3  C5  <0> d          -3.525  -0.541  -1.229  0.00  0.00     0.300 C 
ATOM      4  N2  <0> d          -3.521  -2.008  -1.138  0.00  0.00     0.099 N 
ATOM      5  C6  <0> d          -2.815  -2.454   0.072  0.00  0.00     0.300 C 
ATOM      6  C7  <0> d          -1.378  -1.927   0.043  0.00  0.00     0.265 C 
ATOM      7  H31 <0> d          -1.883  -0.093   0.782  0.00  0.00     0.280 HD
ENDROOT
BRANCH   4   8
ATOM      8  C8  <0> d          -4.889  -2.542  -1.176  0.00  0.00     0.251 C 
ATOM      9  C15 <0> d          -4.840  -4.053  -1.406  0.00  0.00     0.151 C 
ATOM     10  C14 <0> d          -5.728  -4.417  -2.597  0.00  0.00     0.034 C 
ATOM     11  C13 <0> d          -7.052  -3.657  -2.497  0.00  0.00     0.002 C 
ATOM     12  C12 <0> d          -7.936  -4.311  -1.433  0.00  0.00     0.000 C 
ATOM     13  C11 <0> d          -7.426  -3.929  -0.042  0.00  0.00     0.000 C 
ATOM     14  C10 <0> d          -7.096  -2.435  -0.012  0.00  0.00     0.002 C 
ATOM     15  C9  <0> d          -5.587  -2.250   0.154  0.00  0.00     0.038 C 
BRANCH   9  16
ATOM     16  O1  <0> d          -3.494  -4.451  -1.675  0.00  0.00    -0.393 OA
ATOM     17  H30 <0> d          -3.389  -5.399  -1.831  0.00  0.00     0.210 HD
ENDBRANCH   9  16
ENDBRANCH   4   8
BRANCH   1  18
ATOM     18  C2  <0> d          -0.017   0.047  -0.031  0.00  0.00     0.180 C 
ATOM     19  C1  <0> d          -0.035   1.575  -0.098  0.00  0.00     0.039 C 
ATOM     20  C3  <0> d           0.698  -0.399   1.247  0.00  0.00     0.039 C 
ENDBRANCH   1  18
TORSDOF 3
