REMARK  3 active torsions:
REMARK  status: ('A' for Active; 'I' for Inactive)
REMARK    1  A    between atoms: C6_6  and  C16_20 
REMARK    2  A    between atoms: N2_10  and  C10_13 
REMARK    3  A    between atoms: C9_11  and  O1_12 
ROOT
ATOM      1  C1  <0> d          -0.019   1.526   0.010  0.00  0.00     0.015 C 
ATOM      2  C2  <0> d           0.002  -0.004   0.002  0.00  0.00    -0.036 C 
ATOM      3  C3  <0> d           0.744  -0.503  -1.239  0.00  0.00     0.067 C 
ATOM      4  C4  <0> d           2.172  -0.006  -1.216  0.00  0.00     0.022 C 
ATOM      5  C5  <0> d           2.816   0.190  -0.045  0.00  0.00     0.024 C 
ATOM      6  C6  <0> d           4.246   0.680   0.037  0.00  0.00     0.105 C 
ATOM      7  C7  <0> d           4.899   0.572  -1.312  0.00  0.00     0.056 A 
ATOM      8  C8  <0> d           4.149   0.354  -2.491  0.00  0.00     0.160 A 
ATOM      9  N1  <0> d           4.971   0.310  -3.498  0.00  0.00    -0.146 NA
ATOM     10  N2  <0> d           6.274   0.493  -3.009  0.00  0.00    -0.209 N 
ATOM     11  C9  <0> d           6.199   0.651  -1.656  0.00  0.00     0.175 A 
ATOM     12  N3  <0> d           2.759   0.221  -2.436  0.00  0.00    -0.342 N 
ATOM     13  C20 <0> d           2.169  -0.052   1.182  0.00  0.00     0.159 C 
ATOM     14  O2  <0> d           2.781   0.121   2.218  0.00  0.00    -0.293 OA
ATOM     15  C21 <0> d           0.742  -0.518   1.242  0.00  0.00     0.092 C 
ATOM     16  C22 <0> d          -1.431  -0.539  -0.002  0.00  0.00     0.015 C 
ATOM     17  H13 <0> d           2.221   0.287  -3.240  0.00  0.00     0.167 HD
ENDROOT
BRANCH  10  18
ATOM     18  C10 <0> d           7.447   0.510  -3.776  0.00  0.00     0.061 A 
ATOM     19  C15 <0> d           7.562  -0.313  -4.889  0.00  0.00     0.031 A 
ATOM     20  C14 <0> d           8.716  -0.290  -5.646  0.00  0.00     0.002 A 
ATOM     21  C13 <0> d           9.762   0.543  -5.290  0.00  0.00     0.000 A 
ATOM     22  C12 <0> d           9.652   1.359  -4.179  0.00  0.00     0.002 A 
ATOM     23  C11 <0> d           8.498   1.345  -3.421  0.00  0.00     0.031 A 
ENDBRANCH  10  18
BRANCH  11  24
ATOM     24  O1  <0> d           7.243   0.852  -0.812  0.00  0.00    -0.344 OA
ATOM     25  H7  <0> d           7.627   0.037  -0.460  0.00  0.00     0.219 HD
ENDBRANCH  11  24
BRANCH   6  26
ATOM     26  C16 <0> d           4.257   2.119   0.484  0.00  0.00    -0.004 A 
ATOM     27  S1  <0> d           3.517   3.544  -0.296  0.00  0.00    -0.105 SA
ATOM     28  C19 <0> d           4.023   4.774   0.895  0.00  0.00     0.050 A 
ATOM     29  C18 <0> d           4.717   4.029   1.790  0.00  0.00     0.008 A 
ATOM     30  C17 <0> d           4.837   2.668   1.579  0.00  0.00     0.016 A 
ENDBRANCH   6  26
TORSDOF 3
