REMARK  3 active torsions:
REMARK  status: ('A' for Active; 'I' for Inactive)
REMARK    1  A    between atoms: C4_5  and  C5_6 
REMARK       I    between atoms: C5_6  and  N1_8 
REMARK    2  A    between atoms: N1_8  and  N2_9 
REMARK       I    between atoms: N2_9  and  C6_10 
REMARK    3  A    between atoms: C6_10  and  C7_12 
ROOT
ATOM      1  N2  <0> d          -2.136  -3.058   0.006  0.00  0.00    -0.262 N 
ATOM      2  C6  <0> d          -1.977  -4.396  -0.003  0.00  0.00     0.277 C 
ATOM      3  O3  <0> d          -0.859  -4.877  -0.016  0.00  0.00    -0.265 OA
ATOM      4  H4  <0> d          -3.027  -2.675   0.017  0.00  0.00     0.190 HD
ENDROOT
BRANCH   1   5
ATOM      5  N1  <0> d          -1.014  -2.220  -0.000  0.00  0.00    -0.261 N 
ATOM      6  C5  <0> d          -1.172  -0.881   0.009  0.00  0.00     0.293 C 
ATOM      7  O2  <0> d          -2.290  -0.401   0.022  0.00  0.00    -0.264 OA
ATOM      8  H3  <0> d          -0.122  -2.602  -0.011  0.00  0.00     0.190 HD
BRANCH   6   9
ATOM      9  C4  <0> d           0.002  -0.004   0.002  0.00  0.00     0.146 A 
ATOM     10  C1  <0> d          -0.016   1.362   0.009  0.00  0.00     0.046 A 
ATOM     11  C2  <0> d           1.321   1.784  -0.001  0.00  0.00     0.048 A 
ATOM     12  C3  <0> d           2.090   0.670  -0.014  0.00  0.00     0.122 A 
ATOM     13  O1  <0> d           1.291  -0.405  -0.012  0.00  0.00    -0.298 OA
ATOM     14 Br1  <0> d           3.981   0.637  -0.033  0.00  0.00    -0.023 Br
ENDBRANCH   6   9
ENDBRANCH   1   5
BRANCH   2  15
ATOM     15  C7  <0> d          -3.152  -5.274   0.004  0.00  0.00     0.075 A 
ATOM     16  S1  <0> d          -4.880  -4.839   0.023  0.00  0.00    -0.089 SA
ATOM     17  C10 <0> d          -5.532  -6.380   0.014  0.00  0.00    -0.010 A 
ATOM     18  C9  <0> d          -4.474  -7.234   0.009  0.00  0.00    -0.043 A 
ATOM     19  C11 <0> d          -6.992  -6.726   0.013  0.00  0.00     0.046 C 
ATOM     20  C8  <0> d          -3.209  -6.653   0.003  0.00  0.00     0.033 A 
ATOM     21  C15 <0> d          -4.642  -8.749   0.012  0.00  0.00     0.040 C 
ATOM     22  C14 <0> d          -5.702  -9.164  -1.002  0.00  0.00     0.005 C 
ATOM     23  C13 <0> d          -7.083  -9.181  -0.353  0.00  0.00     0.001 C 
ATOM     24  C12 <0> d          -7.196  -8.082   0.698  0.00  0.00     0.005 C 
ENDBRANCH   2  15
TORSDOF 3
