REMARK  6 active torsions:
REMARK  status: ('A' for Active; 'I' for Inactive)
REMARK    1  A    between atoms: C2_2  and  S1_3 
REMARK    2  A    between atoms: S1_3  and  C3_4 
REMARK    3  A    between atoms: C4_5  and  C8_10 
REMARK       I    between atoms: C8_10  and  N2_12 
REMARK    4  A    between atoms: C10_14  and  C17_22 
REMARK       I    between atoms: C17_22  and  N4_24 
REMARK    5  A    between atoms: N4_24  and  C18_25 
REMARK    6  A    between atoms: C18_25  and  C19_26 
ROOT
ATOM      1  C8  <0> d           2.067  -2.695   3.296  0.00  0.00     0.256 C 
ATOM      2  O1  <0> d           2.114  -1.481   3.362  0.00  0.00    -0.267 OA
ATOM      3  N2  <0> d           2.504  -3.443   4.328  0.00  0.00    -0.346 N 
ATOM      4  C9  <0> d           2.625  -4.919   4.392  0.00  0.00     0.141 C 
ATOM      5  C10 <0> d           3.943  -5.170   5.158  0.00  0.00     0.106 C 
ATOM      6  C11 <0> d           4.165  -3.893   5.986  0.00  0.00    -0.007 C 
ATOM      7  C12 <0> d           2.979  -2.977   5.652  0.00  0.00     0.136 C 
ATOM      8  C13 <0> d           5.473  -3.221   5.580  0.00  0.00     0.039 C 
ATOM      9  C14 <0> d           5.700  -1.985   6.456  0.00  0.00     0.233 C 
ATOM     10  N3  <0> d           5.750  -2.386   7.867  0.00  0.00    -0.075 N 
ATOM     11  C15 <0> d           4.456  -2.947   8.274  0.00  0.00     0.233 C 
ATOM     12  C16 <0> d           4.177  -4.223   7.475  0.00  0.00     0.039 C 
ATOM     13  H19 <0> d           6.471  -3.081   7.992  0.00  0.00     0.277 HD
ATOM     14  H36 <0> d           5.960  -1.581   8.437  0.00  0.00     0.277 HD
ENDROOT
BRANCH   5  15
ATOM     15  C17 <0> d           3.805  -6.367   6.062  0.00  0.00     0.224 C 
ATOM     16  O2  <0> d           2.728  -6.639   6.548  0.00  0.00    -0.273 OA
ATOM     17  N4  <0> d           4.880  -7.135   6.332  0.00  0.00    -0.358 N 
ATOM     18  H24 <0> d           5.741  -6.917   5.944  0.00  0.00     0.162 HD
BRANCH  17  19
ATOM     19  C18 <0> d           4.745  -8.299   7.212  0.00  0.00     0.156 C 
BRANCH  19  20
ATOM     20  C19 <0> d           6.102  -8.992   7.352  0.00  0.00     0.167 C 
ATOM     21  O3  <0> d           7.018  -8.119   8.020  0.00  0.00    -0.381 OA
ATOM     22  C22 <0> d           8.311  -8.692   8.228  0.00  0.00     0.198 C 
ATOM     23  C21 <0> d           8.170  -9.973   9.055  0.00  0.00     0.298 C 
ATOM     24  N5  <0> d           7.257 -10.896   8.366  0.00  0.00     0.088 N 
ATOM     25  C20 <0> d           5.939 -10.276   8.169  0.00  0.00     0.305 C 
ATOM     26  C23 <0> d           7.138 -12.164   9.100  0.00  0.00     0.310 C 
ENDBRANCH  19  20
ENDBRANCH  17  19
ENDBRANCH   5  15
BRANCH   1  27
ATOM     27  C4  <0> d           1.532  -3.346   2.087  0.00  0.00     0.067 A 
ATOM     28  C3  <0> d           1.759  -2.792   0.815  0.00  0.00     0.108 A 
ATOM     29  N1  <0> d           1.271  -3.380  -0.268  0.00  0.00    -0.253 NA
ATOM     30  C7  <0> d           0.573  -4.497  -0.197  0.00  0.00     0.118 A 
ATOM     31  C6  <0> d           0.309  -5.101   1.020  0.00  0.00     0.020 A 
ATOM     32  C5  <0> d           0.788  -4.528   2.184  0.00  0.00     0.021 A 
BRANCH  28  33
ATOM     33  S1  <0> d           2.690  -1.305   0.660  0.00  0.00    -0.110 SA
BRANCH  33  34
ATOM     34  C2  <0> d           2.709  -0.982  -1.125  0.00  0.00     0.076 C 
ATOM     35  C1  <0> d           3.496   0.299  -1.404  0.00  0.00     0.016 C 
ENDBRANCH  33  34
ENDBRANCH  28  33
ENDBRANCH   1  27
TORSDOF 6
