REMARK  7 active torsions:
REMARK  status: ('A' for Active; 'I' for Inactive)
REMARK    1  A    between atoms: C6_6  and  N1_9 
REMARK    2  A    between atoms: N1_9  and  C9_10 
REMARK    3  A    between atoms: C9_10  and  N2_11 
REMARK    4  A    between atoms: N2_11  and  N3_12 
REMARK       I    between atoms: N3_12  and  C10_13 
REMARK    5  A    between atoms: C10_13  and  C11_15 
REMARK    6  A    between atoms: C14_18  and  O3_22 
REMARK    7  A    between atoms: C16_20  and  O2_21 
ROOT
ATOM      1  N2  <0> d          -0.117  -4.819   3.548  0.00  0.00    -0.273 N 
ATOM      2  H10 <0> d          -0.177  -5.787   3.543  0.00  0.00     0.189 HD
ENDROOT
BRANCH   1   3
ATOM      3  C9  <0> d          -0.030  -4.143   2.385  0.00  0.00     0.191 C 
ATOM      4  S1  <0> d          -0.026  -4.992   0.899  0.00  0.00    -0.039 SA
BRANCH   3   5
ATOM      5  N1  <0> d           0.053  -2.797   2.392  0.00  0.00    -0.332 N 
ATOM      6  H17 <0> d           0.130  -2.321   3.233  0.00  0.00     0.168 HD
BRANCH   5   7
ATOM      7  C6  <0> d           0.027  -2.088   1.187  0.00  0.00     0.040 A 
ATOM      8  C5  <0> d          -0.894  -2.423   0.203  0.00  0.00     0.030 A 
ATOM      9  C4  <0> d          -0.917  -1.721  -0.987  0.00  0.00     0.003 A 
ATOM     10  C3  <0> d          -0.025  -0.686  -1.198  0.00  0.00     0.007 A 
ATOM     11  C2  <0> d           0.894  -0.351  -0.220  0.00  0.00    -0.054 A 
ATOM     12  C1  <0> d           1.865   0.777  -0.455  0.00  0.00     0.049 C 
ATOM     13  C7  <0> d           0.926  -1.052   0.969  0.00  0.00    -0.029 A 
ATOM     14  C8  <0> d           1.931  -0.690   2.031  0.00  0.00     0.051 C 
ENDBRANCH   5   7
ENDBRANCH   3   5
ENDBRANCH   1   3
BRANCH   1  15
ATOM     15  N3  <0> d          -0.121  -4.123   4.764  0.00  0.00    -0.264 N 
ATOM     16  C10 <0> d          -0.207  -4.799   5.927  0.00  0.00     0.272 C 
ATOM     17  O1  <0> d          -0.282  -6.013   5.920  0.00  0.00    -0.266 OA
ATOM     18  H11 <0> d          -0.061  -3.155   4.769  0.00  0.00     0.190 HD
BRANCH  16  19
ATOM     19  C11 <0> d          -0.211  -4.068   7.205  0.00  0.00     0.067 A 
ATOM     20  C16 <0> d          -0.301  -4.769   8.417  0.00  0.00     0.084 A 
ATOM     21  C15 <0> d          -0.298  -4.074   9.615  0.00  0.00     0.074 A 
ATOM     22  C14 <0> d          -0.219  -2.689   9.614  0.00  0.00     0.068 A 
ATOM     23  C13 <0> d          -0.135  -1.992   8.412  0.00  0.00     0.037 A 
ATOM     24  C12 <0> d          -0.131  -2.671   7.216  0.00  0.00     0.022 A 
BRANCH  20  25
ATOM     25  O2  <0> d          -0.384  -6.123   8.416  0.00  0.00    -0.360 OA
ATOM     26  H15 <0> d           0.473  -6.569   8.450  0.00  0.00     0.217 HD
ENDBRANCH  20  25
BRANCH  22  27
ATOM     27  O3  <0> d          -0.222  -2.011  10.789  0.00  0.00    -0.361 OA
ATOM     28  H16 <0> d          -1.105  -1.764  11.098  0.00  0.00     0.217 HD
ENDBRANCH  22  27
ENDBRANCH  16  19
ENDBRANCH   1  15
TORSDOF 7
