REMARK  5 active torsions:
REMARK  status: ('A' for Active; 'I' for Inactive)
REMARK    1  A    between atoms: C2_2  and  O1_3 
REMARK    2  A    between atoms: O1_3  and  C3_4 
REMARK    3  A    between atoms: C4_5  and  N1_12 
REMARK       I    between atoms: N1_12  and  C9_13 
REMARK    4  A    between atoms: C9_13  and  C10_15 
REMARK    5  A    between atoms: C10_15  and  N2_16 
ROOT
ATOM      1  C3  <0> d           0.811  -1.834   1.321  0.00  0.00     0.113 A 
ATOM      2  C4  <0> d          -0.181  -2.540   1.999  0.00  0.00     0.071 A 
ATOM      3  C5  <0> d          -0.069  -3.914   2.150  0.00  0.00     0.056 A 
ATOM      4  C6  <0> d           1.024  -4.581   1.628  0.00  0.00     0.037 A 
ATOM      5  C7  <0> d           2.009  -3.880   0.956  0.00  0.00     0.046 A 
ATOM      6  C8  <0> d           1.901  -2.510   0.796  0.00  0.00     0.048 A 
ATOM      7 Br1  <0> d           3.246  -1.557  -0.132  0.00  0.00    -0.048 Br
ATOM      8 Cl1  <0> d           1.162  -6.301   1.819  0.00  0.00    -0.084 Cl
ENDROOT
BRANCH   2   9
ATOM      9  N1  <0> d          -1.288  -1.862   2.527  0.00  0.00    -0.323 N 
ATOM     10  C9  <0> d          -2.498  -2.457   2.541  0.00  0.00     0.247 C 
ATOM     11  O2  <0> d          -2.613  -3.606   2.172  0.00  0.00    -0.271 OA
ATOM     12  H8  <0> d          -1.184  -0.966   2.882  0.00  0.00     0.169 HD
BRANCH  10  13
ATOM     13  C10 <0> d          -3.707  -1.693   3.016  0.00  0.00     0.332 C 
BRANCH  13  14
ATOM     14  N2  <0> d          -4.893  -2.555   2.935  0.00  0.00    -0.071 N 
ATOM     15  H11 <0> d          -5.033  -2.846   1.979  0.00  0.00     0.274 HD
ATOM     16  H12 <0> d          -4.759  -3.368   3.518  0.00  0.00     0.274 HD
ATOM     17  H13 <0> d          -5.703  -2.043   3.253  0.00  0.00     0.274 HD
ENDBRANCH  13  14
ENDBRANCH  10  13
ENDBRANCH   2   9
BRANCH   1  18
ATOM     18  O1  <0> d           0.706  -0.487   1.169  0.00  0.00    -0.348 OA
BRANCH  18  19
ATOM     19  C2  <0> d           0.024  -0.016   0.005  0.00  0.00     0.171 C 
ATOM     20  C1  <0> d           0.007   1.514   0.007  0.00  0.00     0.034 C 
ENDBRANCH  18  19
ENDBRANCH   1  18
TORSDOF 5
