REMARK  4 active torsions:
REMARK  status: ('A' for Active; 'I' for Inactive)
REMARK    1  A    between atoms: C6_6  and  C7_7 
REMARK    2  A    between atoms: C7_7  and  C8_8 
REMARK    3  A    between atoms: C8_8  and  C9_9 
REMARK    4  A    between atoms: C8_8  and  N1_17 
ROOT
ATOM      1  C8  <0> d          -1.745  -1.028  -1.429  0.00  0.00     0.227 C 
ENDROOT
BRANCH   1   2
ATOM      2  C7  <0> d          -1.293  -0.775   0.010  0.00  0.00     0.076 C 
BRANCH   2   3
ATOM      3  C6  <0> d           0.002  -0.004   0.002  0.00  0.00    -0.056 A 
ATOM      4  C1  <0> d          -0.017   1.378   0.010  0.00  0.00     0.008 A 
ATOM      5  C2  <0> d           1.171   2.086   0.002  0.00  0.00     0.019 A 
ATOM      6  C3  <0> d           2.378   1.411  -0.013  0.00  0.00     0.011 A 
ATOM      7  C4  <0> d           2.396   0.027  -0.021  0.00  0.00     0.019 A 
ATOM      8 Br1  <0> d           4.003   2.378  -0.024  0.00  0.00    -0.051 Br
ATOM      9  C5  <0> d           1.208  -0.679  -0.013  0.00  0.00     0.008 A 
ENDBRANCH   2   3
ENDBRANCH   1   2
BRANCH   1  10
ATOM     10  C9  <0> d          -2.972  -1.903  -1.424  0.00  0.00     0.014 A 
ATOM     11  S1  <0> d          -4.673  -1.453  -1.126  0.00  0.00    -0.097 SA
ATOM     12  C12 <0> d          -5.390  -3.068  -1.322  0.00  0.00    -0.011 A 
ATOM     13  C11 <0> d          -4.324  -3.862  -1.588  0.00  0.00    -0.044 A 
ATOM     14  C13 <0> d          -6.678  -3.838  -1.300  0.00  0.00     0.047 C 
ATOM     15  C10 <0> d          -3.070  -3.231  -1.638  0.00  0.00     0.024 A 
ATOM     16  C15 <0> d          -4.834  -5.295  -1.761  0.00  0.00     0.040 C 
ATOM     17  C14 <0> d          -6.350  -5.169  -2.010  0.00  0.00     0.010 C 
ENDBRANCH   1  10
BRANCH   1  18
ATOM     18  N1  <0> d          -2.059   0.253  -2.076  0.00  0.00    -0.070 N 
ATOM     19  H15 <0> d          -2.799   0.714  -1.568  0.00  0.00     0.275 HD
ATOM     20  H16 <0> d          -1.238   0.838  -2.080  0.00  0.00     0.275 HD
ATOM     21  H17 <0> d          -2.357   0.086  -3.026  0.00  0.00     0.275 HD
ENDBRANCH   1  18
TORSDOF 4
