REMARK  3 active torsions:
REMARK  status: ('A' for Active; 'I' for Inactive)
REMARK    1  A    between atoms: C4_4  and  N3_18 
REMARK    2  A    between atoms: C7_7  and  O3_17 
REMARK    3  A    between atoms: N1_9  and  O1_10 
ROOT
ATOM      1  C1  <0> d          -0.319   2.524  -0.204  0.00  0.00     0.001 C 
ATOM      2  C2  <0> d           1.117   2.854  -0.596  0.00  0.00     0.004 C 
ATOM      3  C3  <0> d           1.589   2.003  -1.794  0.00  0.00     0.068 C 
ATOM      4  C4  <0> d           1.402   0.569  -1.398  0.00  0.00     0.266 C 
ATOM      5  C5  <0> d          -0.107   0.294  -1.199  0.00  0.00     0.094 C 
ATOM      6  C6  <0> d          -0.519   1.021   0.062  0.00  0.00     0.013 C 
ATOM      7  C7  <0> d          -0.123  -1.208  -1.242  0.00  0.00     0.148 C 
ATOM      8  C8  <0> d          -0.011  -1.928   0.079  0.00  0.00     0.080 C 
ATOM      9  N1  <0> d          -0.154  -1.329   1.200  0.00  0.00    -0.142 NA
ATOM     10  C9  <0> d           0.284  -3.417  -0.019  0.00  0.00     0.061 C 
ATOM     11  C10 <0> d           1.562  -3.679  -0.811  0.00  0.00     0.012 C 
ATOM     12  C11 <0> d           1.515  -3.026  -2.203  0.00  0.00     0.059 C 
ATOM     13  C12 <0> d           1.181  -1.568  -1.967  0.00  0.00     0.059 C 
ATOM     14  N2  <0> d           1.925  -0.545  -2.131  0.00  0.00    -0.189 N 
ATOM     15  O2  <0> d           3.098  -0.515  -2.924  0.00  0.00    -0.083 OA
ENDROOT
BRANCH   4  16
ATOM     16  N3  <0> d           1.959   0.452  -0.043  0.00  0.00     0.124 N 
ATOM     17  C16 <0> d           2.307  -0.943   0.265  0.00  0.00     0.302 C 
ATOM     18  C15 <0> d           2.827  -1.028   1.702  0.00  0.00     0.198 C 
ATOM     19  O4  <0> d           3.942  -0.146   1.854  0.00  0.00    -0.388 OA
ATOM     20  C14 <0> d           3.638   1.221   1.563  0.00  0.00     0.198 C 
ATOM     21  C13 <0> d           3.127   1.329   0.123  0.00  0.00     0.302 C 
ENDBRANCH   4  16
BRANCH   7  22
ATOM     22  O3  <0> d          -1.252  -1.673  -1.984  0.00  0.00    -0.377 OA
ATOM     23  H17 <0> d          -1.314  -2.636  -2.045  0.00  0.00     0.211 HD
ENDBRANCH   7  22
BRANCH   9  24
ATOM     24  O1  <0> d          -1.244  -0.447   1.398  0.00  0.00    -0.266 OA
ATOM     25  H10 <0> d          -1.788  -0.660   2.168  0.00  0.00     0.247 HD
ENDBRANCH   9  24
TORSDOF 3
