REMARK  3 active torsions:
REMARK  status: ('A' for Active; 'I' for Inactive)
REMARK    1  A    between atoms: N1_12  and  C12_16 
REMARK    2  A    between atoms: C12_16  and  C13_17 
REMARK    3  A    between atoms: N4_25  and  C20_26 
ROOT
ATOM      1  C1  <0> d           2.085   5.387   4.807  0.00  0.00     0.001 A 
ATOM      2  C2  <0> d           1.114   4.405   4.872  0.00  0.00     0.001 A 
ATOM      3  C3  <0> d           0.666   3.801   3.714  0.00  0.00     0.011 A 
ATOM      4  C4  <0> d           1.185   4.175   2.485  0.00  0.00    -0.014 A 
ATOM      5  C5  <0> d           2.159   5.157   2.421  0.00  0.00    -0.049 A 
ATOM      6  C6  <0> d           2.606   5.761   3.584  0.00  0.00     0.007 A 
ATOM      7  C7  <0> d           2.567   5.382   0.980  0.00  0.00     0.042 C 
ATOM      8  C8  <0> d           1.442   4.743   0.135  0.00  0.00     0.051 C 
ATOM      9  C9  <0> d           0.876   3.688   1.095  0.00  0.00     0.144 A 
ATOM     10  C10 <0> d          -0.604   3.500   0.887  0.00  0.00     0.261 A 
ATOM     11  O1  <0> d          -1.475   4.337   0.994  0.00  0.00    -0.270 OA
ATOM     12  N1  <0> d          -0.753   2.200   0.551  0.00  0.00    -0.260 N 
ATOM     13  C11 <0> d           0.423   1.558   0.531  0.00  0.00     0.326 A 
ATOM     14  O2  <0> d           0.545   0.380   0.260  0.00  0.00    -0.247 OA
ATOM     15  N2  <0> d           1.455   2.369   0.839  0.00  0.00    -0.320 N 
ATOM     16  H9  <0> d           2.542   2.220   0.922  0.00  0.00     0.165 HD
ENDROOT
BRANCH  12  17
ATOM     17  C12 <0> d          -2.041   1.569   0.251  0.00  0.00     0.215 C 
BRANCH  17  18
ATOM     18  C13 <0> d          -2.703   1.143   1.536  0.00  0.00     0.130 A 
ATOM     19  N4  <0> d          -2.596  -0.092   2.096  0.00  0.00    -0.274 N 
ATOM     20  C19 <0> d          -3.342  -0.082   3.257  0.00  0.00     0.069 A 
ATOM     21  C14 <0> d          -3.891   1.208   3.355  0.00  0.00     0.086 A 
ATOM     22  C18 <0> d          -3.615  -1.025   4.239  0.00  0.00     0.032 A 
ATOM     23  N3  <0> d          -3.457   1.905   2.274  0.00  0.00    -0.231 NA
ATOM     24  C15 <0> d          -4.708   1.527   4.443  0.00  0.00     0.034 A 
ATOM     25  C16 <0> d          -4.965   0.586   5.400  0.00  0.00     0.002 A 
ATOM     26  C17 <0> d          -4.423  -0.688   5.304  0.00  0.00     0.002 A 
BRANCH  19  27
ATOM     27  C20 <0> d          -1.831  -1.222   1.565  0.00  0.00     0.466 C 
ATOM     28  F1  <0> d          -2.345  -2.417   2.081  0.00  0.00    -0.191 F 
ATOM     29  F2  <0> d          -1.928  -1.237   0.170  0.00  0.00    -0.191 F 
ENDBRANCH  19  27
ENDBRANCH  17  18
ENDBRANCH  12  17
TORSDOF 3
