REMARK  10 active torsions:
REMARK  status: ('A' for Active; 'I' for Inactive)
REMARK    1  A    between atoms: N2_5  and  C6_8 
REMARK    2  A    between atoms: C6_8  and  C7_9 
REMARK    3  A    between atoms: C7_9  and  C8_10 
REMARK    4  A    between atoms: C7_9  and  O2_27 
REMARK    5  A    between atoms: C8_10  and  O1_11 
REMARK    6  A    between atoms: O1_11  and  C9_12 
REMARK    7  A    between atoms: C12_15  and  C15_18 
REMARK    8  A    between atoms: C15_18  and  N3_19 
REMARK    9  A    between atoms: N3_19  and  C16_20 
REMARK   10  A    between atoms: C16_20  and  C17_21 
ROOT
ATOM      1  C9  <0> d           3.398  -7.757   2.337  0.00  0.00     0.068 A 
ATOM      2  C10 <0> d           2.837  -8.628   1.415  0.00  0.00     0.037 A 
ATOM      3  C11 <0> d           3.009  -9.991   1.559  0.00  0.00     0.011 A 
ATOM      4  C12 <0> d           3.740 -10.488   2.623  0.00  0.00    -0.033 A 
ATOM      5  C13 <0> d           4.300  -9.622   3.544  0.00  0.00     0.011 A 
ATOM      6  C14 <0> d           4.136  -8.258   3.400  0.00  0.00     0.037 A 
ENDROOT
BRANCH   1   7
ATOM      7  O1  <0> d           3.231  -6.416   2.197  0.00  0.00    -0.349 OA
BRANCH   7   8
ATOM      8  C8  <0> d           2.459  -5.972   1.079  0.00  0.00     0.209 C 
BRANCH   8   9
ATOM      9  C7  <0> d           2.381  -4.444   1.088  0.00  0.00     0.170 C 
BRANCH   9  10
ATOM     10  C6  <0> d           1.453  -3.974  -0.034  0.00  0.00     0.306 C 
BRANCH  10  11
ATOM     11  N2  <0> d           1.378  -2.507  -0.025  0.00  0.00     0.094 N 
ATOM     12  C3  <0> d           0.693  -2.008  -1.226  0.00  0.00     0.300 C 
ATOM     13  C2  <0> d           0.688  -0.477  -1.207  0.00  0.00     0.264 C 
ATOM     14  N1  <0> d           0.002  -0.004   0.002  0.00  0.00    -0.072 N 
ATOM     15  C1  <0> d          -0.018   1.465   0.010  0.00  0.00     0.269 C 
ATOM     16  C5  <0> d           0.713  -0.490   1.192  0.00  0.00     0.264 C 
ATOM     17  H30 <0> d          -0.945  -0.353   0.010  0.00  0.00     0.279 HD
ATOM     18  C4  <0> d           0.717  -2.021   1.194  0.00  0.00     0.300 C 
ENDBRANCH  10  11
ENDBRANCH   9  10
BRANCH   9  19
ATOM     19  O2  <0> d           3.686  -3.899   0.887  0.00  0.00    -0.392 OA
ATOM     20  H28 <0> d           4.096  -4.159   0.051  0.00  0.00     0.210 HD
ENDBRANCH   9  19
ENDBRANCH   8   9
ENDBRANCH   7   8
ENDBRANCH   1   7
BRANCH   4  21
ATOM     21  C15 <0> d           3.926 -11.975   2.778  0.00  0.00     0.271 C 
BRANCH  21  22
ATOM     22  N3  <0> d           5.140 -12.394   2.065  0.00  0.00    -0.067 N 
ATOM     23  H23 <0> d           5.051 -12.167   1.086  0.00  0.00     0.277 HD
ATOM     24  H29 <0> d           5.939 -11.913   2.450  0.00  0.00     0.277 HD
BRANCH  22  25
ATOM     25  C16 <0> d           5.321 -13.844   2.217  0.00  0.00     0.278 C 
BRANCH  25  26
ATOM     26  C17 <0> d           6.567 -14.274   1.486  0.00  0.00     0.010 A 
ATOM     27  S1  <0> d           6.748 -14.808  -0.208  0.00  0.00    -0.081 SA
ATOM     28  C20 <0> d           8.509 -15.101  -0.193  0.00  0.00     0.075 A 
ATOM     29  C19 <0> d           8.835 -14.784   1.085  0.00  0.00     0.032 A 
ATOM     30 Cl1  <0> d           9.536 -15.654  -1.478  0.00  0.00    -0.076 Cl
ATOM     31  C18 <0> d           7.839 -14.360   1.945  0.00  0.00     0.018 A 
ENDBRANCH  25  26
ENDBRANCH  22  25
ENDBRANCH  21  22
ENDBRANCH   4  21
TORSDOF 10
