REMARK  4 active torsions:
REMARK  status: ('A' for Active; 'I' for Inactive)
REMARK    1  A    between atoms: O1_2  and  C2_3 
REMARK    2  A    between atoms: C6_7  and  C8_10 
REMARK    3  A    between atoms: C7_8  and  O2_9 
REMARK    4  A    between atoms: N1_14  and  C12_18 
ROOT
ATOM      1  C8  <0> d           3.834   0.294  -1.899  0.00  0.00     0.039 C 
ATOM      2  C9  <0> d           4.927   0.538  -1.132  0.00  0.00     0.077 A 
ATOM      3  C10 <0> d           6.319   0.080  -1.304  0.00  0.00     0.270 A 
ATOM      4  O3  <0> d           6.647  -0.627  -2.239  0.00  0.00    -0.266 OA
ATOM      5  N1  <0> d           7.191   0.475  -0.393  0.00  0.00    -0.272 N 
ATOM      6  C11 <0> d           6.823   1.258   0.641  0.00  0.00     0.152 A 
ATOM      7  S1  <0> d           7.795   1.870   1.911  0.00  0.00    -0.052 SA
ATOM      8  S2  <0> d           5.077   1.510   0.361  0.00  0.00    -0.054 SA
ENDROOT
BRANCH   5   9
ATOM      9  C12 <0> d           8.494   0.082  -0.501  0.00  0.00     0.123 C 
ATOM     10  C13 <0> d           8.802  -1.255  -0.641  0.00  0.00     0.106 C 
ATOM     11  C21 <0> d           7.791  -2.341  -0.548  0.00  0.00     0.304 C 
ATOM     12  C14 <0> d          10.182  -1.757  -0.894  0.00  0.00     0.202 C 
ATOM     13  O5  <0> d           7.853  -3.299  -1.505  0.00  0.00    -0.274 OA
ATOM     14  O6  <0> d           6.956  -2.365   0.336  0.00  0.00    -0.259 OA
ATOM     15  C20 <0> d           9.067  -3.741  -1.911  0.00  0.00     0.093 A 
ATOM     16  C15 <0> d          10.245  -3.028  -1.657  0.00  0.00     0.049 A 
ATOM     17  C19 <0> d           9.145  -4.940  -2.614  0.00  0.00     0.038 A 
ATOM     18  C16 <0> d          11.472  -3.506  -2.116  0.00  0.00     0.018 A 
ATOM     19  C17 <0> d          11.525  -4.692  -2.816  0.00  0.00     0.001 A 
ATOM     20  C18 <0> d          10.363  -5.406  -3.060  0.00  0.00     0.003 A 
ATOM     21  O4  <0> d          11.177  -1.172  -0.506  0.00  0.00    -0.286 OA
ENDBRANCH   5   9
BRANCH   1  22
ATOM     22  C6  <0> d           2.506   0.723  -1.443  0.00  0.00     0.001 A 
ATOM     23  C5  <0> d           2.238   0.846  -0.074  0.00  0.00     0.014 A 
ATOM     24  C4  <0> d           0.990   1.249   0.349  0.00  0.00     0.004 A 
ATOM     25  C3  <0> d          -0.003   1.534  -0.573  0.00  0.00     0.039 A 
ATOM     26  C2  <0> d           0.246   1.417  -1.932  0.00  0.00     0.102 A 
ATOM     27  C7  <0> d           1.499   1.012  -2.376  0.00  0.00     0.109 A 
BRANCH  26  28
ATOM     28  O1  <0> d          -0.736   1.700  -2.830  0.00  0.00    -0.353 OA
ATOM     29  C1  <0> d          -1.998   2.111  -2.303  0.00  0.00     0.210 C 
ENDBRANCH  26  28
BRANCH  27  30
ATOM     30  O2  <0> d           1.746   0.896  -3.707  0.00  0.00    -0.357 OA
ATOM     31  H7  <0> d           2.082   1.705  -4.116  0.00  0.00     0.217 HD
ENDBRANCH  27  30
ENDBRANCH   1  22
TORSDOF 4
