REMARK  9 active torsions:
REMARK  status: ('A' for Active; 'I' for Inactive)
REMARK       I    between atoms: C2_2  and  N1_4 
REMARK    1  A    between atoms: N1_4  and  C3_5 
REMARK    2  A    between atoms: C3_5  and  C4_6 
REMARK    3  A    between atoms: C4_6  and  N2_7 
REMARK       I    between atoms: N2_7  and  C5_8 
REMARK    4  A    between atoms: C5_8  and  C6_10 
REMARK    5  A    between atoms: C6_10  and  C7_11 
REMARK    6  A    between atoms: C11_15  and  C12_16 
REMARK    7  A    between atoms: C12_16  and  C13_17 
REMARK    8  A    between atoms: C15_19  and  C16_22 
REMARK    9  A    between atoms: C19_25  and  C22_28 
ROOT
ATOM      1  C7  <0> d           3.706  -4.006  10.284  0.00  0.00     0.002 C 
ATOM      2  C8  <0> d           4.884  -4.984  10.266  0.00  0.00     0.033 C 
ATOM      3  C9  <0> d           6.194  -4.196  10.213  0.00  0.00     0.232 C 
ATOM      4  C10 <0> d           5.120  -2.378   9.025  0.00  0.00     0.237 C 
ATOM      5  C11 <0> d           3.777  -3.112   9.043  0.00  0.00     0.021 C 
ATOM      6  N4  <0> d           6.222  -3.358   9.000  0.00  0.00    -0.075 N 
ATOM      7  H36 <0> d           6.122  -3.957   8.172  0.00  0.00     0.277 HD
ATOM      8  H37 <0> d           7.118  -2.858   8.954  0.00  0.00     0.277 HD
ENDROOT
BRANCH   5   9
ATOM      9  C12 <0> d           2.637  -2.092   9.082  0.00  0.00     0.068 C 
BRANCH   9  10
ATOM     10  C13 <0> d           2.634  -1.293   7.804  0.00  0.00     0.065 A 
ATOM     11  N3  <0> d           3.630  -0.618   7.305  0.00  0.00    -0.133 NA
ATOM     12  O3  <0> d           3.333  -0.080   6.264  0.00  0.00    -0.212 OA
ATOM     13  C15 <0> d           2.054  -0.328   5.929  0.00  0.00     0.113 A 
ATOM     14  C14 <0> d           1.551  -1.129   6.916  0.00  0.00     0.069 A 
BRANCH  13  15
ATOM     15  C16 <0> d           1.339   0.163   4.731  0.00  0.00    -0.000 A 
ATOM     16  C21 <0> d           0.006  -0.190   4.518  0.00  0.00     0.015 A 
ATOM     17  C20 <0> d          -0.657   0.275   3.401  0.00  0.00     0.009 A 
ATOM     18  C19 <0> d           0.000   1.080   2.488  0.00  0.00    -0.051 A 
ATOM     19  C18 <0> d           1.322   1.433   2.693  0.00  0.00     0.009 A 
ATOM     20  C17 <0> d           1.995   0.979   3.809  0.00  0.00     0.015 A 
BRANCH  18  21
ATOM     21  C22 <0> d          -0.729   1.579   1.267  0.00  0.00    -0.024 C 
ATOM     22  C23 <0> d          -0.013   1.086   0.008  0.00  0.00     0.019 C 
ATOM     23  C24 <0> d          -0.750   3.109   1.275  0.00  0.00     0.019 C 
ATOM     24  C25 <0> d          -2.164   1.050   1.278  0.00  0.00     0.019 C 
ENDBRANCH  18  21
ENDBRANCH  13  15
ENDBRANCH   9  10
ENDBRANCH   5   9
BRANCH   1  25
ATOM     25  C6  <0> d           3.779  -3.140  11.543  0.00  0.00     0.108 C 
BRANCH  25  26
ATOM     26  C5  <0> d           3.585  -4.007  12.760  0.00  0.00     0.217 C 
ATOM     27  N2  <0> d           3.611  -3.457  13.990  0.00  0.00    -0.360 N 
ATOM     28  H11 <0> d           3.753  -2.503  14.092  0.00  0.00     0.162 HD
ATOM     29  O2  <0> d           3.407  -5.200  12.633  0.00  0.00    -0.274 OA
BRANCH  27  30
ATOM     30  C4  <0> d           3.423  -4.300  15.174  0.00  0.00     0.142 C 
BRANCH  30  31
ATOM     31  C3  <0> d           3.496  -3.434  16.433  0.00  0.00     0.142 C 
BRANCH  31  32
ATOM     32  N1  <0> d           3.308  -4.277  17.617  0.00  0.00    -0.360 N 
ATOM     33  C2  <0> d           3.333  -3.726  18.847  0.00  0.00     0.213 C 
ATOM     34  C1  <0> d           3.140  -4.593  20.064  0.00  0.00     0.117 C 
ATOM     35  O1  <0> d           3.511  -2.533  18.974  0.00  0.00    -0.274 OA
ATOM     36  H6  <0> d           3.165  -5.231  17.515  0.00  0.00     0.162 HD
ENDBRANCH  31  32
ENDBRANCH  30  31
ENDBRANCH  27  30
ENDBRANCH  25  26
ENDBRANCH   1  25
TORSDOF 9
