REMARK  5 active torsions:
REMARK  status: ('A' for Active; 'I' for Inactive)
REMARK    1  A    between atoms: C5_5  and  C6_7 
REMARK    2  A    between atoms: C6_7  and  N1_9 
REMARK       I    between atoms: N1_9  and  C8_10 
REMARK       I    between atoms: C8_10  and  N2_12 
REMARK    3  A    between atoms: N2_12  and  C9_13 
REMARK    4  A    between atoms: C13_17  and  S1_19 
REMARK    5  A    between atoms: S1_19  and  C15_22 
ROOT
ATOM      1  N1  <0> d           2.823  -2.969   0.857  0.00  0.00    -0.333 N 
ATOM      2  C8  <0> d           3.506  -3.989   1.414  0.00  0.00     0.321 C 
ATOM      3  O2  <0> d           3.179  -5.137   1.184  0.00  0.00    -0.247 OA
ATOM      4  N2  <0> d           4.551  -3.735   2.226  0.00  0.00    -0.309 N 
ATOM      5  H10 <0> d           3.084  -2.053   1.040  0.00  0.00     0.165 HD
ATOM      6  H11 <0> d           4.854  -2.823   2.357  0.00  0.00     0.170 HD
ENDROOT
BRANCH   4   7
ATOM      7  C9  <0> d           5.200  -4.788   2.881  0.00  0.00     0.037 A 
ATOM      8  C14 <0> d           5.708  -4.604   4.160  0.00  0.00     0.053 A 
ATOM      9  C13 <0> d           6.343  -5.647   4.807  0.00  0.00     0.067 A 
ATOM     10  C12 <0> d           6.482  -6.870   4.177  0.00  0.00     0.024 A 
ATOM     11  C11 <0> d           5.982  -7.055   2.901  0.00  0.00     0.004 A 
ATOM     12  C10 <0> d           5.341  -6.018   2.252  0.00  0.00     0.029 A 
BRANCH   9  13
ATOM     13  S1  <0> d           6.981  -5.417   6.433  0.00  0.00     0.236 S 
ATOM     14  O3  <0> d           6.184  -4.381   6.992  0.00  0.00    -0.217 OA
ATOM     15  O4  <0> d           6.987  -6.716   7.007  0.00  0.00    -0.217 OA
BRANCH  13  16
ATOM     16  C15 <0> d           8.681  -4.833   6.188  0.00  0.00     0.478 C 
ATOM     17  F1  <0> d           9.407  -5.796   5.479  0.00  0.00    -0.197 F 
ATOM     18  F2  <0> d           8.664  -3.636   5.465  0.00  0.00    -0.197 F 
ENDBRANCH  13  16
ENDBRANCH   9  13
ENDBRANCH   4   7
BRANCH   1  19
ATOM     19  C6  <0> d           1.687  -3.245  -0.026  0.00  0.00     0.139 C 
ATOM     20  C7  <0> d           2.194  -3.490  -1.449  0.00  0.00     0.039 C 
BRANCH  19  21
ATOM     21  C5  <0> d           0.750  -2.064  -0.023  0.00  0.00     0.075 A 
ATOM     22  C4  <0> d          -0.593  -2.126  -0.017  0.00  0.00     0.037 A 
ATOM     23  C3  <0> d          -1.065  -0.793  -0.015  0.00  0.00     0.035 A 
ATOM     24  C2  <0> d           0.019   0.004  -0.020  0.00  0.00     0.049 A 
ATOM     25  C1  <0> d           0.005   1.510  -0.020  0.00  0.00     0.076 C 
ATOM     26  O1  <0> d           1.116  -0.772  -0.030  0.00  0.00    -0.318 OA
ENDBRANCH  19  21
ENDBRANCH   1  19
TORSDOF 5
