REMARK  5 active torsions:
REMARK  status: ('A' for Active; 'I' for Inactive)
REMARK       I    between atoms: N1_2  and  C3_4 
REMARK    1  A    between atoms: C3_4  and  C4_6 
REMARK    2  A    between atoms: C4_6  and  C5_7 
REMARK    3  A    between atoms: C5_7  and  N2_8 
REMARK    4  A    between atoms: N2_8  and  C6_9 
REMARK    5  A    between atoms: C6_9  and  C7_10 
ROOT
ATOM      1  C7  <0> d           0.048  -6.175  -3.973  0.00  0.00     0.135 A 
ATOM      2  N3  <0> d           0.052  -6.846  -5.154  0.00  0.00    -0.309 N 
ATOM      3  H1  <0> d           0.042  -6.360  -5.994  0.00  0.00     0.170 HD
ATOM      4  C8  <0> d           0.070  -8.201  -5.148  0.00  0.00     0.266 A 
ATOM      5  O2  <0> d           0.074  -8.833  -6.192  0.00  0.00    -0.267 OA
ATOM      6  C9  <0> d           0.085  -8.853  -3.915  0.00  0.00     0.101 A 
ATOM      7  C10 <0> d           0.082  -8.135  -2.707  0.00  0.00     0.082 A 
ATOM      8  N4  <0> d           0.067  -6.766  -2.821  0.00  0.00    -0.232 NA
ATOM      9  C11 <0> d           0.098  -8.913  -1.542  0.00  0.00     0.040 A 
ATOM     10  C12 <0> d           0.116 -10.261  -1.625  0.00  0.00     0.053 A 
ATOM     11  S1  <0> d           0.111 -10.546  -3.388  0.00  0.00    -0.094 SA
ENDROOT
BRANCH   1  12
ATOM     12  C6  <0> d           0.028  -4.668  -4.005  0.00  0.00     0.347 C 
BRANCH  12  13
ATOM     13  N2  <0> d           0.034  -4.149  -2.630  0.00  0.00     0.090 N 
ATOM     14  H12 <0> d           0.825  -4.503  -2.114  0.00  0.00     0.316 HD
BRANCH  13  15
ATOM     15  C5  <0> d           0.014  -2.681  -2.622  0.00  0.00     0.279 C 
BRANCH  15  16
ATOM     16  C4  <0> d           0.021  -2.178  -1.177  0.00  0.00     0.133 C 
BRANCH  16  17
ATOM     17  C3  <0> d           0.000  -0.672  -1.169  0.00  0.00     0.220 C 
ATOM     18  N1  <0> d           0.002  -0.004   0.002  0.00  0.00    -0.361 N 
ATOM     19  C1  <0> d          -0.018   1.461   0.010  0.00  0.00     0.152 C 
ATOM     20  C2  <0> d           0.024  -0.743   1.267  0.00  0.00     0.152 C 
ATOM     21  O1  <0> d          -0.018  -0.060  -2.216  0.00  0.00    -0.273 OA
ENDBRANCH  16  17
ENDBRANCH  15  16
ENDBRANCH  13  15
ENDBRANCH  12  13
ENDBRANCH   1  12
TORSDOF 5
