REMARK  5 active torsions:
REMARK  status: ('A' for Active; 'I' for Inactive)
REMARK    1  A    between atoms: C2_2  and  C3_3 
REMARK    2  A    between atoms: C3_3  and  N1_4 
REMARK    3  A    between atoms: C7_9  and  C8_11 
REMARK       I    between atoms: C8_11  and  N3_13 
REMARK    4  A    between atoms: N3_13  and  C9_14 
REMARK    5  A    between atoms: N5_17  and  C12_19 
ROOT
ATOM      1  C8  <0> d          -1.390  -4.586  -2.524  0.00  0.00     0.276 C 
ATOM      2  O2  <0> d          -1.373  -5.799  -2.600  0.00  0.00    -0.266 OA
ATOM      3  N3  <0> d          -1.405  -3.841  -3.647  0.00  0.00    -0.319 N 
ATOM      4  H10 <0> d          -1.419  -2.873  -3.587  0.00  0.00     0.169 HD
ENDROOT
BRANCH   1   5
ATOM      5  C7  <0> d          -1.393  -3.928  -1.200  0.00  0.00     0.145 A 
ATOM      6  C6  <0> d          -1.377  -4.714  -0.022  0.00  0.00     0.044 A 
ATOM      7  C5  <0> d          -1.380  -4.072   1.181  0.00  0.00     0.078 A 
ATOM      8  C4  <0> d          -1.399  -2.659   1.177  0.00  0.00     0.263 A 
ATOM      9  N1  <0> d          -1.413  -1.998   0.005  0.00  0.00    -0.234 N 
ATOM     10  O1  <0> d          -1.403  -2.043   2.230  0.00  0.00    -0.267 OA
ATOM     11  N2  <0> d          -1.416  -2.617  -1.120  0.00  0.00    -0.164 NA
BRANCH   9  12
ATOM     12  C3  <0> d          -1.433  -0.534   0.013  0.00  0.00     0.154 C 
BRANCH  12  13
ATOM     13  C2  <0> d           0.002  -0.004   0.002  0.00  0.00     0.018 C 
ATOM     14  C1  <0> d          -0.019   1.526   0.010  0.00  0.00     0.007 C 
ENDBRANCH  12  13
ENDBRANCH   9  12
ENDBRANCH   1   5
BRANCH   3  15
ATOM     15  C9  <0> d          -1.403  -4.467  -4.907  0.00  0.00     0.071 A 
ATOM     16  C11 <0> d          -1.417  -3.840  -6.112  0.00  0.00     0.143 A 
ATOM     17  N5  <0> d          -1.405  -4.799  -7.073  0.00  0.00    -0.275 N 
ATOM     18  N4  <0> d          -1.392  -6.046  -6.436  0.00  0.00    -0.183 NA
ATOM     19  C10 <0> d          -1.391  -5.849  -5.143  0.00  0.00     0.169 A 
BRANCH  17  20
ATOM     20  C12 <0> d          -1.411  -4.570  -8.520  0.00  0.00     0.101 C 
ATOM     21  C13 <0> d          -2.851  -4.379  -9.000  0.00  0.00     0.034 C 
ATOM     22  C14 <0> d          -0.596  -3.316  -8.841  0.00  0.00     0.034 C 
ENDBRANCH  17  20
ENDBRANCH   3  15
TORSDOF 5
