REMARK  7 active torsions:
REMARK  status: ('A' for Active; 'I' for Inactive)
REMARK    1  A    between atoms: C2_2  and  C3_3 
REMARK    2  A    between atoms: C3_3  and  N1_4 
REMARK       I    between atoms: N1_4  and  C4_5 
REMARK    3  A    between atoms: C4_5  and  C5_7 
REMARK    4  A    between atoms: C8_11  and  N2_12 
REMARK       I    between atoms: N2_12  and  C9_13 
REMARK    5  A    between atoms: C9_13  and  C10_15 
REMARK    6  A    between atoms: C11_16  and  C12_17 
REMARK    7  A    between atoms: C16_21  and  O3_23 
ROOT
ATOM      1  C10 <0> d          -2.591  -4.696  -4.898  0.00  0.00     0.113 C 
ATOM      2  C11 <0> d          -2.591  -5.557  -5.959  0.00  0.00     0.040 C 
ATOM      3  C18 <0> d          -2.881  -3.309  -5.101  0.00  0.00     0.105 C 
ATOM      4  N3  <0> d          -3.111  -2.208  -5.262  0.00  0.00    -0.191 NA
ENDROOT
BRANCH   1   5
ATOM      5  C9  <0> d          -2.294  -5.196  -3.546  0.00  0.00     0.267 C 
ATOM      6  N2  <0> d          -2.294  -4.347  -2.499  0.00  0.00    -0.316 N 
ATOM      7  H9  <0> d          -2.490  -3.407  -2.636  0.00  0.00     0.170 HD
ATOM      8  O2  <0> d          -2.047  -6.374  -3.373  0.00  0.00    -0.267 OA
BRANCH   6   9
ATOM      9  C8  <0> d          -2.014  -4.817  -1.226  0.00  0.00     0.093 A 
ATOM     10  C5  <0> d          -1.970  -4.097  -0.042  0.00  0.00     0.073 A 
ATOM     11  C6  <0> d          -1.655  -4.832   1.171  0.00  0.00    -0.026 A 
ATOM     12  C22 <0> d          -1.570  -4.212   2.558  0.00  0.00     0.041 C 
ATOM     13  C7  <0> d          -1.437  -6.150   0.977  0.00  0.00    -0.008 A 
ATOM     14  C21 <0> d          -1.673  -5.327   3.601  0.00  0.00     0.005 C 
ATOM     15  C20 <0> d          -0.653  -6.426   3.291  0.00  0.00     0.005 C 
ATOM     16  C19 <0> d          -1.093  -7.168   2.020  0.00  0.00     0.047 C 
ATOM     17  S1  <0> d          -1.648  -6.389  -0.763  0.00  0.00    -0.075 SA
BRANCH  10  18
ATOM     18  C4  <0> d          -2.236  -2.655  -0.014  0.00  0.00     0.255 C 
ATOM     19  N1  <0> d          -1.223  -1.780  -0.173  0.00  0.00    -0.357 N 
ATOM     20  H8  <0> d          -0.318  -2.104  -0.305  0.00  0.00     0.162 HD
ATOM     21  O1  <0> d          -3.371  -2.249   0.152  0.00  0.00    -0.268 OA
BRANCH  19  22
ATOM     22  C3  <0> d          -1.488  -0.340  -0.145  0.00  0.00     0.122 C 
BRANCH  22  23
ATOM     23  C2  <0> d          -0.178   0.424  -0.347  0.00  0.00     0.015 C 
ATOM     24  C1  <0> d          -0.455   1.929  -0.318  0.00  0.00     0.006 C 
ENDBRANCH  22  23
ENDBRANCH  19  22
ENDBRANCH  10  18
ENDBRANCH   6   9
ENDBRANCH   1   5
BRANCH   2  25
ATOM     25  C12 <0> d          -2.722  -5.037  -7.325  0.00  0.00    -0.032 A 
ATOM     26  C17 <0> d          -3.423  -5.768  -8.291  0.00  0.00     0.048 A 
ATOM     27  C16 <0> d          -3.545  -5.267  -9.575  0.00  0.00     0.066 A 
ATOM     28  C15 <0> d          -2.965  -4.049  -9.906  0.00  0.00     0.036 A 
ATOM     29  C14 <0> d          -2.266  -3.326  -8.955  0.00  0.00     0.004 A 
ATOM     30  C13 <0> d          -2.140  -3.810  -7.670  0.00  0.00     0.011 A 
BRANCH  27  31
ATOM     31  O3  <0> d          -4.230  -5.970 -10.516  0.00  0.00    -0.361 OA
ATOM     32  H15 <0> d          -3.684  -6.590 -11.018  0.00  0.00     0.217 HD
ENDBRANCH  27  31
ENDBRANCH   2  25
TORSDOF 7
