REMARK  3 active torsions:
REMARK  status: ('A' for Active; 'I' for Inactive)
REMARK    1  A    between atoms: C3_3  and  C7_8 
REMARK    2  A    between atoms: C9_10  and  N5_25 
REMARK    3  A    between atoms: N1_11  and  C16_19 
ROOT
ATOM      1  C7  <0> d           3.687   2.192   0.140  0.00  0.00     0.105 C 
ATOM      2  C8  <0> d           4.246   1.719  -1.169  0.00  0.00     0.080 C 
ATOM      3  C9  <0> d           5.303   0.867  -1.214  0.00  0.00     0.140 C 
ATOM      4  N1  <0> d           5.887   0.429  -0.047  0.00  0.00    -0.130 N 
ATOM      5  C10 <0> d           5.704   1.118   1.124  0.00  0.00     0.047 C 
ATOM      6  C11 <0> d           4.668   1.972   1.263  0.00  0.00     0.025 C 
ATOM      7  C12 <0> d           4.472   2.680   2.462  0.00  0.00     0.158 C 
ATOM      8  O1  <0> d           3.539   3.453   2.551  0.00  0.00    -0.293 OA
ATOM      9  C13 <0> d           5.396   2.499   3.635  0.00  0.00     0.084 C 
ATOM     10  C14 <0> d           5.988   1.086   3.589  0.00  0.00     0.014 C 
ATOM     11  C15 <0> d           6.690   0.901   2.245  0.00  0.00     0.059 C 
ATOM     12  C18 <0> d           3.655   2.173  -2.392  0.00  0.00     0.100 C 
ATOM     13  N6  <0> d           3.187   2.534  -3.362  0.00  0.00    -0.191 NA
ENDROOT
BRANCH   1  14
ATOM     14  C3  <0> d           2.418   1.435   0.438  0.00  0.00    -0.043 A 
ATOM     15  C2  <0> d           1.223   2.116   0.572  0.00  0.00     0.008 A 
ATOM     16  C1  <0> d           0.058   1.422   0.844  0.00  0.00     0.002 A 
ATOM     17  C6  <0> d           0.089   0.048   0.983  0.00  0.00     0.019 A 
ATOM     18  C5  <0> d           1.285  -0.634   0.848  0.00  0.00     0.011 A 
ATOM     19  C4  <0> d           2.450   0.060   0.575  0.00  0.00     0.027 A 
ATOM     20 Br1  <0> d           1.328  -2.515   1.036  0.00  0.00    -0.051 Br
ENDBRANCH   1  14
BRANCH   3  21
ATOM     21  N5  <0> d           5.790   0.442  -2.427  0.00  0.00    -0.384 N 
ATOM     22  H14 <0> d           5.379   0.750  -3.249  0.00  0.00     0.157 HD
ATOM     23  H15 <0> d           6.545  -0.167  -2.460  0.00  0.00     0.157 HD
ENDBRANCH   3  21
BRANCH   4  24
ATOM     24  C16 <0> d           6.672  -0.729  -0.055  0.00  0.00     0.752 A 
ATOM     25  N4  <0> d           7.188  -1.310   1.002  0.00  0.00     0.020 NA
ATOM     26  N3  <0> d           7.894  -2.433   0.543  0.00  0.00    -0.255 N 
ATOM     27  C17 <0> d           7.760  -2.447  -0.794  0.00  0.00     0.245 A 
ATOM     28  H2  <0> d           8.386  -3.071   1.083  0.00  0.00     0.190 HD
ATOM     29  N2  <0> d           7.026  -1.421  -1.142  0.00  0.00    -0.054 NA
ENDBRANCH   4  24
TORSDOF 3
