REMARK  2 active torsions:
REMARK  status: ('A' for Active; 'I' for Inactive)
REMARK    1  A    between atoms: N1_2  and  S1_3 
REMARK    2  A    between atoms: S1_3  and  C2_6 
ROOT
ATOM      1  C2  <0> d          -0.927   1.900   1.439  0.00  0.00     0.098 A 
ATOM      2  C3  <0> d          -0.723   3.147   2.012  0.00  0.00     0.054 A 
ATOM      3  C4  <0> d          -1.465   3.487   3.133  0.00  0.00     0.076 A 
ATOM      4  C5  <0> d          -2.370   2.573   3.646  0.00  0.00     0.147 A 
ATOM      5  N2  <0> d          -2.533   1.394   3.076  0.00  0.00    -0.245 NA
ATOM      6  C6  <0> d          -1.847   1.040   2.006  0.00  0.00     0.143 A 
ATOM      7 Cl1  <0> d          -3.302   2.982   5.053  0.00  0.00    -0.061 Cl
ATOM      8 Cl2  <0> d          -1.258   5.037   3.888  0.00  0.00    -0.081 Cl
ENDROOT
BRANCH   1   9
ATOM      9  S1  <0> d          -0.017   1.417   0.010  0.00  0.00     0.259 S 
ATOM     10  O1  <0> d           0.002  -0.004   0.002  0.00  0.00    -0.201 OA
ATOM     11  O2  <0> d           1.172   2.195   0.003  0.00  0.00    -0.201 OA
BRANCH   9  12
ATOM     12  N1  <0> d          -0.897   1.885  -1.312  0.00  0.00    -0.320 N 
ATOM     13  C1  <0> d          -1.125   3.309  -1.574  0.00  0.00     0.159 C 
ATOM     14  H4  <0> d          -1.263   1.218  -1.913  0.00  0.00     0.171 HD
ENDBRANCH   9  12
ENDBRANCH   1   9
TORSDOF 2
