REMARK  7 active torsions:
REMARK  status: ('A' for Active; 'I' for Inactive)
REMARK    1  A    between atoms: C2_2  and  C3_3 
REMARK    2  A    between atoms: C2_2  and  N2_20 
REMARK    3  A    between atoms: C3_3  and  O2_5 
REMARK    4  A    between atoms: O2_5  and  C4_6 
REMARK    5  A    between atoms: C4_6  and  C6_8 
REMARK       I    between atoms: C6_8  and  N1_10 
REMARK    6  A    between atoms: N1_10  and  C7_11 
REMARK    7  A    between atoms: N2_20  and  C13_21 
ROOT
ATOM      1  C3  <0> d           5.939   3.991  -0.598  0.00  0.00     0.282 C 
ATOM      2  O1  <0> d           5.885   2.849  -0.987  0.00  0.00    -0.263 OA
ENDROOT
BRANCH   1   3
ATOM      3  C2  <0> d           4.726   4.634   0.023  0.00  0.00     0.179 C 
ATOM      4  C1  <0> d           5.052   5.061   1.456  0.00  0.00     0.043 C 
BRANCH   3   5
ATOM      5  N2  <0> d           3.619   3.674   0.039  0.00  0.00    -0.360 N 
ATOM      6  H12 <0> d           3.803   2.722   0.035  0.00  0.00     0.162 HD
BRANCH   5   7
ATOM      7  C13 <0> d           2.317   4.125   0.061  0.00  0.00     0.149 A 
ATOM      8  C15 <0> d           1.200   3.168   0.077  0.00  0.00     0.034 A 
ATOM      9  C14 <0> d          -0.046   3.811   0.099  0.00  0.00     0.095 A 
ATOM     10  C16 <0> d           1.202   1.765   0.075  0.00  0.00     0.017 A 
ATOM     11  S1  <0> d           0.395   5.527   0.094  0.00  0.00     0.286 S 
ATOM     12  C19 <0> d          -1.221   3.119   0.116  0.00  0.00     0.026 A 
ATOM     13  N3  <0> d           2.063   5.395   0.067  0.00  0.00    -0.141 NA
ATOM     14  O4  <0> d           0.025   6.073   1.353  0.00  0.00    -0.198 OA
ATOM     15  O5  <0> d          -0.016   6.078  -1.149  0.00  0.00    -0.198 OA
ATOM     16  C18 <0> d          -1.200   1.731   0.109  0.00  0.00     0.002 A 
ATOM     17  C17 <0> d           0.014   1.069   0.094  0.00  0.00     0.001 A 
ENDBRANCH   5   7
ENDBRANCH   3   5
ENDBRANCH   1   3
BRANCH   1  18
ATOM     18  O2  <0> d           7.080   4.688  -0.719  0.00  0.00    -0.305 OA
BRANCH  18  19
ATOM     19  C4  <0> d           8.208   4.005  -1.326  0.00  0.00     0.220 C 
ATOM     20  C5  <0> d           9.025   3.303  -0.240  0.00  0.00     0.050 C 
BRANCH  19  21
ATOM     21  C6  <0> d           9.078   5.008  -2.039  0.00  0.00     0.251 C 
ATOM     22  O3  <0> d           8.828   6.192  -1.960  0.00  0.00    -0.270 OA
ATOM     23  N1  <0> d          10.134   4.590  -2.764  0.00  0.00    -0.322 N 
ATOM     24  H9  <0> d          10.373   3.650  -2.776  0.00  0.00     0.169 HD
BRANCH  23  25
ATOM     25  C7  <0> d          10.888   5.513  -3.502  0.00  0.00     0.077 A 
ATOM     26  C12 <0> d          11.446   5.141  -4.720  0.00  0.00     0.184 A 
ATOM     27  C11 <0> d          12.185   6.056  -5.449  0.00  0.00     0.195 A 
ATOM     28  F1  <0> d          11.262   3.889  -5.193  0.00  0.00    -0.200 F 
ATOM     29  C10 <0> d          12.378   7.339  -4.958  0.00  0.00     0.158 A 
ATOM     30  F2  <0> d          12.724   5.699  -6.635  0.00  0.00    -0.199 F 
ATOM     31  C9  <0> d          11.826   7.707  -3.743  0.00  0.00     0.048 A 
ATOM     32  F3  <0> d          13.105   8.230  -5.667  0.00  0.00    -0.203 F 
ATOM     33  C8  <0> d          11.082   6.798  -3.016  0.00  0.00     0.036 A 
ENDBRANCH  23  25
ENDBRANCH  19  21
ENDBRANCH  18  19
ENDBRANCH   1  18
TORSDOF 7
