REMARK  7 active torsions:
REMARK  status: ('A' for Active; 'I' for Inactive)
REMARK    1  A    between atoms: N1_4  and  C15_24 
REMARK    2  A    between atoms: C4_5  and  N3_9 
REMARK       I    between atoms: N3_9  and  C7_10 
REMARK    3  A    between atoms: C7_10  and  C8_12 
REMARK    4  A    between atoms: C8_12  and  S1_13 
REMARK    5  A    between atoms: S1_13  and  C9_14 
REMARK    6  A    between atoms: C11_17  and  C12_19 
REMARK    7  A    between atoms: C12_19  and  C13_20 
REMARK       I    between atoms: C13_20  and  N5_22 
ROOT
ATOM      1  C1  <0> d          -0.750   1.399  -0.061  0.00  0.00     0.052 C 
ATOM      2  C2  <0> d          -0.332  -0.049  -0.017  0.00  0.00    -0.015 A 
ATOM      3  C3  <0> d           0.221  -0.754  -1.017  0.00  0.00     0.022 A 
ATOM      4  N1  <0> d           0.458  -2.035  -0.591  0.00  0.00    -0.300 N 
ATOM      5  C4  <0> d           0.059  -2.179   0.701  0.00  0.00     0.137 A 
ATOM      6  C5  <0> d          -0.445  -0.959   1.130  0.00  0.00     0.097 A 
ATOM      7  C6  <0> d          -0.971  -0.651   2.425  0.00  0.00     0.104 C 
ATOM      8  N2  <0> d          -1.388  -0.407   3.454  0.00  0.00    -0.191 NA
ATOM      9  C21 <0> d           0.531  -0.220  -2.392  0.00  0.00     0.069 C 
ENDROOT
BRANCH   5  10
ATOM     10  N3  <0> d           0.146  -3.338   1.458  0.00  0.00    -0.311 N 
ATOM     11  C7  <0> d          -0.325  -4.501   0.967  0.00  0.00     0.232 C 
ATOM     12  O1  <0> d          -0.725  -4.558  -0.177  0.00  0.00    -0.272 OA
ATOM     13  H4  <0> d           0.546  -3.311   2.342  0.00  0.00     0.170 HD
BRANCH  11  14
ATOM     14  C8  <0> d          -0.356  -5.730   1.839  0.00  0.00     0.184 C 
BRANCH  14  15
ATOM     15  S1  <0> d          -1.039  -7.122   0.897  0.00  0.00    -0.094 SA
BRANCH  15  16
ATOM     16  C9  <0> d          -1.009  -8.464   2.038  0.00  0.00     0.135 A 
ATOM     17  S2  <0> d          -1.509 -10.053   1.798  0.00  0.00    -0.066 SA
ATOM     18  C11 <0> d          -1.126 -10.682   3.424  0.00  0.00     0.018 A 
ATOM     19  C10 <0> d          -0.640  -9.566   4.019  0.00  0.00     0.046 A 
ATOM     20  N4  <0> d          -0.596  -8.466   3.289  0.00  0.00    -0.238 NA
ATOM     21  C14 <0> d          -0.169  -9.579   5.450  0.00  0.00     0.071 C 
BRANCH  18  22
ATOM     22  C12 <0> d          -1.300 -12.070   3.983  0.00  0.00     0.150 C 
BRANCH  22  23
ATOM     23  C13 <0> d          -2.668 -12.194   4.603  0.00  0.00     0.220 C 
ATOM     24  O2  <0> d          -3.427 -11.247   4.592  0.00  0.00    -0.273 OA
ATOM     25  N5  <0> d          -3.049 -13.356   5.170  0.00  0.00    -0.370 N 
ATOM     26  H9  <0> d          -2.443 -14.113   5.178  0.00  0.00     0.159 HD
ATOM     27  H10 <0> d          -3.930 -13.435   5.569  0.00  0.00     0.159 HD
ENDBRANCH  22  23
ENDBRANCH  18  22
ENDBRANCH  15  16
ENDBRANCH  14  15
ENDBRANCH  11  14
ENDBRANCH   5  10
BRANCH   4  28
ATOM     28  C15 <0> d           1.029  -3.049  -1.374  0.00  0.00     0.041 A 
ATOM     29  C20 <0> d           2.291  -3.538  -1.065  0.00  0.00     0.033 A 
ATOM     30  C19 <0> d           2.849  -4.541  -1.833  0.00  0.00     0.044 A 
ATOM     31  C18 <0> d           2.155  -5.051  -2.918  0.00  0.00     0.116 A 
ATOM     32  C17 <0> d           0.898  -4.561  -3.231  0.00  0.00     0.044 A 
ATOM     33  F1  <0> d           2.705  -6.028  -3.672  0.00  0.00    -0.206 F 
ATOM     34  C16 <0> d           0.335  -3.562  -2.461  0.00  0.00     0.033 A 
ENDBRANCH   4  28
TORSDOF 7
