REMARK  4 active torsions:
REMARK  status: ('A' for Active; 'I' for Inactive)
REMARK    1  A    between atoms: C2_2  and  C4_4 
REMARK    2  A    between atoms: C5_7  and  C6_9 
REMARK    3  A    between atoms: C10_14  and  N4_15 
REMARK       I    between atoms: N5_18  and  C15_21 
REMARK    4  A    between atoms: C15_21  and  C16_23 
ROOT
ATOM      1  N4  <0> d           2.281  -4.706  -2.316  0.00  0.00    -0.364 N 
ATOM      2  C11 <0> d           0.908  -4.724  -1.792  0.00  0.00     0.144 C 
ATOM      3  C12 <0> d           0.180  -5.946  -2.367  0.00  0.00     0.146 C 
ATOM      4  N5  <0> d           1.028  -7.131  -2.175  0.00  0.00    -0.345 N 
ATOM      5  C13 <0> d           2.401  -7.113  -2.698  0.00  0.00     0.146 C 
ATOM      6  C14 <0> d           3.127  -5.893  -2.128  0.00  0.00     0.144 C 
ATOM      7  C15 <0> d           0.554  -8.215  -1.529  0.00  0.00     0.253 C 
ATOM      8  O2  <0> d           1.289  -9.156  -1.301  0.00  0.00    -0.267 OA
ENDROOT
BRANCH   1   9
ATOM      9  C10 <0> d           2.769  -3.588  -2.982  0.00  0.00     0.114 A 
ATOM     10  C6  <0> d           3.454  -2.607  -2.273  0.00  0.00     0.035 A 
ATOM     11  C7  <0> d           3.940  -1.503  -2.949  0.00  0.00     0.017 A 
ATOM     12  C8  <0> d           3.718  -1.413  -4.317  0.00  0.00     0.018 A 
ATOM     13  C9  <0> d           3.025  -2.421  -4.957  0.00  0.00     0.089 A 
ATOM     14  N3  <0> d           2.573  -3.463  -4.286  0.00  0.00    -0.352 N 
ATOM     15  H28 <0> d           2.089  -4.157  -4.760  0.00  0.00     0.166 HD
BRANCH  10  16
ATOM     16  C5  <0> d           3.670  -2.749  -0.788  0.00  0.00     0.278 C 
ATOM     17  N2  <0> d           4.080  -1.464  -0.208  0.00  0.00    -0.283 N 
ATOM     18  N1  <0> d           5.299  -1.462   0.005  0.00  0.00    -0.186 NA
ATOM     19  H27 <0> d           3.482  -0.724  -0.018  0.00  0.00     0.185 HD
ATOM     20  C4  <0> d           5.883  -2.747  -0.403  0.00  0.00     0.270 C 
ATOM     21  O1  <0> d           4.766  -3.651  -0.525  0.00  0.00    -0.333 OA
BRANCH  20  22
ATOM     22  C2  <0> d           6.858  -3.248   0.665  0.00  0.00     0.030 C 
ATOM     23  C1  <0> d           8.017  -2.259   0.802  0.00  0.00     0.014 C 
ATOM     24  C3  <0> d           6.130  -3.370   2.004  0.00  0.00     0.014 C 
ENDBRANCH  20  22
ENDBRANCH  10  16
ENDBRANCH   1   9
BRANCH   7  25
ATOM     25  C16 <0> d          -0.856  -8.259  -1.098  0.00  0.00     0.032 C 
ATOM     26  C23 <0> d          -1.207  -8.014   0.308  0.00  0.00     0.015 C 
ATOM     27  C22 <0> d          -2.397  -8.323   0.822  0.00  0.00     0.006 C 
ATOM     28  C21 <0> d          -3.409  -9.014  -0.039  0.00  0.00     0.163 C 
ATOM     29  C18 <0> d          -3.156  -8.611  -1.480  0.00  0.00    -0.028 C 
ATOM     30  N6  <0> d          -4.795  -8.663   0.224  0.00  0.00    -0.288 NA
ATOM     31  C17 <0> d          -1.860  -8.539  -2.018  0.00  0.00     0.026 C 
ATOM     32  C19 <0> d          -4.369  -8.345  -1.995  0.00  0.00     0.028 C 
ATOM     33  C20 <0> d          -5.342  -8.315  -0.904  0.00  0.00     0.112 C 
ENDBRANCH   7  25
TORSDOF 4
