REMARK  8 active torsions:
REMARK  status: ('A' for Active; 'I' for Inactive)
REMARK    1  A    between atoms: C2_2  and  C3_3 
REMARK    2  A    between atoms: C3_3  and  N1_5 
REMARK    3  A    between atoms: N1_5  and  C5_6 
REMARK    4  A    between atoms: C6_9  and  S2_11 
REMARK    5  A    between atoms: S2_11  and  C7_12 
REMARK    6  A    between atoms: C7_12  and  C8_13 
REMARK       I    between atoms: C8_13  and  N4_15 
REMARK    7  A    between atoms: N4_15  and  C9_16 
REMARK    8  A    between atoms: C14_21  and  C15_22 
ROOT
ATOM      1  C8  <0> d           2.802   3.601   0.463  0.00  0.00     0.231 C 
ATOM      2  O1  <0> d           1.778   3.071   0.839  0.00  0.00    -0.272 OA
ATOM      3  N4  <0> d           3.802   2.853  -0.042  0.00  0.00    -0.325 N 
ATOM      4  H13 <0> d           4.588   3.281  -0.416  0.00  0.00     0.169 HD
ENDROOT
BRANCH   1   5
ATOM      5  C7  <0> d           2.956   5.097   0.560  0.00  0.00     0.184 C 
BRANCH   5   6
ATOM      6  S2  <0> d           1.451   5.815   1.275  0.00  0.00    -0.092 SA
BRANCH   6   7
ATOM      7  C6  <0> d           1.784   7.544   1.322  0.00  0.00     0.160 A 
ATOM      8  N3  <0> d           2.865   8.198   0.942  0.00  0.00    -0.133 NA
ATOM      9  N2  <0> d           2.914   9.568   1.063  0.00  0.00    -0.123 NA
ATOM     10  C5  <0> d           1.885  10.219   1.570  0.00  0.00     0.191 A 
ATOM     11  S1  <0> d           0.751   8.880   1.904  0.00  0.00    -0.022 SA
BRANCH  10  12
ATOM     12  N1  <0> d           1.726  11.583   1.786  0.00  0.00    -0.363 N 
ATOM     13  H10 <0> d           0.903  11.920   2.171  0.00  0.00     0.162 HD
BRANCH  12  14
ATOM     14  C3  <0> d           2.803  12.511   1.431  0.00  0.00     0.079 C 
ATOM     15  C4  <0> d           3.805  12.595   2.583  0.00  0.00     0.032 C 
BRANCH  14  16
ATOM     16  C2  <0> d           2.214  13.898   1.166  0.00  0.00     0.020 C 
ATOM     17  C1  <0> d           1.307  13.841  -0.065  0.00  0.00     0.007 C 
ENDBRANCH  14  16
ENDBRANCH  12  14
ENDBRANCH  10  12
ENDBRANCH   6   7
ENDBRANCH   5   6
ENDBRANCH   1   5
BRANCH   3  18
ATOM     18  C9  <0> d           3.708   1.463  -0.026  0.00  0.00     0.057 A 
ATOM     19  C14 <0> d           4.729   0.694   0.553  0.00  0.00     0.068 A 
ATOM     20  C13 <0> d           4.619  -0.699   0.568  0.00  0.00     0.021 A 
ATOM     21  C12 <0> d           3.516  -1.308   0.010  0.00  0.00     0.002 A 
ATOM     22  C11 <0> d           2.513  -0.545  -0.567  0.00  0.00     0.009 A 
ATOM     23  C10 <0> d           2.607   0.832  -0.589  0.00  0.00    -0.034 A 
ATOM     24  C16 <0> d           1.510   1.651  -1.219  0.00  0.00     0.050 C 
BRANCH  19  25
ATOM     25  C15 <0> d           5.906   1.351   1.148  0.00  0.00     0.211 C 
ATOM     26  O2  <0> d           6.051   2.553   1.039  0.00  0.00    -0.644 OA
ATOM     27  O3  <0> d           6.822   0.619   1.813  0.00  0.00    -0.644 OA
ENDBRANCH  19  25
ENDBRANCH   3  18
TORSDOF 8
