REMARK  3 active torsions:
REMARK  status: ('A' for Active; 'I' for Inactive)
REMARK    1  A    between atoms: C2_2  and  C3_3 
REMARK    2  A    between atoms: N1_6  and  C8_9 
REMARK    3  A    between atoms: C13_14  and  N2_15 
ROOT
ATOM      1  C8  <0> d           3.587  -2.652  -3.556  0.00  0.00     0.223 C 
ATOM      2  C9  <0> d           5.054  -2.237  -3.425  0.00  0.00     0.104 C 
ATOM      3  C10 <0> d           5.851  -2.805  -4.600  0.00  0.00     0.166 C 
ATOM      4  C11 <0> d           5.748  -4.332  -4.607  0.00  0.00     0.070 C 
ATOM      5  C12 <0> d           4.280  -4.743  -4.736  0.00  0.00     0.040 C 
ATOM      6  C13 <0> d           3.486  -4.178  -3.556  0.00  0.00     0.214 C 
ATOM      7  O1  <0> d           7.229  -2.419  -4.475  0.00  0.00    -0.353 OA
ATOM      8  C14 <0> d           7.675  -2.194  -5.834  0.00  0.00     0.197 C 
ATOM      9  C15 <0> d           6.409  -1.578  -6.482  0.00  0.00     0.197 C 
ATOM     10  O2  <0> d           5.333  -2.283  -5.830  0.00  0.00    -0.353 OA
ENDROOT
BRANCH   1  11
ATOM     11  N1  <0> d           2.822  -2.111  -2.425  0.00  0.00    -0.065 N 
ATOM     12  C5  <0> d           2.919  -0.646  -2.426  0.00  0.00     0.236 C 
ATOM     13  C4  <0> d           2.191  -0.082  -1.204  0.00  0.00     0.032 C 
ATOM     14  C3  <0> d           0.718  -0.497  -1.257  0.00  0.00    -0.012 C 
ATOM     15  C7  <0> d           0.631  -2.025  -1.330  0.00  0.00     0.032 C 
ATOM     16  C6  <0> d           1.417  -2.517  -2.548  0.00  0.00     0.236 C 
ATOM     17  H29 <0> d           3.201  -2.471  -1.562  0.00  0.00     0.280 HD
BRANCH  14  18
ATOM     18  C2  <0> d           0.002  -0.004   0.002  0.00  0.00     0.000 C 
ATOM     19  C1  <0> d          -0.019   1.526   0.010  0.00  0.00     0.005 C 
ENDBRANCH  14  18
ENDBRANCH   1  11
BRANCH   6  20
ATOM     20  N2  <0> d           4.037  -4.705  -2.300  0.00  0.00    -0.073 N 
ATOM     21  H23 <0> d           3.513  -4.334  -1.522  0.00  0.00     0.274 HD
ATOM     22  H24 <0> d           3.970  -5.712  -2.300  0.00  0.00     0.274 HD
ATOM     23  H30 <0> d           5.004  -4.432  -2.216  0.00  0.00     0.274 HD
ENDBRANCH   6  20
TORSDOF 3
