REMARK  8 active torsions:
REMARK  status: ('A' for Active; 'I' for Inactive)
REMARK    1  A    between atoms: C2_2  and  C3_3 
REMARK    2  A    between atoms: C2_2  and  O4_19 
REMARK    3  A    between atoms: C3_3  and  N1_4 
REMARK    4  A    between atoms: N1_4  and  S1_6 
REMARK    5  A    between atoms: S1_6  and  C5_9 
REMARK    6  A    between atoms: C8_12  and  C11_15 
REMARK    7  A    between atoms: C12_16  and  C13_17 
REMARK    8  A    between atoms: C13_17  and  O3_18 
ROOT
ATOM      1  C5  <0> d          -1.736  -3.097   0.954  0.00  0.00     0.079 A 
ATOM      2  C6  <0> d          -2.760  -2.170   0.871  0.00  0.00     0.027 A 
ATOM      3  C7  <0> d          -3.813  -2.377   0.004  0.00  0.00     0.022 A 
ATOM      4  C8  <0> d          -3.844  -3.525  -0.789  0.00  0.00     0.017 A 
ATOM      5  C9  <0> d          -2.808  -4.455  -0.701  0.00  0.00     0.022 A 
ATOM      6  C10 <0> d          -1.758  -4.234   0.166  0.00  0.00     0.027 A 
ENDROOT
BRANCH   1   7
ATOM      7  S1  <0> d          -0.394  -2.824   2.063  0.00  0.00     0.260 S 
ATOM      8  O1  <0> d           0.164  -4.100   2.346  0.00  0.00    -0.200 OA
ATOM      9  O2  <0> d          -0.878  -1.961   3.082  0.00  0.00    -0.200 OA
BRANCH   7  10
ATOM     10  N1  <0> d           0.762  -1.976   1.234  0.00  0.00    -0.309 N 
ATOM     11  C4  <0> d           1.804  -2.690   0.492  0.00  0.00     0.163 C 
BRANCH  10  12
ATOM     12  C3  <0> d           0.742  -0.511   1.242  0.00  0.00     0.166 C 
BRANCH  12  13
ATOM     13  C2  <0> d           0.002  -0.004   0.002  0.00  0.00     0.132 C 
ATOM     14  C1  <0> d          -0.019   1.526   0.010  0.00  0.00     0.041 C 
BRANCH  13  15
ATOM     15  O4  <0> d           0.671  -0.465  -1.174  0.00  0.00    -0.394 OA
ATOM     16  H17 <0> d           0.256  -0.181  -1.999  0.00  0.00     0.210 HD
ENDBRANCH  13  15
ENDBRANCH  12  13
ENDBRANCH  10  12
ENDBRANCH   7  10
ENDBRANCH   1   7
BRANCH   4  17
ATOM     17  C11 <0> d          -4.935  -3.746  -1.690  0.00  0.00    -0.065 C 
ATOM     18  C12 <0> d          -5.829  -3.928  -2.429  0.00  0.00    -0.075 C 
BRANCH  18  19
ATOM     19  C13 <0> d          -6.950  -4.156  -3.355  0.00  0.00     0.258 C 
BRANCH  19  20
ATOM     20  O3  <0> d          -6.752  -5.389  -4.049  0.00  0.00    -0.389 OA
ATOM     21  H16 <0> d          -7.455  -5.604  -4.678  0.00  0.00     0.210 HD
ENDBRANCH  19  20
ENDBRANCH  18  19
ENDBRANCH   4  17
TORSDOF 8
