REMARK  5 active torsions:
REMARK  status: ('A' for Active; 'I' for Inactive)
REMARK    1  A    between atoms: C7_7  and  S1_8 
REMARK    2  A    between atoms: S1_8  and  N1_11 
REMARK    3  A    between atoms: N1_11  and  C8_12 
REMARK    4  A    between atoms: C8_12  and  C9_13 
REMARK    5  A    between atoms: C9_13  and  O3_14 
REMARK       I    between atoms: N2_16  and  C13_19 
ROOT
ATOM      1  C1  <0> d          -0.502   1.405  -0.056  0.00  0.00     0.050 C 
ATOM      2  C2  <0> d          -0.365  -0.096  -0.045  0.00  0.00    -0.038 A 
ATOM      3  C3  <0> d          -0.568  -0.819  -1.206  0.00  0.00     0.017 A 
ATOM      4  C4  <0> d          -0.444  -2.195  -1.197  0.00  0.00    -0.029 A 
ATOM      5  C5  <0> d          -0.116  -2.863  -0.029  0.00  0.00     0.045 A 
ATOM      6  C6  <0> d           0.087  -2.127   1.140  0.00  0.00     0.056 A 
ATOM      7  C7  <0> d          -0.032  -0.753   1.125  0.00  0.00     0.087 A 
ATOM      8  N2  <0> d          -0.039  -4.245  -0.230  0.00  0.00    -0.318 N 
ATOM      9  C11 <0> d          -0.332  -4.566  -1.629  0.00  0.00     0.137 A 
ATOM     10  C12 <0> d          -0.608  -3.212  -2.304  0.00  0.00     0.061 A 
ATOM     11  C13 <0> d           0.261  -5.149   0.724  0.00  0.00     0.220 C 
ATOM     12  O4  <0> d           0.489  -4.782   1.857  0.00  0.00    -0.273 OA
ATOM     13  C14 <0> d           0.313  -6.616   0.381  0.00  0.00     0.117 C 
ENDROOT
BRANCH   7  14
ATOM     14  S1  <0> d           0.234   0.167   2.604  0.00  0.00     0.259 S 
ATOM     15  O1  <0> d           0.523  -0.778   3.624  0.00  0.00    -0.201 OA
ATOM     16  O2  <0> d           1.123   1.224   2.270  0.00  0.00    -0.201 OA
BRANCH  14  17
ATOM     17  N1  <0> d          -1.209   0.872   3.008  0.00  0.00    -0.313 N 
ATOM     18  H6  <0> d          -1.293   1.839   3.010  0.00  0.00     0.172 HD
BRANCH  17  19
ATOM     19  C8  <0> d          -2.359   0.036   3.361  0.00  0.00     0.158 C 
BRANCH  19  20
ATOM     20  C9  <0> d          -3.420   0.895   4.053  0.00  0.00     0.187 C 
BRANCH  20  21
ATOM     21  O3  <0> d          -3.925   1.862   3.130  0.00  0.00    -0.394 OA
ATOM     22  C10 <0> d          -4.928   2.720   3.679  0.00  0.00     0.201 C 
ENDBRANCH  20  21
ENDBRANCH  19  20
ENDBRANCH  17  19
ENDBRANCH  14  17
ENDBRANCH   7  14
TORSDOF 5
