REMARK  5 active torsions:
REMARK  status: ('A' for Active; 'I' for Inactive)
REMARK    1  A    between atoms: C2_2  and  C3_3 
REMARK    2  A    between atoms: C3_3  and  N1_4 
REMARK    3  A    between atoms: N2_14  and  C12_19 
REMARK    4  A    between atoms: C11_15  and  N4_17 
REMARK    5  A    between atoms: N4_17  and  N5_18 
ROOT
ATOM      1  N1  <0> d          -8.535   0.538   0.758  0.00  0.00     0.093 N 
ATOM      2  C4  <0> d          -8.502   1.070  -0.612  0.00  0.00     0.277 C 
ATOM      3  C5  <0> d          -7.136   1.697  -0.899  0.00  0.00     0.071 C 
ATOM      4  C6  <0> d          -6.058   0.677  -0.541  0.00  0.00    -0.023 A 
ATOM      5  C7  <0> d          -6.362  -0.370   0.256  0.00  0.00     0.020 A 
ATOM      6  S1  <0> d          -4.853  -1.284   0.408  0.00  0.00    -0.071 SA
ATOM      7  C8  <0> d          -3.815  -0.254  -0.599  0.00  0.00     0.133 A 
ATOM      8  C9  <0> d          -4.680   0.770  -1.022  0.00  0.00     0.077 A 
ATOM      9  C10 <0> d          -4.098   1.766  -1.868  0.00  0.00     0.280 A 
ATOM     10  O1  <0> d          -4.772   2.693  -2.284  0.00  0.00    -0.266 OA
ATOM     11  N2  <0> d          -2.798   1.667  -2.197  0.00  0.00    -0.107 N 
ATOM     12  C11 <0> d          -2.027   0.636  -1.741  0.00  0.00     0.725 A 
ATOM     13  N3  <0> d          -2.539  -0.297  -0.966  0.00  0.00    -0.055 NA
ATOM     14  C18 <0> d          -7.696  -0.670   0.866  0.00  0.00     0.319 C 
ENDROOT
BRANCH  11  15
ATOM     15  C12 <0> d          -2.222   2.641  -3.025  0.00  0.00     0.060 A 
ATOM     16  C17 <0> d          -2.240   2.480  -4.404  0.00  0.00     0.030 A 
ATOM     17  C16 <0> d          -1.673   3.442  -5.217  0.00  0.00     0.002 A 
ATOM     18  C15 <0> d          -1.087   4.563  -4.659  0.00  0.00     0.000 A 
ATOM     19  C14 <0> d          -1.067   4.726  -3.286  0.00  0.00     0.002 A 
ATOM     20  C13 <0> d          -1.638   3.770  -2.468  0.00  0.00     0.030 A 
ENDBRANCH  11  15
BRANCH  12  21
ATOM     21  N4  <0> d          -0.704   0.569  -2.099  0.00  0.00    -0.154 N 
ATOM     22  H12 <0> d          -0.289   1.297  -2.812  0.00  0.00     0.199 HD
BRANCH  21  23
ATOM     23  N5  <0> d           0.099  -0.402  -1.570  0.00  0.00    -0.235 NA
ATOM     24  H13 <0> d           1.117  -0.295  -1.972  0.00  0.00     0.143 HD
ATOM     25  H14 <0> d           0.124  -0.300  -0.475  0.00  0.00     0.143 HD
ENDBRANCH  21  23
ENDBRANCH  12  21
BRANCH   1  26
ATOM     26  C3  <0> d          -9.914   0.261   1.182  0.00  0.00     0.272 C 
BRANCH  26  27
ATOM     27  C2  <0> d         -10.561  -0.721   0.203  0.00  0.00     0.026 C 
ATOM     28  C1  <0> d         -11.997  -1.010   0.645  0.00  0.00     0.007 C 
ENDBRANCH  26  27
ENDBRANCH   1  26
TORSDOF 5
