REMARK  7 active torsions:
REMARK  status: ('A' for Active; 'I' for Inactive)
REMARK    1  A    between atoms: C2_2  and  O1_3 
REMARK    2  A    between atoms: O1_3  and  C3_4 
REMARK    3  A    between atoms: C3_4  and  C4_5 
REMARK       I    between atoms: C4_5  and  N1_7 
REMARK    4  A    between atoms: N1_7  and  N2_8 
REMARK       I    between atoms: N2_8  and  C5_9 
REMARK    5  A    between atoms: C5_9  and  C6_11 
REMARK    6  A    between atoms: C6_11  and  S1_12 
REMARK    7  A    between atoms: S1_12  and  C7_13 
ROOT
ATOM      1  N2  <0> d          -4.564  -4.019   0.024  0.00  0.00    -0.267 N 
ATOM      2  C5  <0> d          -4.896  -5.325   0.020  0.00  0.00     0.245 C 
ATOM      3  O3  <0> d          -4.028  -6.171   0.007  0.00  0.00    -0.271 OA
ATOM      4  H9  <0> d          -5.258  -3.341   0.034  0.00  0.00     0.190 HD
ENDROOT
BRANCH   2   5
ATOM      5  C6  <0> d          -6.347  -5.733   0.032  0.00  0.00     0.184 C 
BRANCH   5   6
ATOM      6  S1  <0> d          -6.465  -7.543   0.023  0.00  0.00    -0.120 SA
BRANCH   6   7
ATOM      7  C7  <0> d          -8.199  -7.857   0.038  0.00  0.00     0.007 A 
ATOM      8  C12 <0> d          -8.670  -9.164   0.036  0.00  0.00    -0.044 A 
ATOM      9  C11 <0> d         -10.030  -9.406   0.052  0.00  0.00     0.027 A 
ATOM     10  C13 <0> d          -7.699 -10.316   0.020  0.00  0.00     0.049 C 
ATOM     11  C10 <0> d         -10.922  -8.349   0.060  0.00  0.00     0.011 A 
ATOM     12  C9  <0> d         -10.456  -7.046   0.058  0.00  0.00     0.020 A 
ATOM     13 Br1  <0> d         -12.783  -8.686   0.076  0.00  0.00    -0.051 Br
ATOM     14  C8  <0> d          -9.098  -6.797   0.047  0.00  0.00     0.020 A 
ENDBRANCH   6   7
ENDBRANCH   5   6
ENDBRANCH   2   5
BRANCH   1  15
ATOM     15  N1  <0> d          -3.215  -3.639   0.013  0.00  0.00    -0.266 N 
ATOM     16  C4  <0> d          -2.883  -2.333   0.017  0.00  0.00     0.259 C 
ATOM     17  O2  <0> d          -3.751  -1.486   0.030  0.00  0.00    -0.269 OA
ATOM     18  H8  <0> d          -2.521  -4.316   0.003  0.00  0.00     0.190 HD
BRANCH  16  19
ATOM     19  C3  <0> d          -1.432  -1.925   0.005  0.00  0.00     0.272 C 
BRANCH  19  20
ATOM     20  O1  <0> d          -1.339  -0.499   0.012  0.00  0.00    -0.382 OA
BRANCH  20  21
ATOM     21  C2  <0> d           0.002  -0.004   0.002  0.00  0.00     0.163 C 
ATOM     22  C1  <0> d          -0.019   1.526   0.010  0.00  0.00     0.033 C 
ENDBRANCH  20  21
ENDBRANCH  19  20
ENDBRANCH  16  19
ENDBRANCH   1  15
TORSDOF 7
