REMARK  5 active torsions:
REMARK  status: ('A' for Active; 'I' for Inactive)
REMARK    1  A    between atoms: C2_2  and  C3_3 
REMARK    2  A    between atoms: C2_2  and  C8_9 
REMARK    3  A    between atoms: C2_2  and  O2_15 
REMARK    4  A    between atoms: C4_4  and  C5_5 
REMARK    5  A    between atoms: C5_5  and  O1_8 
ROOT
ATOM      1  C1  <0> d          -0.019   1.526   0.010  0.00  0.00     0.066 C 
ATOM      2  C2  <0> d           0.002  -0.004   0.002  0.00  0.00     0.145 C 
ENDROOT
BRANCH   2   3
ATOM      3  C3  <0> d           0.714  -0.492   1.195  0.00  0.00    -0.060 C 
ATOM      4  C4  <0> d           1.282  -0.881   2.146  0.00  0.00    -0.066 C 
BRANCH   4   5
ATOM      5  C5  <0> d           1.994  -1.368   3.338  0.00  0.00     0.114 C 
ATOM      6  C6  <0> d           2.014  -2.898   3.330  0.00  0.00     0.060 C 
ATOM      7  C7  <0> d           3.429  -0.839   3.327  0.00  0.00     0.060 C 
BRANCH   5   8
ATOM      8  O1  <0> d           1.325  -0.907   4.514  0.00  0.00    -0.378 OA
ATOM      9  H10 <0> d           1.740  -1.192   5.340  0.00  0.00     0.211 HD
ENDBRANCH   5   8
ENDBRANCH   4   5
ENDBRANCH   2   3
BRANCH   2  10
ATOM     10  C8  <0> d          -1.412  -0.526   0.013  0.00  0.00    -0.009 A 
ATOM     11  C12 <0> d          -1.726  -1.736  -0.586  0.00  0.00     0.030 A 
ATOM     12  C11 <0> d          -3.033  -2.185  -0.551  0.00  0.00     0.117 A 
ATOM     13  N1  <0> d          -3.976  -1.472   0.033  0.00  0.00    -0.273 NA
ATOM     14  C10 <0> d          -3.714  -0.314   0.607  0.00  0.00     0.117 A 
ATOM     15  C9  <0> d          -2.430   0.196   0.617  0.00  0.00     0.030 A 
ENDBRANCH   2  10
BRANCH   2  16
ATOM     16  O2  <0> d           0.671  -0.465  -1.174  0.00  0.00    -0.373 OA
ATOM     17  H15 <0> d           0.722  -1.428  -1.246  0.00  0.00     0.212 HD
ENDBRANCH   2  16
TORSDOF 5
