REMARK  5 active torsions:
REMARK  status: ('A' for Active; 'I' for Inactive)
REMARK    1  A    between atoms: C3_3  and  C13_17 
REMARK    2  A    between atoms: N3_6  and  C4_7 
REMARK       I    between atoms: C13_17  and  N5_19 
REMARK    3  A    between atoms: N5_19  and  C14_20 
REMARK    4  A    between atoms: C14_20  and  C15_21 
REMARK    5  A    between atoms: C18_25  and  N7_27 
ROOT
ATOM      1  C1  <0> d          -0.018   1.503   0.010  0.00  0.00     0.073 C 
ATOM      2  C2  <0> d           0.002  -0.004   0.002  0.00  0.00     0.070 A 
ATOM      3  C3  <0> d           0.009  -0.813  -1.099  0.00  0.00     0.172 A 
ATOM      4  N1  <0> d           0.028  -2.092  -0.688  0.00  0.00    -0.124 NA
ATOM      5  N2  <0> d           0.033  -2.132   0.599  0.00  0.00    -0.060 NA
ATOM      6  N3  <0> d           0.023  -0.815   1.082  0.00  0.00    -0.218 N 
ENDROOT
BRANCH   3   7
ATOM      7  C13 <0> d          -0.004  -0.358  -2.502  0.00  0.00     0.274 C 
ATOM      8  O1  <0> d          -0.021   0.831  -2.756  0.00  0.00    -0.266 OA
ATOM      9  N5  <0> d           0.005  -1.261  -3.503  0.00  0.00    -0.351 N 
ATOM     10  H10 <0> d           0.019  -2.209  -3.301  0.00  0.00     0.163 HD
BRANCH   9  11
ATOM     11  C14 <0> d          -0.007  -0.810  -4.897  0.00  0.00     0.161 C 
BRANCH  11  12
ATOM     12  C15 <0> d           0.005  -2.007  -5.813  0.00  0.00    -0.036 A 
ATOM     13  C19 <0> d          -1.177  -2.585  -6.237  0.00  0.00     0.057 A 
ATOM     14  C18 <0> d          -1.126  -3.686  -7.087  0.00  0.00     0.102 A 
ATOM     15  N6  <0> d           0.038  -4.182  -7.476  0.00  0.00    -0.352 N 
ATOM     16  C17 <0> d           1.182  -3.654  -7.082  0.00  0.00     0.090 A 
ATOM     17  H22 <0> d           0.051  -4.952  -8.065  0.00  0.00     0.166 HD
ATOM     18  C16 <0> d           1.205  -2.558  -6.245  0.00  0.00     0.026 A 
BRANCH  14  19
ATOM     19  N7  <0> d          -2.306  -4.273  -7.526  0.00  0.00    -0.376 N 
ATOM     20  C20 <0> d          -2.259  -5.436  -8.415  0.00  0.00     0.150 C 
ATOM     21  C21 <0> d          -3.598  -3.729  -7.099  0.00  0.00     0.150 C 
ENDBRANCH  14  19
ENDBRANCH  11  12
ENDBRANCH   9  11
ENDBRANCH   3   7
BRANCH   6  22
ATOM     22  C4  <0> d           0.031  -0.418   2.426  0.00  0.00     0.061 A 
ATOM     23  C9  <0> d          -0.632  -1.169   3.357  0.00  0.00     0.045 A 
ATOM     24  C8  <0> d          -0.619  -0.772   4.703  0.00  0.00    -0.005 A 
ATOM     25  C7  <0> d           0.071   0.407   5.081  0.00  0.00     0.066 A 
ATOM     26  C10 <0> d          -1.284  -1.521   5.693  0.00  0.00     0.015 A 
ATOM     27  C6  <0> d           0.737   1.157   4.095  0.00  0.00     0.035 A 
ATOM     28  N4  <0> d           0.081   0.789   6.361  0.00  0.00    -0.260 NA
ATOM     29  C5  <0> d           0.712   0.746   2.800  0.00  0.00     0.034 A 
ATOM     30  C12 <0> d          -0.537   0.095   7.286  0.00  0.00     0.117 A 
ATOM     31  C11 <0> d          -1.234  -1.073   6.982  0.00  0.00     0.020 A 
ENDBRANCH   6  22
TORSDOF 5
