REMARK  3 active torsions:
REMARK  status: ('A' for Active; 'I' for Inactive)
REMARK       I    between atoms: N1_4  and  C8_10 
REMARK    1  A    between atoms: C8_10  and  C9_12 
REMARK       I    between atoms: C9_12  and  N2_14 
REMARK    2  A    between atoms: N2_14  and  C10_15 
REMARK    3  A    between atoms: C11_18  and  C12_20 
ROOT
ATOM      1  C9  <0> d          -0.165  -2.217  -3.354  0.00  0.00     0.315 C 
ATOM      2  O3  <0> d          -0.317  -1.018  -3.465  0.00  0.00    -0.262 OA
ATOM      3  N2  <0> d          -0.623  -3.046  -4.313  0.00  0.00    -0.296 N 
ATOM      4  H15 <0> d          -0.502  -4.004  -4.225  0.00  0.00     0.171 HD
ENDROOT
BRANCH   1   5
ATOM      5  C8  <0> d           0.528  -2.775  -2.155  0.00  0.00     0.312 C 
ATOM      6  N1  <0> d           0.870  -1.962  -1.136  0.00  0.00    -0.339 N 
ATOM      7  C3  <0> d           0.602  -0.516  -1.197  0.00  0.00     0.157 C 
ATOM      8  C4  <0> d           1.524  -2.493   0.071  0.00  0.00     0.163 C 
ATOM      9  C2  <0> d          -0.117  -0.103   0.092  0.00  0.00     0.136 C 
ATOM     10  C1  <0> d          -0.236   1.422   0.145  0.00  0.00     0.041 C 
ATOM     11  O1  <0> d           0.635  -0.562   1.218  0.00  0.00    -0.373 OA
ATOM     12  C5  <0> d           0.760  -1.984   1.298  0.00  0.00     0.070 C 
ATOM     13  C6  <0> d          -0.632  -2.618   1.334  0.00  0.00     0.047 C 
ATOM     14  C7  <0> d           1.526  -2.358   2.569  0.00  0.00     0.047 C 
ATOM     15  O2  <0> d           0.784  -3.960  -2.098  0.00  0.00    -0.262 OA
ENDBRANCH   1   5
BRANCH   3  16
ATOM     16  C10 <0> d          -1.268  -2.528  -5.428  0.00  0.00     0.196 A 
ATOM     17  S1  <0> d          -1.973  -3.366  -6.845  0.00  0.00    -0.033 SA
ATOM     18  C11 <0> d          -2.541  -1.886  -7.677  0.00  0.00     0.105 A 
ATOM     19  N4  <0> d          -2.136  -0.970  -6.819  0.00  0.00    -0.144 NA
ATOM     20  N3  <0> d          -1.533  -1.269  -5.753  0.00  0.00    -0.123 NA
BRANCH  18  21
ATOM     21  C12 <0> d          -3.268  -1.731  -8.988  0.00  0.00     0.047 A 
ATOM     22  C14 <0> d          -4.640  -1.056  -8.959  0.00  0.00     0.012 A 
ATOM     23  C13 <0> d          -3.435  -0.314  -9.540  0.00  0.00     0.012 A 
ENDBRANCH  18  21
ENDBRANCH   3  16
TORSDOF 3
