REMARK  7 active torsions:
REMARK  status: ('A' for Active; 'I' for Inactive)
REMARK    1  A    between atoms: C7_8  and  N3_28 
REMARK    2  A    between atoms: C8_9  and  C9_11 
REMARK    3  A    between atoms: C9_11  and  O2_13 
REMARK    4  A    between atoms: O2_13  and  C10_14 
REMARK    5  A    between atoms: C10_14  and  C11_15 
REMARK       I    between atoms: C11_15  and  N2_17 
REMARK    6  A    between atoms: N2_17  and  C12_18 
REMARK    7  A    between atoms: C17_23  and  C18_24 
ROOT
ATOM      1  C9  <0> d           0.934  -0.925   4.602  0.00  0.00     0.303 C 
ATOM      2  O1  <0> d           1.267   0.228   4.809  0.00  0.00    -0.259 OA
ENDROOT
BRANCH   1   3
ATOM      3  C8  <0> d          -0.108  -1.206   3.688  0.00  0.00     0.109 A 
ATOM      4  C7  <0> d          -0.857  -0.318   2.945  0.00  0.00     0.063 A 
ATOM      5  C6  <0> d          -1.884  -0.851   2.063  0.00  0.00     0.032 A 
ATOM      6  C2  <0> d          -2.770  -0.146   1.211  0.00  0.00    -0.045 A 
ATOM      7  C5  <0> d          -2.010  -2.259   2.070  0.00  0.00     0.088 A 
ATOM      8  C1  <0> d          -2.723   1.358   1.133  0.00  0.00     0.049 C 
ATOM      9  C3  <0> d          -3.670  -0.857   0.452  0.00  0.00     0.032 A 
ATOM     10  C4  <0> d          -3.712  -2.241   0.525  0.00  0.00     0.006 A 
ATOM     11  N1  <0> d          -2.889  -2.893   1.324  0.00  0.00    -0.354 N 
ATOM     12  C19 <0> d          -4.704  -3.006  -0.313  0.00  0.00     0.068 C 
ATOM     13  H17 <0> d          -2.933  -3.861   1.363  0.00  0.00     0.166 HD
ATOM     14  S1  <0> d          -0.778  -2.793   3.231  0.00  0.00    -0.063 SA
BRANCH   4  15
ATOM     15  N3  <0> d          -0.635   1.048   3.034  0.00  0.00    -0.397 N 
ATOM     16  H12 <0> d          -0.874   1.628   2.295  0.00  0.00     0.156 HD
ATOM     17  H13 <0> d          -0.240   1.423   3.837  0.00  0.00     0.156 HD
ENDBRANCH   4  15
ENDBRANCH   1   3
BRANCH   1  18
ATOM     18  O2  <0> d           1.559  -1.934   5.244  0.00  0.00    -0.308 OA
BRANCH  18  19
ATOM     19  C10 <0> d           2.603  -1.576   6.153  0.00  0.00     0.282 C 
BRANCH  19  20
ATOM     20  C11 <0> d           3.179  -2.824   6.771  0.00  0.00     0.246 C 
ATOM     21  O3  <0> d           2.741  -3.912   6.464  0.00  0.00    -0.271 OA
ATOM     22  N2  <0> d           4.183  -2.731   7.666  0.00  0.00    -0.325 N 
ATOM     23  H7  <0> d           4.483  -1.859   7.970  0.00  0.00     0.169 HD
BRANCH  22  24
ATOM     24  C12 <0> d           4.793  -3.890   8.156  0.00  0.00     0.049 A 
ATOM     25  C17 <0> d           6.053  -3.822   8.736  0.00  0.00     0.074 A 
ATOM     26  C16 <0> d           6.650  -4.968   9.226  0.00  0.00     0.018 A 
ATOM     27  C15 <0> d           5.999  -6.184   9.127  0.00  0.00     0.001 A 
ATOM     28  C14 <0> d           4.747  -6.256   8.544  0.00  0.00     0.002 A 
ATOM     29  C13 <0> d           4.143  -5.114   8.059  0.00  0.00     0.030 A 
BRANCH  25  30
ATOM     30  C18 <0> d           6.766  -2.498   8.838  0.00  0.00     0.419 C 
ATOM     31  F1  <0> d           8.008  -2.683   9.455  0.00  0.00    -0.166 F 
ATOM     32  F2  <0> d           6.955  -1.970   7.556  0.00  0.00    -0.166 F 
ATOM     33  F3  <0> d           5.995  -1.611   9.598  0.00  0.00    -0.166 F 
ENDBRANCH  25  30
ENDBRANCH  22  24
ENDBRANCH  19  20
ENDBRANCH  18  19
ENDBRANCH   1  18
TORSDOF 7
