REMARK  7 active torsions:
REMARK  status: ('A' for Active; 'I' for Inactive)
REMARK    1  A    between atoms: C5_5  and  O1_8 
REMARK    2  A    between atoms: O1_8  and  C8_9 
REMARK    3  A    between atoms: C8_9  and  C9_10 
REMARK    4  A    between atoms: C9_10  and  C10_11 
REMARK    5  A    between atoms: C9_10  and  O4_20 
REMARK    6  A    between atoms: C10_11  and  N1_12 
REMARK    7  A    between atoms: N1_12  and  C11_13 
ROOT
ATOM      1  C9  <0> d           2.558  -6.058   0.537  0.00  0.00     0.167 C 
ENDROOT
BRANCH   1   2
ATOM      2  C8  <0> d           2.643  -4.532   0.605  0.00  0.00     0.201 C 
BRANCH   2   3
ATOM      3  O1  <0> d           1.498  -3.963  -0.034  0.00  0.00    -0.383 OA
BRANCH   3   4
ATOM      4  C5  <0> d           1.479  -2.534  -0.026  0.00  0.00     0.121 C 
ATOM      5  C4  <0> d           0.739  -2.027  -1.265  0.00  0.00     0.032 C 
ATOM      6  C3  <0> d           0.718  -0.497  -1.257  0.00  0.00     0.007 C 
ATOM      7  C2  <0> d           0.002  -0.004   0.002  0.00  0.00    -0.019 C 
ATOM      8  C1  <0> d          -0.019   1.526   0.010  0.00  0.00     0.010 C 
ATOM      9  C7  <0> d           0.742  -0.511   1.242  0.00  0.00     0.007 C 
ATOM     10  C6  <0> d           0.763  -2.041   1.233  0.00  0.00     0.032 C 
ENDBRANCH   3   4
ENDBRANCH   2   3
ENDBRANCH   1   2
BRANCH   1  11
ATOM     11  C10 <0> d           3.717  -6.669   1.328  0.00  0.00     0.266 C 
BRANCH  11  12
ATOM     12  N1  <0> d           3.636  -8.134   1.263  0.00  0.00    -0.068 N 
ATOM     13  H20 <0> d           2.760  -8.441   1.659  0.00  0.00     0.277 HD
ATOM     14  H28 <0> d           3.692  -8.432   0.301  0.00  0.00     0.277 HD
BRANCH  12  15
ATOM     15  C11 <0> d           4.749  -8.721   2.022  0.00  0.00     0.200 C 
ATOM     16  C14 <0> d           4.598 -10.268   2.065  0.00  0.00     0.173 C 
ATOM     17  S1  <0> d           6.322 -10.764   2.483  0.00  0.00     0.146 S 
ATOM     18  C13 <0> d           7.216  -9.255   1.927  0.00  0.00     0.142 C 
ATOM     19  O2  <0> d           6.441 -10.877   3.895  0.00  0.00    -0.228 OA
ATOM     20  O3  <0> d           6.703 -11.857   1.659  0.00  0.00    -0.228 OA
ATOM     21  C12 <0> d           6.081  -8.389   1.331  0.00  0.00     0.049 C 
ENDBRANCH  12  15
ENDBRANCH  11  12
ENDBRANCH   1  11
BRANCH   1  22
ATOM     22  O4  <0> d           2.638  -6.480  -0.826  0.00  0.00    -0.392 OA
ATOM     23  H27 <0> d           3.455  -6.219  -1.271  0.00  0.00     0.210 HD
ENDBRANCH   1  22
TORSDOF 7
