REMARK  9 active torsions:
REMARK  status: ('A' for Active; 'I' for Inactive)
REMARK    1  A    between atoms: C2_2  and  C3_3 
REMARK    2  A    between atoms: C3_3  and  N1_4 
REMARK       I    between atoms: N1_4  and  C4_5 
REMARK    3  A    between atoms: C4_5  and  O2_7 
REMARK    4  A    between atoms: O2_7  and  C5_8 
REMARK    5  A    between atoms: C10_13  and  C12_15 
REMARK    6  A    between atoms: C12_15  and  O3_16 
REMARK    7  A    between atoms: C15_19  and  O5_31 
REMARK    8  A    between atoms: C16_20  and  C17_21 
REMARK    9  A    between atoms: C17_21  and  C18_22 
REMARK       I    between atoms: C18_22  and  N2_24 
ROOT
ATOM      1  C5  <0> d          -0.164  -0.242   0.131  0.00  0.00     0.144 C 
ATOM      2  C6  <0> d          -0.144  -0.698  -1.329  0.00  0.00     0.034 C 
ATOM      3  C7  <0> d          -0.097  -2.227  -1.385  0.00  0.00     0.012 C 
ATOM      4  C8  <0> d          -1.331  -2.801  -0.687  0.00  0.00    -0.033 C 
ATOM      5  C9  <0> d          -1.350  -2.345   0.773  0.00  0.00     0.007 C 
ATOM      6  C10 <0> d          -1.398  -0.816   0.829  0.00  0.00     0.008 C 
ATOM      7  C11 <0> d          -1.417  -0.359   2.289  0.00  0.00     0.020 C 
ATOM      8  C13 <0> d          -2.585  -2.919   1.471  0.00  0.00     0.009 C 
ATOM      9  C14 <0> d          -2.537  -4.447   1.416  0.00  0.00     0.032 C 
ATOM     10  C15 <0> d          -2.517  -4.904  -0.044  0.00  0.00     0.123 C 
ATOM     11  C16 <0> d          -1.283  -4.330  -0.742  0.00  0.00     0.031 C 
ATOM     12  C25 <0> d          -2.594  -2.304  -1.393  0.00  0.00     0.016 C 
ENDROOT
BRANCH  11  13
ATOM     13  C17 <0> d          -1.264  -4.786  -2.203  0.00  0.00     0.110 C 
BRANCH  13  14
ATOM     14  C18 <0> d          -1.093  -6.282  -2.259  0.00  0.00     0.220 C 
ATOM     15  O4  <0> d          -0.996  -6.921  -1.232  0.00  0.00    -0.273 OA
ATOM     16  N2  <0> d          -1.048  -6.912  -3.450  0.00  0.00    -0.352 N 
ATOM     17  C23 <0> d          -0.882  -8.370  -3.520  0.00  0.00     0.126 C 
ATOM     18  C19 <0> d          -1.170  -6.153  -4.702  0.00  0.00     0.126 C 
ATOM     19  C22 <0> d           0.309  -8.687  -4.430  0.00  0.00     0.024 C 
ATOM     20  C21 <0> d           0.103  -8.011  -5.788  0.00  0.00    -0.015 C 
ATOM     21  C20 <0> d           0.030  -6.494  -5.599  0.00  0.00     0.024 C 
ATOM     22  C24 <0> d           1.274  -8.354  -6.711  0.00  0.00     0.010 C 
ENDBRANCH  13  14
ENDBRANCH  11  13
BRANCH  10  23
ATOM     23  O5  <0> d          -3.697  -4.440  -0.704  0.00  0.00    -0.395 OA
ATOM     24  H41 <0> d          -4.520  -4.766  -0.315  0.00  0.00     0.210 HD
ENDBRANCH  10  23
BRANCH   6  25
ATOM     25  C12 <0> d          -2.661  -0.319   0.122  0.00  0.00     0.176 C 
BRANCH  25  26
ATOM     26  O3  <0> d          -2.809   1.085   0.343  0.00  0.00    -0.400 OA
ATOM     27  H22 <0> d          -3.591   1.469  -0.078  0.00  0.00     0.209 HD
ENDBRANCH  25  26
ENDBRANCH   6  25
BRANCH   1  28
ATOM     28  O2  <0> d          -0.209   1.209   0.184  0.00  0.00    -0.298 OA
BRANCH  28  29
ATOM     29  C4  <0> d           0.971   1.857   0.210  0.00  0.00     0.360 C 
ATOM     30  N1  <0> d           0.999   3.203   0.260  0.00  0.00    -0.337 N 
ATOM     31  H12 <0> d           0.170   3.706   0.276  0.00  0.00     0.164 HD
ATOM     32  O1  <0> d           2.010   1.227   0.190  0.00  0.00    -0.239 OA
BRANCH  30  33
ATOM     33  C3  <0> d           2.283   3.908   0.288  0.00  0.00     0.124 C 
BRANCH  33  34
ATOM     34  C2  <0> d           2.035   5.417   0.343  0.00  0.00     0.015 C 
ATOM     35  C1  <0> d           3.376   6.153   0.373  0.00  0.00     0.006 C 
ENDBRANCH  33  34
ENDBRANCH  30  33
ENDBRANCH  28  29
ENDBRANCH   1  28
TORSDOF 9
