REMARK  6 active torsions:
REMARK  status: ('A' for Active; 'I' for Inactive)
REMARK    1  A    between atoms: C5_5  and  S1_8 
REMARK    2  A    between atoms: S1_8  and  N1_11 
REMARK    3  A    between atoms: N1_11  and  C8_12 
REMARK    4  A    between atoms: C11_15  and  C14_18 
REMARK       I    between atoms: C14_18  and  N2_20 
REMARK    5  A    between atoms: N2_20  and  N3_21 
REMARK    6  A    between atoms: C15_22  and  C16_23 
ROOT
ATOM      1  C8  <0> d           2.400  -4.611   1.206  0.00  0.00     0.042 A 
ATOM      2  C9  <0> d           2.168  -3.424   1.896  0.00  0.00     0.031 A 
ATOM      3  C10 <0> d           2.882  -3.139   3.037  0.00  0.00     0.019 A 
ATOM      4  C11 <0> d           3.842  -4.042   3.503  0.00  0.00     0.033 A 
ATOM      5  C12 <0> d           4.072  -5.233   2.808  0.00  0.00     0.019 A 
ATOM      6  C13 <0> d           3.351  -5.515   1.671  0.00  0.00     0.031 A 
ENDROOT
BRANCH   4   7
ATOM      7  C14 <0> d           4.609  -3.740   4.726  0.00  0.00     0.271 C 
ATOM      8  O3  <0> d           4.408  -2.703   5.329  0.00  0.00    -0.266 OA
ATOM      9  N2  <0> d           5.534  -4.611   5.174  0.00  0.00    -0.243 N 
ATOM     10  H14 <0> d           5.695  -5.438   4.692  0.00  0.00     0.192 HD
BRANCH   9  11
ATOM     11  N3  <0> d           6.263  -4.324   6.335  0.00  0.00    -0.187 NA
ATOM     12  C15 <0> d           7.142  -5.152   6.761  0.00  0.00     0.129 C 
BRANCH  12  13
ATOM     13  C16 <0> d           7.926  -4.843   8.010  0.00  0.00     0.144 A 
ATOM     14  C24 <0> d           7.578  -5.887   9.046  0.00  0.00     0.235 A 
ATOM     15  N4  <0> d           8.534  -6.633   9.573  0.00  0.00    -0.326 N 
ATOM     16  O4  <0> d           6.423  -6.040   9.396  0.00  0.00    -0.272 OA
ATOM     17  C23 <0> d           9.818  -6.517   9.234  0.00  0.00     0.044 A 
ATOM     18  H21 <0> d           8.289  -7.297  10.237  0.00  0.00     0.169 HD
ATOM     19  C18 <0> d          10.276  -5.536   8.236  0.00  0.00    -0.012 A 
ATOM     20  C22 <0> d          10.782  -7.348   9.835  0.00  0.00     0.030 A 
ATOM     21  C17 <0> d           9.385  -4.707   7.621  0.00  0.00     0.006 A 
ATOM     22  C19 <0> d          11.703  -5.472   7.919  0.00  0.00     0.013 A 
ATOM     23  C20 <0> d          12.554  -6.318   8.556  0.00  0.00     0.001 A 
ATOM     24  C21 <0> d          12.093  -7.239   9.497  0.00  0.00     0.002 A 
ENDBRANCH  12  13
ENDBRANCH   9  11
ENDBRANCH   4   7
BRANCH   1  25
ATOM     25  N1  <0> d           1.676  -4.896   0.053  0.00  0.00    -0.281 N 
ATOM     26  H9  <0> d           2.098  -4.817  -0.816  0.00  0.00     0.179 HD
BRANCH  25  27
ATOM     27  S1  <0> d           0.093  -5.370   0.166  0.00  0.00     0.263 S 
ATOM     28  O1  <0> d          -0.356  -5.602  -1.162  0.00  0.00    -0.200 OA
ATOM     29  O2  <0> d          -0.546  -4.447   1.036  0.00  0.00    -0.200 OA
BRANCH  27  30
ATOM     30  C5  <0> d           0.074  -6.930   0.984  0.00  0.00     0.079 A 
ATOM     31  C4  <0> d          -0.137  -6.993   2.349  0.00  0.00     0.026 A 
ATOM     32  C3  <0> d          -0.153  -8.217   2.990  0.00  0.00     0.008 A 
ATOM     33  C2  <0> d           0.041  -9.379   2.267  0.00  0.00    -0.062 A 
ATOM     34  C1  <0> d           0.023 -10.714   2.967  0.00  0.00     0.048 C 
ATOM     35  C7  <0> d           0.257  -9.316   0.903  0.00  0.00     0.008 A 
ATOM     36  C6  <0> d           0.269  -8.092   0.261  0.00  0.00     0.026 A 
ENDBRANCH  27  30
ENDBRANCH  25  27
ENDBRANCH   1  25
TORSDOF 6
