REMARK  5 active torsions:
REMARK  status: ('A' for Active; 'I' for Inactive)
REMARK    1  A    between atoms: C3_3  and  C15_22 
REMARK    2  A    between atoms: C4_4  and  C6_9 
REMARK    3  A    between atoms: C8_11  and  O4_20 
REMARK    4  A    between atoms: C9_12  and  O2_16 
REMARK    5  A    between atoms: O2_16  and  C12_17 
ROOT
ATOM      1  C1  <0> d           2.748  -1.288   0.163  0.00  0.00     0.069 C 
ATOM      2  C2  <0> d           1.429  -1.968  -0.098  0.00  0.00     0.022 A 
ATOM      3  C3  <0> d           0.282  -1.386   0.330  0.00  0.00     0.037 A 
ATOM      4  C4  <0> d          -1.021  -2.105   0.046  0.00  0.00     0.160 A 
ATOM      5  N1  <0> d          -0.932  -3.385  -0.676  0.00  0.00    -0.330 N 
ATOM      6  C5  <0> d           0.286  -3.836  -1.036  0.00  0.00     0.321 A 
ATOM      7  O1  <0> d           0.369  -4.892  -1.632  0.00  0.00    -0.247 OA
ATOM      8  N2  <0> d           1.407  -3.157  -0.764  0.00  0.00    -0.312 N 
ATOM      9  H5  <0> d          -1.731  -3.893  -0.887  0.00  0.00     0.165 HD
ATOM     10  H6  <0> d           2.252  -3.534  -1.055  0.00  0.00     0.170 HD
ENDROOT
BRANCH   4  11
ATOM     11  C6  <0> d          -1.707  -2.361   1.363  0.00  0.00    -0.011 A 
ATOM     12  C11 <0> d          -3.064  -2.628   1.394  0.00  0.00     0.022 A 
ATOM     13  C10 <0> d          -3.697  -2.869   2.600  0.00  0.00     0.060 A 
ATOM     14 Br1  <0> d          -4.054  -2.670  -0.216  0.00  0.00    -0.050 Br
ATOM     15  C9  <0> d          -2.973  -2.833   3.781  0.00  0.00     0.113 A 
ATOM     16  C8  <0> d          -1.609  -2.559   3.750  0.00  0.00     0.102 A 
ATOM     17  C7  <0> d          -0.980  -2.324   2.538  0.00  0.00     0.050 A 
BRANCH  15  18
ATOM     18  O2  <0> d          -3.594  -3.066   4.968  0.00  0.00    -0.276 OA
BRANCH  18  19
ATOM     19  C12 <0> d          -4.059  -2.010   5.654  0.00  0.00     0.260 C 
ATOM     20  O3  <0> d          -3.840  -0.889   5.259  0.00  0.00    -0.265 OA
ATOM     21  C13 <0> d          -4.854  -2.221   6.917  0.00  0.00     0.126 C 
ENDBRANCH  18  19
ENDBRANCH  15  18
BRANCH  16  22
ATOM     22  O4  <0> d          -0.894  -2.524   4.907  0.00  0.00    -0.353 OA
ATOM     23  C14 <0> d           0.501  -2.237   4.798  0.00  0.00     0.210 C 
ENDBRANCH  16  22
ENDBRANCH   4  11
BRANCH   3  24
ATOM     24  C15 <0> d           0.301  -0.158   1.013  0.00  0.00     0.156 C 
ATOM     25  O5  <0> d           1.361   0.350   1.319  0.00  0.00    -0.293 OA
ATOM     26  C16 <0> d          -0.994   0.528   1.365  0.00  0.00     0.096 C 
ENDBRANCH   3  24
TORSDOF 5
