REMARK  4 active torsions:
REMARK  status: ('A' for Active; 'I' for Inactive)
REMARK    1  A    between atoms: C2_2  and  S1_4 
REMARK    2  A    between atoms: S1_4  and  N1_7 
REMARK       I    between atoms: N1_7  and  C4_8 
REMARK    3  A    between atoms: N1_7  and  S2_24 
REMARK    4  A    between atoms: C4_8  and  C5_10 
ROOT
ATOM      1  C5  <0> d          -2.676  -0.042  -3.731  0.00  0.00     0.291 C 
ATOM      2  C6  <0> d          -4.133   0.465  -3.609  0.00  0.00     0.126 C 
ATOM      3  C7  <0> d          -4.888  -0.205  -4.758  0.00  0.00     0.179 C 
ATOM      4  C8  <0> d          -3.779  -0.527  -5.737  0.00  0.00     0.358 C 
ATOM      5  N2  <0> d          -4.092  -1.651  -6.622  0.00  0.00    -0.356 N 
ATOM      6  C9  <0> d          -2.982  -2.248  -7.254  0.00  0.00     0.037 A 
ATOM      7  C10 <0> d          -3.182  -3.105  -8.326  0.00  0.00     0.030 A 
ATOM      8  C11 <0> d          -2.095  -3.682  -8.955  0.00  0.00     0.002 A 
ATOM      9  C12 <0> d          -0.814  -3.404  -8.515  0.00  0.00     0.001 A 
ATOM     10  C13 <0> d          -0.614  -2.554  -7.444  0.00  0.00     0.011 A 
ATOM     11  C14 <0> d          -1.696  -1.976  -6.805  0.00  0.00    -0.006 A 
ATOM     12  C15 <0> d          -1.458  -1.070  -5.617  0.00  0.00     0.279 C 
ATOM     13  N3  <0> d          -2.686  -1.003  -4.839  0.00  0.00    -0.026 N 
ATOM     14  O4  <0> d          -6.072  -0.423  -4.859  0.00  0.00    -0.294 OA
ATOM     15  H21 <0> d          -4.999  -1.964  -6.763  0.00  0.00     0.162 HD
ATOM     16  H22 <0> d          -2.910  -1.922  -4.489  0.00  0.00     0.284 HD
ENDROOT
BRANCH   1  17
ATOM     17  C4  <0> d          -2.253  -0.723  -2.455  0.00  0.00     0.275 C 
ATOM     18  N1  <0> d          -2.200  -0.024  -1.304  0.00  0.00    -0.179 N 
ATOM     19  O3  <0> d          -1.959  -1.899  -2.463  0.00  0.00    -0.269 OA
BRANCH  18  20
ATOM     20  S1  <0> d          -1.734  -0.771   0.099  0.00  0.00     0.248 S 
ATOM     21  O1  <0> d          -1.121   0.253   0.869  0.00  0.00    -0.204 OA
ATOM     22  O2  <0> d          -0.989  -1.904  -0.325  0.00  0.00    -0.204 OA
BRANCH  20  23
ATOM     23  C2  <0> d          -3.283  -1.299   0.882  0.00  0.00     0.122 C 
ATOM     24  C1  <0> d          -4.037  -2.240  -0.060  0.00  0.00     0.027 C 
ATOM     25  C3  <0> d          -2.970  -2.030   2.189  0.00  0.00     0.027 C 
ENDBRANCH  20  23
ENDBRANCH  18  20
BRANCH  18  26
ATOM     26  S2  <0> d          -2.601   1.583  -1.292  0.00  0.00    -0.038 SA
ATOM     27  C16 <0> d          -1.032   2.430  -1.628  0.00  0.00     0.116 C 
ENDBRANCH  18  26
ENDBRANCH   1  17
TORSDOF 4
