REMARK  1 active torsions:
REMARK  status: ('A' for Active; 'I' for Inactive)
REMARK    1  A    between atoms: C5_5  and  O1_16 
ROOT
ATOM      1  C1  <0> d           1.343   4.472   1.007  0.00  0.00     0.042 C 
ATOM      2  C2  <0> d           0.248   3.999   1.958  0.00  0.00     0.159 C 
ATOM      3  C3  <0> d          -0.971   3.429   1.232  0.00  0.00     0.234 C 
ATOM      4  C4  <0> d          -0.737   1.910   1.270  0.00  0.00     0.147 C 
ATOM      5  C5  <0> d          -0.017   1.426   0.010  0.00  0.00     0.136 C 
ATOM      6  C6  <0> d          -0.751   1.920  -1.236  0.00  0.00     0.070 C 
ATOM      7  C7  <0> d          -0.701   3.452  -1.253  0.00  0.00     0.224 C 
ATOM      8  C8  <0> d          -1.540   5.415  -0.085  0.00  0.00     0.241 C 
ATOM      9  C9  <0> d          -2.658   5.682  -1.096  0.00  0.00     0.067 C 
ATOM     10  C10 <0> d          -2.345   4.989  -2.398  0.00  0.00    -0.048 A 
ATOM     11  C11 <0> d          -1.433   3.958  -2.473  0.00  0.00    -0.021 A 
ATOM     12  C12 <0> d          -1.165   3.365  -3.697  0.00  0.00     0.010 A 
ATOM     13  C13 <0> d          -1.818   3.790  -4.837  0.00  0.00     0.001 A 
ATOM     14  C14 <0> d          -2.740   4.817  -4.760  0.00  0.00     0.001 A 
ATOM     15  C15 <0> d          -3.001   5.414  -3.543  0.00  0.00     0.008 A 
ATOM     16  C16 <0> d           0.224   1.726   2.440  0.00  0.00     0.268 C 
ATOM     17  O2  <0> d           0.483   0.664   2.981  0.00  0.00    -0.265 OA
ATOM     18  O3  <0> d           0.745   2.911   2.791  0.00  0.00    -0.314 OA
ATOM     19  N1  <0> d          -1.464   3.953  -0.070  0.00  0.00    -0.055 N 
ATOM     20  H20 <0> d          -2.425   3.605  -0.174  0.00  0.00     0.281 HD
ENDROOT
BRANCH   5  21
ATOM     21  O1  <0> d           0.002  -0.004   0.002  0.00  0.00    -0.395 OA
ATOM     22  H19 <0> d           0.442  -0.387  -0.769  0.00  0.00     0.210 HD
ENDBRANCH   5  21
TORSDOF 1
