REMARK  5 active torsions:
REMARK  status: ('A' for Active; 'I' for Inactive)
REMARK    1  A    between atoms: C2_2  and  C4_4 
REMARK    2  A    between atoms: N1_7  and  C16_20 
REMARK    3  A    between atoms: C8_10  and  C12_15 
REMARK    4  A    between atoms: C12_15  and  C13_16 
REMARK    5  A    between atoms: C12_15  and  N2_19 
ROOT
ATOM      1  C4  <0> d          -0.273  -5.210   3.697  0.00  0.00     0.224 C 
ATOM      2  C5  <0> d          -1.518  -4.572   4.259  0.00  0.00     0.254 C 
ATOM      3  O1  <0> d          -2.303  -5.235   4.903  0.00  0.00    -0.270 OA
ATOM      4  N1  <0> d          -1.756  -3.260   4.042  0.00  0.00    -0.309 N 
ATOM      5  C6  <0> d          -0.850  -2.525   3.264  0.00  0.00     0.071 A 
ATOM      6  C7  <0> d          -0.870  -1.140   3.273  0.00  0.00     0.041 A 
ATOM      7  C8  <0> d           0.032  -0.434   2.498  0.00  0.00    -0.025 A 
ATOM      8  C9  <0> d           0.948  -1.107   1.711  0.00  0.00     0.012 A 
ATOM      9  C10 <0> d           0.977  -2.490   1.702  0.00  0.00     0.040 A 
ATOM     10  C11 <0> d           0.077  -3.203   2.475  0.00  0.00     0.097 A 
ATOM     11  O2  <0> d           0.088  -4.563   2.474  0.00  0.00    -0.334 OA
ENDROOT
BRANCH   7  12
ATOM     12  C12 <0> d           0.011   1.072   2.506  0.00  0.00     0.219 C 
BRANCH  12  13
ATOM     13  C13 <0> d          -0.729   1.579   1.267  0.00  0.00     0.012 C 
ATOM     14  C14 <0> d          -0.013   1.086   0.008  0.00  0.00     0.012 C 
ATOM     15  C15 <0> d          -0.750   3.109   1.275  0.00  0.00     0.012 C 
ENDBRANCH  12  13
BRANCH  12  16
ATOM     16  N2  <0> d           1.389   1.581   2.496  0.00  0.00    -0.071 N 
ATOM     17  H20 <0> d           1.374   2.681   2.502  0.00  0.00     0.275 HD
ATOM     18  H21 <0> d           1.904   1.226   1.591  0.00  0.00     0.275 HD
ATOM     19  H29 <0> d           1.921   1.217   3.387  0.00  0.00     0.275 HD
ENDBRANCH  12  16
ENDBRANCH   7  12
BRANCH   4  20
ATOM     20  C16 <0> d          -2.941  -2.615   4.612  0.00  0.00     0.085 C 
ATOM     21  C17 <0> d          -4.201  -3.304   4.082  0.00  0.00     0.032 C 
ATOM     22  C18 <0> d          -2.901  -2.730   6.137  0.00  0.00     0.032 C 
ENDBRANCH   4  20
BRANCH   1  23
ATOM     23  C2  <0> d           0.871  -5.068   4.704  0.00  0.00     0.016 C 
ATOM     24  C1  <0> d           2.135  -5.715   4.135  0.00  0.00     0.012 C 
ATOM     25  C3  <0> d           1.133  -3.585   4.973  0.00  0.00     0.012 C 
ENDBRANCH   1  23
TORSDOF 5
