REMARK  7 active torsions:
REMARK  status: ('A' for Active; 'I' for Inactive)
REMARK    1  A    between atoms: C3_4  and  C7_11 
REMARK    2  A    between atoms: C7_11  and  C8_12 
REMARK    3  A    between atoms: C8_12  and  C9_13 
REMARK       I    between atoms: C9_13  and  N3_15 
REMARK    4  A    between atoms: N3_15  and  N4_16 
REMARK       I    between atoms: N4_16  and  C10_17 
REMARK    5  A    between atoms: C10_17  and  C11_19 
REMARK    6  A    between atoms: C11_19  and  C12_20 
REMARK    7  A    between atoms: C17_25  and  O5_26 
ROOT
ATOM      1  C9  <0> d           0.260  -4.852  -3.664  0.00  0.00     0.259 C 
ATOM      2  O3  <0> d           0.245  -4.251  -4.723  0.00  0.00    -0.267 OA
ATOM      3  N3  <0> d           0.380  -6.194  -3.652  0.00  0.00    -0.264 N 
ATOM      4  H10 <0> d           0.391  -6.672  -2.808  0.00  0.00     0.190 HD
ENDROOT
BRANCH   3   5
ATOM      5  N4  <0> d           0.489  -6.898  -4.858  0.00  0.00    -0.267 N 
ATOM      6  C10 <0> d           0.610  -8.241  -4.846  0.00  0.00     0.240 C 
ATOM      7  O4  <0> d           0.624  -8.839  -3.791  0.00  0.00    -0.272 OA
ATOM      8  H11 <0> d           0.478  -6.420  -5.702  0.00  0.00     0.190 HD
BRANCH   6   9
ATOM      9  C11 <0> d           0.727  -8.998  -6.144  0.00  0.00     0.146 C 
BRANCH   9  10
ATOM     10  C12 <0> d           0.849 -10.473  -5.855  0.00  0.00    -0.016 A 
ATOM     11  C17 <0> d          -0.291 -11.239  -5.664  0.00  0.00     0.074 A 
ATOM     12  C16 <0> d          -0.176 -12.597  -5.405  0.00  0.00     0.037 A 
ATOM     13  C15 <0> d           1.074 -13.180  -5.326  0.00  0.00     0.003 A 
ATOM     14  C14 <0> d           2.209 -12.413  -5.510  0.00  0.00     0.001 A 
ATOM     15  C13 <0> d           2.096 -11.060  -5.774  0.00  0.00     0.010 A 
BRANCH  11  16
ATOM     16  O5  <0> d          -1.520 -10.662  -5.737  0.00  0.00    -0.355 OA
ATOM     17  C18 <0> d          -2.649 -11.512  -5.530  0.00  0.00     0.210 C 
ENDBRANCH  11  16
ENDBRANCH   9  10
ENDBRANCH   6   9
ENDBRANCH   3   5
BRANCH   1  18
ATOM     18  C8  <0> d           0.149  -4.139  -2.445  0.00  0.00     0.077 C 
BRANCH  18  19
ATOM     19  C7  <0> d           0.028  -2.792  -2.457  0.00  0.00     0.024 C 
BRANCH  19  20
ATOM     20  C3  <0> d           0.026  -2.045  -1.196  0.00  0.00     0.048 A 
ATOM     21  C2  <0> d           0.019  -0.662  -1.188  0.00  0.00     0.112 A 
ATOM     22  N1  <0> d           0.017  -0.004   0.002  0.00  0.00    -0.313 N 
ATOM     23  C1  <0> d           0.010   1.461   0.010  0.00  0.00     0.160 C 
ATOM     24  C5  <0> d           0.026  -0.666   1.169  0.00  0.00     0.330 A 
ATOM     25  N2  <0> d           0.027  -2.008   1.231  0.00  0.00    -0.270 N 
ATOM     26  O2  <0> d           0.028  -0.030   2.205  0.00  0.00    -0.246 OA
ATOM     27  C4  <0> d           0.030  -2.745   0.100  0.00  0.00     0.262 A 
ATOM     28  C6  <0> d           0.031  -2.676   2.534  0.00  0.00     0.164 C 
ATOM     29  O1  <0> d           0.037  -3.961   0.150  0.00  0.00    -0.267 OA
ENDBRANCH  19  20
ENDBRANCH  18  19
ENDBRANCH   1  18
TORSDOF 7
