REMARK  5 active torsions:
REMARK  status: ('A' for Active; 'I' for Inactive)
REMARK    1  A    between atoms: N1_2  and  C2_3 
REMARK    2  A    between atoms: N2_5  and  C3_6 
REMARK    3  A    between atoms: N2_5  and  C9_13 
REMARK    4  A    between atoms: C3_6  and  C4_7 
REMARK    5  A    between atoms: C9_13  and  C10_14 
ROOT
ATOM      1  C10 <0> d          -1.207   5.364  -2.825  0.00  0.00     0.029 A 
ATOM      2  C11 <0> d          -1.198   5.154  -4.166  0.00  0.00     0.028 A 
ATOM      3  C12 <0> d           0.090   5.004  -4.842  0.00  0.00    -0.006 A 
ATOM      4  C13 <0> d           0.160   4.785  -6.223  0.00  0.00     0.053 A 
ATOM      5  C14 <0> d           1.389   4.645  -6.832  0.00  0.00     0.103 A 
ATOM      6  C15 <0> d           2.563   4.724  -6.077  0.00  0.00     0.104 A 
ATOM      7  C16 <0> d           2.503   4.942  -4.711  0.00  0.00     0.070 A 
ATOM      8  C17 <0> d           1.273   5.083  -4.082  0.00  0.00     0.048 A 
ATOM      9  N4  <0> d           1.195   5.300  -2.721  0.00  0.00    -0.322 N 
ATOM     10  H1  <0> d           2.035   5.353  -2.181  0.00  0.00     0.169 HD
ATOM     11  C18 <0> d           0.005   5.441  -2.110  0.00  0.00     0.253 A 
ATOM     12  O1  <0> d          -0.026   5.635  -0.907  0.00  0.00    -0.268 OA
ATOM     13  O2  <0> d           3.780   4.591  -6.671  0.00  0.00    -0.346 OA
ATOM     14  C19 <0> d           3.799   4.000  -7.975  0.00  0.00     0.202 C 
ATOM     15  C20 <0> d           2.699   4.660  -8.818  0.00  0.00     0.202 C 
ATOM     16  O3  <0> d           1.441   4.426  -8.176  0.00  0.00    -0.346 OA
ENDROOT
BRANCH   1  17
ATOM     17  C9  <0> d          -2.518   5.522  -2.099  0.00  0.00     0.169 C 
BRANCH  17  18
ATOM     18  N2  <0> d          -2.923   4.231  -1.536  0.00  0.00    -0.350 N 
ATOM     19  C2  <0> d          -2.635   3.935  -0.253  0.00  0.00     0.170 C 
ATOM     20  S1  <0> d          -1.878   5.101   0.745  0.00  0.00    -0.041 SA
BRANCH  19  21
ATOM     21  N1  <0> d          -2.942   2.720   0.243  0.00  0.00    -0.371 N 
ATOM     22  C1  <0> d          -2.629   2.398   1.637  0.00  0.00     0.148 C 
ATOM     23  H5  <0> d          -3.372   2.059  -0.323  0.00  0.00     0.161 HD
ENDBRANCH  19  21
BRANCH  18  24
ATOM     24  C3  <0> d          -3.642   3.263  -2.368  0.00  0.00     0.165 C 
BRANCH  24  25
ATOM     25  C4  <0> d          -5.127   3.455  -2.194  0.00  0.00    -0.023 A 
ATOM     26  C8  <0> d          -5.805   4.387  -2.956  0.00  0.00     0.124 A 
ATOM     27  N3  <0> d          -7.104   4.562  -2.809  0.00  0.00    -0.273 NA
ATOM     28  C7  <0> d          -7.804   3.861  -1.938  0.00  0.00     0.116 A 
ATOM     29  C6  <0> d          -7.193   2.911  -1.141  0.00  0.00     0.020 A 
ATOM     30  C5  <0> d          -5.828   2.704  -1.263  0.00  0.00     0.012 A 
ENDBRANCH  24  25
ENDBRANCH  18  24
ENDBRANCH  17  18
ENDBRANCH   1  17
TORSDOF 5
