REMARK  3 active torsions:
REMARK  status: ('A' for Active; 'I' for Inactive)
REMARK    1  A    between atoms: C2_2  and  C3_3 
REMARK    2  A    between atoms: C3_3  and  C8_9 
REMARK    3  A    between atoms: C8_9  and  N2_10 
ROOT
ATOM      1  C3  <0> d          -1.095  -0.561  -0.177  0.00  0.00     0.007 C 
ATOM      2  C4  <0> d          -1.896  -0.127  -1.408  0.00  0.00     0.014 C 
ATOM      3  C5  <0> d          -1.361  -0.864  -2.639  0.00  0.00     0.028 C 
ATOM      4  C6  <0> d           0.134  -0.576  -2.789  0.00  0.00     0.232 C 
ATOM      5  N1  <0> d           0.848  -1.038  -1.593  0.00  0.00    -0.074 N 
ATOM      6  C7  <0> d           0.390  -0.285  -0.419  0.00  0.00     0.243 C 
ATOM      7  H12 <0> d           0.666  -2.020  -1.452  0.00  0.00     0.277 HD
ATOM      8  H30 <0> d           1.839  -0.895  -1.717  0.00  0.00     0.277 HD
ENDROOT
BRANCH   1   9
ATOM      9  C2  <0> d          -1.569   0.227   1.045  0.00  0.00     0.008 C 
ATOM     10  C1  <0> d          -1.491   1.726   0.748  0.00  0.00     0.006 C 
ENDBRANCH   1   9
BRANCH   1  11
ATOM     11  C8  <0> d          -1.303  -2.057   0.067  0.00  0.00     0.246 C 
BRANCH  11  12
ATOM     12  N2  <0> d          -0.633  -2.447   1.315  0.00  0.00    -0.070 N 
ATOM     13  C13 <0> d          -1.532  -2.199   2.449  0.00  0.00     0.235 C 
ATOM     14  C12 <0> d          -0.810  -2.527   3.758  0.00  0.00     0.032 C 
ATOM     15  C11 <0> d          -0.393  -4.001   3.748  0.00  0.00    -0.015 C 
ATOM     16  C10 <0> d           0.483  -4.266   2.520  0.00  0.00     0.032 C 
ATOM     17  C14 <0> d           0.399  -4.317   5.019  0.00  0.00     0.010 C 
ATOM     18  C9  <0> d          -0.287  -3.873   1.257  0.00  0.00     0.235 C 
ATOM     19  H29 <0> d           0.208  -1.903   1.428  0.00  0.00     0.279 HD
ENDBRANCH  11  12
ENDBRANCH   1  11
TORSDOF 3
