REMARK  4 active torsions:
REMARK  status: ('A' for Active; 'I' for Inactive)
REMARK    1  A    between atoms: N1_2  and  C3_4 
REMARK    2  A    between atoms: C6_7  and  C9_10 
REMARK    3  A    between atoms: N2_11  and  N3_12 
REMARK    4  A    between atoms: N3_12  and  C10_13 
ROOT
ATOM      1  C10 <0> d          -8.385  -2.300   0.056  0.00  0.00     0.734 C 
ATOM      2  N4  <0> d          -8.360  -0.988   0.053  0.00  0.00    -0.072 NA
ATOM      3  C11 <0> d          -9.637  -0.284   0.143  0.00  0.00     0.281 C 
ATOM      4  C12 <0> d         -10.678  -1.204  -0.478  0.00  0.00     0.112 C 
ATOM      5  C13 <0> d         -11.375  -0.428  -1.354  0.00  0.00     0.022 A 
ATOM      6  C14 <0> d         -12.522  -0.681  -2.144  0.00  0.00     0.035 A 
ATOM      7  C15 <0> d         -12.967   0.327  -2.943  0.00  0.00     0.011 A 
ATOM      8  C16 <0> d         -12.364   1.587  -3.030  0.00  0.00     0.021 A 
ATOM      9  C17 <0> d         -11.265   1.942  -2.313  0.00  0.00     0.031 A 
ATOM     10  C18 <0> d         -10.716   0.913  -1.413  0.00  0.00     0.042 A 
ATOM     11  N5  <0> d          -9.703   0.964  -0.604  0.00  0.00    -0.361 N 
ATOM     12 Br1  <0> d         -14.499   0.004  -4.005  0.00  0.00    -0.051 Br
ATOM     13  N6  <0> d         -10.680  -2.516  -0.228  0.00  0.00    -0.160 NA
ATOM     14  N7  <0> d          -9.526  -3.031   0.063  0.00  0.00    -0.106 N 
ATOM     15  H17 <0> d          -9.479  -3.971   0.296  0.00  0.00     0.208 HD
ATOM     16  H18 <0> d          -9.090   1.711  -0.511  0.00  0.00     0.162 HD
ENDROOT
BRANCH   1  17
ATOM     17  N3  <0> d          -7.181  -2.974   0.047  0.00  0.00    -0.106 N 
ATOM     18  H13 <0> d          -7.168  -3.943   0.045  0.00  0.00     0.208 HD
BRANCH  17  19
ATOM     19  N2  <0> d          -5.977  -2.257   0.040  0.00  0.00    -0.172 NA
ATOM     20  C9  <0> d          -4.844  -2.890   0.031  0.00  0.00     0.150 C 
BRANCH  20  21
ATOM     21  C6  <0> d          -3.578  -2.136   0.024  0.00  0.00    -0.017 A 
ATOM     22  C5  <0> d          -2.357  -2.817   0.015  0.00  0.00     0.015 A 
ATOM     23  C4  <0> d          -1.175  -2.109   0.008  0.00  0.00     0.030 A 
ATOM     24  C3  <0> d          -1.196  -0.718   0.010  0.00  0.00     0.029 A 
ATOM     25  C8  <0> d          -2.409  -0.037   0.025  0.00  0.00     0.030 A 
ATOM     26  C7  <0> d          -3.595  -0.739   0.027  0.00  0.00     0.015 A 
BRANCH  24  27
ATOM     27  N1  <0> d           0.002  -0.004   0.002  0.00  0.00    -0.390 N 
ATOM     28  C1  <0> d          -0.018   1.461   0.010  0.00  0.00     0.149 C 
ATOM     29  C2  <0> d           1.281  -0.719  -0.014  0.00  0.00     0.149 C 
ENDBRANCH  24  27
ENDBRANCH  20  21
ENDBRANCH  17  19
ENDBRANCH   1  17
TORSDOF 4
