REMARK  5 active torsions:
REMARK  status: ('A' for Active; 'I' for Inactive)
REMARK    1  A    between atoms: N1_2  and  C2_3 
REMARK    2  A    between atoms: N1_2  and  S1_9 
REMARK    3  A    between atoms: S1_9  and  N2_12 
REMARK    4  A    between atoms: N2_12  and  C8_13 
REMARK    5  A    between atoms: C8_13  and  C9_14 
ROOT
ATOM      1  S1  <0> d          -0.000  -0.824  -1.437  0.00  0.00     0.317 S 
ATOM      2  O1  <0> d          -0.531  -2.115  -1.167  0.00  0.00    -0.183 OA
ATOM      3  O2  <0> d          -0.572   0.049  -2.401  0.00  0.00    -0.183 OA
ENDROOT
BRANCH   1   4
ATOM      4  N1  <0> d           0.002  -0.004   0.002  0.00  0.00    -0.294 N 
ATOM      5  C1  <0> d          -0.018   1.461   0.010  0.00  0.00     0.165 C 
BRANCH   4   6
ATOM      6  C2  <0> d           0.024  -0.743   1.267  0.00  0.00     0.097 C 
ATOM      7  C7  <0> d           1.276  -0.361   2.059  0.00  0.00     0.026 C 
ATOM      8  C6  <0> d           1.299  -1.133   3.380  0.00  0.00     0.002 C 
ATOM      9  C5  <0> d           0.052  -0.785   4.196  0.00  0.00     0.000 C 
ATOM     10  C4  <0> d          -1.199  -1.167   3.404  0.00  0.00     0.002 C 
ATOM     11  C3  <0> d          -1.222  -0.395   2.083  0.00  0.00     0.026 C 
ENDBRANCH   4   6
ENDBRANCH   1   4
BRANCH   1  12
ATOM     12  N2  <0> d           1.581  -1.045  -1.877  0.00  0.00    -0.302 N 
ATOM     13  H16 <0> d           1.926  -0.618  -2.676  0.00  0.00     0.173 HD
BRANCH  12  14
ATOM     14  C8  <0> d           2.458  -1.886  -1.059  0.00  0.00     0.139 C 
BRANCH  14  15
ATOM     15  C9  <0> d           3.720  -2.230  -1.853  0.00  0.00     0.019 C 
ATOM     16  C12 <0> d           4.712  -3.015  -0.948  0.00  0.00     0.146 C 
ATOM     17  S2  <0> d           5.779  -3.807  -2.224  0.00  0.00     0.144 S 
ATOM     18  C11 <0> d           4.636  -3.736  -3.663  0.00  0.00     0.141 C 
ATOM     19  O3  <0> d           6.896  -2.967  -2.480  0.00  0.00    -0.228 OA
ATOM     20  O4  <0> d           5.993  -5.166  -1.870  0.00  0.00    -0.228 OA
ATOM     21  C10 <0> d           3.353  -3.125  -3.049  0.00  0.00     0.022 C 
ENDBRANCH  14  15
ENDBRANCH  12  14
ENDBRANCH   1  12
TORSDOF 5
