REMARK  5 active torsions:
REMARK  status: ('A' for Active; 'I' for Inactive)
REMARK    1  A    between atoms: N1_3  and  C5_10 
REMARK    2  A    between atoms: C5_10  and  C6_11 
REMARK    3  A    between atoms: C5_10  and  C8_14 
REMARK    4  A    between atoms: C6_11  and  C7_12 
REMARK    5  A    between atoms: C7_12  and  O3_13 
REMARK       I    between atoms: C8_14  and  N3_16 
ROOT
ATOM      1  C5  <0> d           0.011   1.072   2.506  0.00  0.00     0.187 C 
ENDROOT
BRANCH   1   2
ATOM      2  N1  <0> d           1.346   1.674   2.558  0.00  0.00    -0.296 N 
ATOM      3  C2  <0> d           1.473   3.035   2.620  0.00  0.00     0.102 A 
ATOM      4  C1  <0> d           2.703   3.590   2.673  0.00  0.00     0.092 A 
ATOM      5  C4  <0> d           3.841   2.747   2.653  0.00  0.00     0.250 A 
ATOM      6  N2  <0> d           3.672   1.411   2.587  0.00  0.00    -0.275 N 
ATOM      7  O2  <0> d           4.960   3.224   2.696  0.00  0.00    -0.268 OA
ATOM      8  C3  <0> d           2.434   0.884   2.540  0.00  0.00     0.330 A 
ATOM      9  H1  <0> d           4.470   0.808   2.572  0.00  0.00     0.173 HD
ATOM     10  O1  <0> d           2.298  -0.323   2.480  0.00  0.00    -0.246 OA
ENDBRANCH   1   2
BRANCH   1  11
ATOM     11  C6  <0> d          -0.729   1.579   1.267  0.00  0.00     0.061 C 
BRANCH  11  12
ATOM     12  C7  <0> d          -0.013   1.086   0.008  0.00  0.00     0.166 C 
BRANCH  12  13
ATOM     13  O3  <0> d          -0.704   1.559  -1.150  0.00  0.00    -0.401 OA
ATOM     14  H9  <0> d          -0.304   1.284  -1.986  0.00  0.00     0.209 HD
ENDBRANCH  12  13
ENDBRANCH  11  12
ENDBRANCH   1  11
BRANCH   1  15
ATOM     15  C8  <0> d          -0.761   1.454   3.743  0.00  0.00     0.238 C 
ATOM     16  O4  <0> d          -0.247   2.159   4.585  0.00  0.00    -0.271 OA
ATOM     17  N3  <0> d          -2.022   1.011   3.913  0.00  0.00    -0.368 N 
ATOM     18  H10 <0> d          -2.433   0.447   3.240  0.00  0.00     0.159 HD
ATOM     19  H11 <0> d          -2.519   1.257   4.710  0.00  0.00     0.159 HD
ENDBRANCH   1  15
TORSDOF 5
