REMARK  3 active torsions:
REMARK  status: ('A' for Active; 'I' for Inactive)
REMARK    1  A    between atoms: C3_4  and  S1_8 
REMARK    2  A    between atoms: S1_8  and  N3_11 
REMARK    3  A    between atoms: N3_11  and  C6_12 
ROOT
ATOM      1  N3  <0> d           1.628  -3.801  -2.082  0.00  0.00    -0.131 NA
ENDROOT
BRANCH   1   2
ATOM      2  S1  <0> d           0.042  -3.437  -1.774  0.00  0.00     0.302 S 
ATOM      3  O1  <0> d          -0.490  -4.530  -1.039  0.00  0.00    -0.197 OA
ATOM      4  O2  <0> d          -0.520  -3.000  -3.004  0.00  0.00    -0.197 OA
BRANCH   2   5
ATOM      5  C3  <0> d           0.028  -2.047  -0.691  0.00  0.00     0.168 A 
ATOM      6  N1  <0> d           0.008  -0.759  -1.063  0.00  0.00    -0.334 N 
ATOM      7  C2  <0> d           0.002  -0.004   0.002  0.00  0.00     0.079 A 
ATOM      8  H15 <0> d          -0.000  -0.438  -1.978  0.00  0.00     0.168 HD
ATOM      9  C1  <0> d          -0.018   1.503   0.010  0.00  0.00     0.089 C 
ATOM     10  N2  <0> d           0.023  -0.797   1.095  0.00  0.00    -0.348 N 
ATOM     11  C4  <0> d           0.034  -2.093   0.655  0.00  0.00     0.135 A 
ATOM     12  C5  <0> d           0.030  -0.353   2.491  0.00  0.00     0.156 C 
ENDBRANCH   2   5
ENDBRANCH   1   2
BRANCH   1  13
ATOM     13  C6  <0> d           1.946  -4.863  -2.914  0.00  0.00     0.205 A 
ATOM     14  S2  <0> d           3.473  -5.417  -3.369  0.00  0.00    -0.050 SA
ATOM     15  C8  <0> d           2.937  -6.753  -4.397  0.00  0.00     0.036 A 
ATOM     16  C7  <0> d           1.583  -6.662  -4.317  0.00  0.00     0.054 A 
ATOM     17  C9  <0> d           3.723  -7.751  -5.175  0.00  0.00     0.280 C 
ATOM     18  N4  <0> d           1.130  -5.680  -3.546  0.00  0.00    -0.226 NA
ATOM     19  C11 <0> d           0.720  -7.651  -5.090  0.00  0.00     0.088 C 
ATOM     20  C10 <0> d           1.600  -8.307  -6.160  0.00  0.00     0.238 C 
ATOM     21  N5  <0> d           2.820  -8.855  -5.554  0.00  0.00    -0.070 N 
ATOM     22  H10 <0> d           3.284  -9.456  -6.219  0.00  0.00     0.277 HD
ATOM     23  H16 <0> d           2.577  -9.388  -4.733  0.00  0.00     0.277 HD
ENDBRANCH   1  13
TORSDOF 3
