REMARK  8 active torsions:
REMARK  status: ('A' for Active; 'I' for Inactive)
REMARK    1  A    between atoms: C2_2  and  O1_3 
REMARK    2  A    between atoms: O1_3  and  C3_4 
REMARK    3  A    between atoms: C3_4  and  C4_5 
REMARK    4  A    between atoms: C4_5  and  C5_6 
REMARK    5  A    between atoms: C5_6  and  N1_7 
REMARK       I    between atoms: N1_7  and  C6_8 
REMARK    6  A    between atoms: C6_8  and  C7_10 
REMARK    7  A    between atoms: C7_10  and  O4_28 
REMARK    8  A    between atoms: N3_20  and  C15_21 
ROOT
ATOM      1  C7  <0> d          -2.451   4.858  -0.587  0.00  0.00     0.256 A 
ATOM      2  C8  <0> d          -1.160   4.073  -0.557  0.00  0.00     0.035 A 
ATOM      3  C9  <0> d          -1.066   2.829  -1.135  0.00  0.00     0.034 A 
ATOM      4  C10 <0> d           0.133   2.136  -1.083  0.00  0.00     0.011 A 
ATOM      5  C11 <0> d           1.232   2.701  -0.461  0.00  0.00     0.021 A 
ATOM      6  C12 <0> d           1.141   3.953   0.116  0.00  0.00     0.031 A 
ATOM      7  C13 <0> d          -0.060   4.648   0.071  0.00  0.00     0.048 A 
ATOM      8  N2  <0> d          -0.173   5.914   0.648  0.00  0.00    -0.308 N 
ATOM      9  C14 <0> d          -1.309   6.624   0.631  0.00  0.00     0.330 A 
ATOM     10  O3  <0> d          -1.315   7.719   1.159  0.00  0.00    -0.246 OA
ATOM     11  N3  <0> d          -2.442   6.182   0.057  0.00  0.00    -0.254 N 
ATOM     12 Br1  <0> d           0.270   0.422  -1.870  0.00  0.00    -0.051 Br
ATOM     13  H16 <0> d           0.695   6.371   1.145  0.00  0.00     0.170 HD
ENDROOT
BRANCH   1  14
ATOM     14  C6  <0> d          -2.847   5.045  -2.029  0.00  0.00     0.279 C 
ATOM     15  N1  <0> d          -2.025   5.697  -2.874  0.00  0.00    -0.356 N 
ATOM     16  H12 <0> d          -1.065   6.093  -2.512  0.00  0.00     0.162 HD
ATOM     17  O2  <0> d          -3.906   4.609  -2.429  0.00  0.00    -0.268 OA
BRANCH  15  18
ATOM     18  C5  <0> d          -2.410   5.880  -4.276  0.00  0.00     0.125 C 
BRANCH  18  19
ATOM     19  C4  <0> d          -1.308   6.646  -5.012  0.00  0.00     0.046 C 
BRANCH  19  20
ATOM     20  C3  <0> d          -1.710   6.836  -6.476  0.00  0.00     0.169 C 
BRANCH  20  21
ATOM     21  O1  <0> d          -0.682   7.551  -7.163  0.00  0.00    -0.391 OA
BRANCH  21  22
ATOM     22  C2  <0> d          -0.959   7.784  -8.546  0.00  0.00     0.163 C 
ATOM     23  C1  <0> d           0.203   8.553  -9.177  0.00  0.00     0.033 C 
ENDBRANCH  21  22
ENDBRANCH  20  21
ENDBRANCH  19  20
ENDBRANCH  18  19
ENDBRANCH  15  18
ENDBRANCH   1  14
BRANCH   1  24
ATOM     24  O4  <0> d          -3.462   4.068   0.043  0.00  0.00    -0.359 OA
ATOM     25  H22 <0> d          -3.372   3.808   1.108  0.00  0.00     0.213 HD
ENDBRANCH   1  24
BRANCH  11  26
ATOM     26  C15 <0> d          -3.598   6.971   0.072  0.00  0.00     0.042 A 
ATOM     27  C20 <0> d          -4.552   6.789   1.063  0.00  0.00     0.030 A 
ATOM     28  C19 <0> d          -5.692   7.569   1.075  0.00  0.00     0.002 A 
ATOM     29  C18 <0> d          -5.882   8.531   0.100  0.00  0.00     0.000 A 
ATOM     30  C17 <0> d          -4.934   8.716  -0.888  0.00  0.00     0.002 A 
ATOM     31  C16 <0> d          -3.790   7.942  -0.903  0.00  0.00     0.030 A 
ENDBRANCH  11  26
TORSDOF 8
