REMARK  7 active torsions:
REMARK  status: ('A' for Active; 'I' for Inactive)
REMARK    1  A    between atoms: C2_2  and  C4_4 
REMARK    2  A    between atoms: C4_4  and  C5_5 
REMARK    3  A    between atoms: C5_5  and  C6_6 
REMARK    4  A    between atoms: C5_5  and  N1_9 
REMARK    5  A    between atoms: N1_9  and  C7_10 
REMARK    6  A    between atoms: C7_10  and  C8_11 
REMARK    7  A    between atoms: C7_10  and  C12_16 
ROOT
ATOM      1  C7  <0> d          -0.750  -4.012  -1.230  0.00  0.00     0.293 C 
ENDROOT
BRANCH   1   2
ATOM      2  N1  <0> d          -0.805  -2.653  -0.676  0.00  0.00    -0.045 N 
ATOM      3  H12 <0> d          -1.475  -2.105  -1.195  0.00  0.00     0.279 HD
ATOM      4  H22 <0> d           0.106  -2.224  -0.746  0.00  0.00     0.279 HD
BRANCH   2   5
ATOM      5  C5  <0> d          -1.209  -2.715   0.735  0.00  0.00     0.287 C 
BRANCH   5   6
ATOM      6  C4  <0> d          -1.046  -1.334   1.373  0.00  0.00     0.048 C 
BRANCH   6   7
ATOM      7  C2  <0> d           0.436  -0.953   1.393  0.00  0.00    -0.020 C 
ATOM      8  C1  <0> d           0.588   0.476   1.916  0.00  0.00     0.009 C 
ATOM      9  C3  <0> d           1.197  -1.915   2.308  0.00  0.00     0.009 C 
ENDBRANCH   6   7
ENDBRANCH   5   6
BRANCH   5  10
ATOM     10  C6  <0> d          -2.651  -3.142   0.825  0.00  0.00     0.204 C 
ATOM     11  O1  <0> d          -3.475  -2.675   0.057  0.00  0.00    -0.646 OA
ATOM     12  O2  <0> d          -2.994  -3.955   1.666  0.00  0.00    -0.646 OA
ENDBRANCH   5  10
ENDBRANCH   2   5
ENDBRANCH   1   2
BRANCH   1  13
ATOM     13  C8  <0> d          -2.147  -4.562  -1.352  0.00  0.00     0.020 A 
ATOM     14  S1  <0> d          -3.516  -3.947  -2.319  0.00  0.00    -0.104 SA
ATOM     15  C11 <0> d          -4.721  -5.184  -1.865  0.00  0.00     0.050 A 
ATOM     16  C10 <0> d          -4.012  -5.967  -1.015  0.00  0.00     0.008 A 
ATOM     17  C9  <0> d          -2.693  -5.648  -0.752  0.00  0.00     0.017 A 
ENDBRANCH   1  13
BRANCH   1  18
ATOM     18  C12 <0> d          -0.104  -3.975  -2.591  0.00  0.00     0.119 A 
ATOM     19  N3  <0> d           0.026  -5.025  -3.430  0.00  0.00    -0.348 N 
ATOM     20  C14 <0> d           0.662  -4.569  -4.553  0.00  0.00     0.108 A 
ATOM     21  C15 <0> d          -0.432  -6.395  -3.185  0.00  0.00     0.157 C 
ATOM     22  C13 <0> d           0.907  -3.260  -4.359  0.00  0.00     0.106 A 
ATOM     23  N2  <0> d           0.428  -2.923  -3.151  0.00  0.00    -0.352 N 
ATOM     24  H21 <0> d           0.471  -2.038  -2.757  0.00  0.00     0.166 HD
ENDBRANCH   1  18
TORSDOF 7
