REMARK  5 active torsions:
REMARK  status: ('A' for Active; 'I' for Inactive)
REMARK    1  A    between atoms: C6_6  and  N1_11 
REMARK       I    between atoms: N1_11  and  C11_12 
REMARK    2  A    between atoms: C11_12  and  C12_14 
REMARK    3  A    between atoms: C12_14  and  O2_15 
REMARK    4  A    between atoms: O2_15  and  C13_16 
REMARK    5  A    between atoms: C18_21  and  C19_22 
ROOT
ATOM      1  C13 <0> d           7.159  -6.973   0.537  0.00  0.00     0.079 A 
ATOM      2  C14 <0> d           8.438  -6.449   0.639  0.00  0.00     0.039 A 
ATOM      3  C15 <0> d           9.530  -7.294   0.705  0.00  0.00     0.026 A 
ATOM      4  C16 <0> d           9.357  -8.669   0.668  0.00  0.00     0.035 A 
ATOM      5  C17 <0> d           8.092  -9.209   0.567  0.00  0.00     0.038 A 
ATOM      6  C18 <0> d           6.977  -8.365   0.506  0.00  0.00     0.000 A 
ATOM      7 Cl1  <0> d          10.740  -9.716   0.750  0.00  0.00    -0.084 Cl
ENDROOT
BRANCH   1   8
ATOM      8  O2  <0> d           6.086  -6.144   0.473  0.00  0.00    -0.341 OA
BRANCH   8   9
ATOM      9  C12 <0> d           6.348  -4.739   0.511  0.00  0.00     0.278 C 
BRANCH   9  10
ATOM     10  C11 <0> d           5.047  -3.983   0.430  0.00  0.00     0.246 C 
ATOM     11  N1  <0> d           5.049  -2.636   0.449  0.00  0.00    -0.325 N 
ATOM     12  H8  <0> d           5.889  -2.151   0.432  0.00  0.00     0.169 HD
ATOM     13  O1  <0> d           3.999  -4.587   0.349  0.00  0.00    -0.271 OA
BRANCH  11  14
ATOM     14  C6  <0> d           3.839  -1.935   0.492  0.00  0.00     0.035 A 
ATOM     15  C5  <0> d           3.751  -0.772   1.223  0.00  0.00     0.042 A 
ATOM     16  C4  <0> d           2.534  -0.071   1.264  0.00  0.00    -0.024 A 
ATOM     17  C3  <0> d           2.405   1.120   1.999  0.00  0.00     0.012 A 
ATOM     18  C9  <0> d           1.416  -0.574   0.552  0.00  0.00    -0.026 A 
ATOM     19  C2  <0> d           1.211   1.773   2.018  0.00  0.00     0.001 A 
ATOM     20  C1  <0> d           0.112   1.279   1.318  0.00  0.00     0.001 A 
ATOM     21  C10 <0> d           0.200   0.129   0.596  0.00  0.00     0.012 A 
ATOM     22  C8  <0> d           1.542  -1.765  -0.185  0.00  0.00     0.014 A 
ATOM     23  C7  <0> d           2.730  -2.425  -0.209  0.00  0.00     0.030 A 
ENDBRANCH  11  14
ENDBRANCH   9  10
ENDBRANCH   8   9
ENDBRANCH   1   8
BRANCH   6  24
ATOM     24  C19 <0> d           5.627  -8.932   0.403  0.00  0.00     0.039 C 
ATOM     25  C20 <0> d           5.458 -10.211  -0.017  0.00  0.00     0.077 A 
ATOM     26  S1  <0> d           6.651 -11.340  -0.720  0.00  0.00    -0.047 SA
ATOM     27  C21 <0> d           4.238 -11.041  -0.022  0.00  0.00     0.264 A 
ATOM     28  C22 <0> d           5.565 -12.737  -0.954  0.00  0.00     0.167 A 
ATOM     29  N2  <0> d           4.351 -12.271  -0.493  0.00  0.00    -0.301 N 
ATOM     30  N3  <0> d           5.849 -13.912  -1.446  0.00  0.00    -0.278 NA
ATOM     31  H15 <0> d           3.574 -12.851  -0.515  0.00  0.00     0.171 HD
ATOM     32  H16 <0> d           6.753 -14.111  -1.736  0.00  0.00     0.189 HD
ATOM     33  O3  <0> d           3.176 -10.612   0.389  0.00  0.00    -0.267 OA
ENDBRANCH   6  24
TORSDOF 5
