REMARK  7 active torsions:
REMARK  status: ('A' for Active; 'I' for Inactive)
REMARK    1  A    between atoms: C6_6  and  S1_25 
REMARK       I    between atoms: N1_10  and  C10_11 
REMARK    2  A    between atoms: C10_11  and  C11_13 
REMARK    3  A    between atoms: C11_13  and  N2_14 
REMARK    4  A    between atoms: N2_14  and  C12_15 
REMARK    5  A    between atoms: N2_14  and  C19_22 
REMARK    6  A    between atoms: C12_15  and  C13_16 
REMARK    7  A    between atoms: S1_25  and  N3_28 
ROOT
ATOM      1  C1  <0> d           0.134   1.854   0.102  0.00  0.00     0.033 C 
ATOM      2  C2  <0> d           0.051   0.329   0.017  0.00  0.00     0.093 A 
ATOM      3  C3  <0> d           0.784  -0.176  -1.236  0.00  0.00     0.066 A 
ATOM      4  C4  <0> d           1.885  -1.065  -0.701  0.00  0.00    -0.028 A 
ATOM      5  C5  <0> d           2.861  -1.792  -1.355  0.00  0.00     0.034 A 
ATOM      6  C6  <0> d           3.770  -2.541  -0.632  0.00  0.00     0.080 A 
ATOM      7  C7  <0> d           3.701  -2.561   0.750  0.00  0.00     0.027 A 
ATOM      8  C8  <0> d           2.728  -1.838   1.406  0.00  0.00     0.032 A 
ATOM      9  C9  <0> d           1.806  -1.079   0.683  0.00  0.00     0.044 A 
ATOM     10  N1  <0> d           0.753  -0.282   1.149  0.00  0.00    -0.311 N 
ATOM     11  C10 <0> d           0.432  -0.103   2.446  0.00  0.00     0.250 C 
ATOM     12  O1  <0> d          -0.501   0.611   2.746  0.00  0.00    -0.271 OA
ENDROOT
BRANCH  11  13
ATOM     13  C11 <0> d           1.234  -0.789   3.522  0.00  0.00     0.338 C 
BRANCH  13  14
ATOM     14  N2  <0> d           0.688  -0.435   4.839  0.00  0.00    -0.058 N 
ATOM     15  H32 <0> d           0.663   0.570   4.934  0.00  0.00     0.280 HD
BRANCH  14  16
ATOM     16  C12 <0> d           1.540  -1.005   5.891  0.00  0.00     0.240 C 
BRANCH  16  17
ATOM     17  C13 <0> d           1.081  -0.487   7.256  0.00  0.00     0.011 C 
ATOM     18  C18 <0> d           2.009  -1.029   8.345  0.00  0.00     0.006 C 
ATOM     19  C17 <0> d           1.550  -0.510   9.710  0.00  0.00     0.000 C 
ATOM     20  C16 <0> d           1.595   1.019   9.716  0.00  0.00     0.000 C 
ATOM     21  C15 <0> d           0.667   1.560   8.626  0.00  0.00     0.000 C 
ATOM     22  C14 <0> d           1.126   1.042   7.262  0.00  0.00     0.006 C 
ENDBRANCH  16  17
ENDBRANCH  14  16
BRANCH  14  23
ATOM     23  C19 <0> d          -0.673  -0.972   4.966  0.00  0.00     0.189 A 
ATOM     24  C21 <0> d          -1.490  -0.545   6.187  0.00  0.00     0.035 A 
ATOM     25  C20 <0> d          -1.837   0.007   4.803  0.00  0.00     0.035 A 
ENDBRANCH  14  23
ENDBRANCH  13  14
ENDBRANCH  11  13
BRANCH   6  26
ATOM     26  S1  <0> d           5.014  -3.468  -1.467  0.00  0.00     0.256 S 
ATOM     27  O2  <0> d           5.399  -4.516  -0.588  0.00  0.00    -0.201 OA
ATOM     28  O3  <0> d           4.524  -3.715  -2.778  0.00  0.00    -0.201 OA
BRANCH  26  29
ATOM     29  N3  <0> d           6.332  -2.480  -1.633  0.00  0.00    -0.324 N 
ATOM     30  H30 <0> d           7.224  -2.861  -1.651  0.00  0.00     0.169 HD
ATOM     31  H31 <0> d           6.213  -1.520  -1.712  0.00  0.00     0.169 HD
ENDBRANCH  26  29
ENDBRANCH   6  26
TORSDOF 7
