REMARK  6 active torsions:
REMARK  status: ('A' for Active; 'I' for Inactive)
REMARK       I    between atoms: N1_2  and  C2_3 
REMARK    1  A    between atoms: C2_3  and  C3_5 
REMARK    2  A    between atoms: C6_8  and  N2_11 
REMARK       I    between atoms: N2_11  and  C9_12 
REMARK    3  A    between atoms: C9_12  and  C10_14 
REMARK    4  A    between atoms: C10_14  and  N3_15 
REMARK    5  A    between atoms: N3_15  and  C11_16 
REMARK    6  A    between atoms: C14_19  and  N4_23 
ROOT
ATOM      1  N2  <0> d          -1.077  -6.327   0.078  0.00  0.00    -0.326 N 
ATOM      2  C9  <0> d          -2.231  -7.021   0.131  0.00  0.00     0.239 C 
ATOM      3  O2  <0> d          -3.293  -6.437   0.083  0.00  0.00    -0.271 OA
ATOM      4  H9  <0> d          -0.230  -6.798   0.040  0.00  0.00     0.169 HD
ENDROOT
BRANCH   2   5
ATOM      5  C10 <0> d          -2.203  -8.523   0.249  0.00  0.00     0.223 C 
BRANCH   5   6
ATOM      6  N3  <0> d          -3.574  -9.036   0.288  0.00  0.00    -0.381 N 
ATOM      7  H12 <0> d          -4.323  -8.422   0.238  0.00  0.00     0.160 HD
BRANCH   6   8
ATOM      8  C11 <0> d          -3.803 -10.411   0.395  0.00  0.00     0.030 A 
ATOM      9  C16 <0> d          -5.104 -10.898   0.432  0.00  0.00     0.055 A 
ATOM     10  C15 <0> d          -5.330 -12.257   0.532  0.00  0.00     0.065 A 
ATOM     11  C14 <0> d          -4.256 -13.135   0.609  0.00  0.00     0.079 A 
ATOM     12 Cl1  <0> d          -6.955 -12.866   0.571  0.00  0.00    -0.082 Cl
ATOM     13  C13 <0> d          -2.956 -12.648   0.578  0.00  0.00     0.036 A 
ATOM     14  C12 <0> d          -2.730 -11.290   0.472  0.00  0.00     0.031 A 
BRANCH  11  15
ATOM     15  N4  <0> d          -4.485 -14.516   0.717  0.00  0.00    -0.244 N 
ATOM     16  N5  <0> d          -5.374 -15.267  -0.062  0.00  0.00    -0.180 NA
ATOM     17  C19 <0> d          -5.308 -16.515   0.330  0.00  0.00     0.140 A 
ATOM     18  C18 <0> d          -4.383 -16.596   1.377  0.00  0.00     0.040 A 
ATOM     19  C17 <0> d          -3.892 -15.354   1.596  0.00  0.00     0.120 A 
ENDBRANCH  11  15
ENDBRANCH   6   8
ENDBRANCH   5   6
ENDBRANCH   2   5
BRANCH   1  20
ATOM     20  C6  <0> d          -1.101  -4.933   0.076  0.00  0.00     0.034 A 
ATOM     21  C5  <0> d          -2.090  -4.255   0.783  0.00  0.00     0.030 A 
ATOM     22  C4  <0> d          -2.116  -2.879   0.784  0.00  0.00     0.019 A 
ATOM     23  C3  <0> d          -1.148  -2.162   0.075  0.00  0.00     0.032 A 
ATOM     24  C8  <0> d          -0.160  -2.846  -0.638  0.00  0.00     0.019 A 
ATOM     25  C7  <0> d          -0.136  -4.223  -0.630  0.00  0.00     0.030 A 
BRANCH  23  26
ATOM     26  C2  <0> d          -1.174  -0.687   0.074  0.00  0.00     0.251 C 
ATOM     27  N1  <0> d          -2.128  -0.029   0.763  0.00  0.00    -0.361 N 
ATOM     28  C1  <0> d          -2.153   1.436   0.762  0.00  0.00     0.149 C 
ATOM     29  H4  <0> d          -2.798  -0.525   1.258  0.00  0.00     0.162 HD
ATOM     30  O1  <0> d          -0.334  -0.065  -0.547  0.00  0.00    -0.268 OA
ENDBRANCH  23  26
ENDBRANCH   1  20
TORSDOF 6
