REMARK  7 active torsions:
REMARK  status: ('A' for Active; 'I' for Inactive)
REMARK    1  A    between atoms: C5_5  and  C8_8 
REMARK    2  A    between atoms: C8_8  and  C9_9 
REMARK    3  A    between atoms: C8_8  and  N5_22 
REMARK    4  A    between atoms: C9_9  and  N1_10 
REMARK       I    between atoms: N1_10  and  C10_11 
REMARK    5  A    between atoms: C10_11  and  C11_13 
REMARK    6  A    between atoms: C11_13  and  O2_21 
REMARK    7  A    between atoms: N2_14  and  C12_15 
ROOT
ATOM      1  N1  <0> d           1.923  -4.221  -0.948  0.00  0.00    -0.352 N 
ATOM      2  C10 <0> d           3.200  -4.651  -0.997  0.00  0.00     0.294 C 
ATOM      3  O1  <0> d           3.666  -5.279  -0.067  0.00  0.00    -0.264 OA
ATOM      4  H11 <0> d           1.551  -3.719  -1.690  0.00  0.00     0.162 HD
ENDROOT
BRANCH   1   5
ATOM      5  C9  <0> d           1.097  -4.512   0.227  0.00  0.00     0.161 C 
BRANCH   5   6
ATOM      6  C8  <0> d          -0.330  -4.019  -0.018  0.00  0.00     0.237 C 
BRANCH   6   7
ATOM      7  C5  <0> d          -0.324  -2.520  -0.173  0.00  0.00    -0.026 A 
ATOM      8  C4  <0> d          -0.369  -1.955  -1.434  0.00  0.00     0.010 A 
ATOM      9  C3  <0> d          -0.364  -0.580  -1.576  0.00  0.00     0.007 A 
ATOM     10  C2  <0> d          -0.315   0.231  -0.457  0.00  0.00    -0.062 A 
ATOM     11  C1  <0> d          -0.310   1.730  -0.611  0.00  0.00     0.048 C 
ATOM     12  C7  <0> d          -0.264  -0.335   0.804  0.00  0.00     0.007 A 
ATOM     13  C6  <0> d          -0.274  -1.710   0.946  0.00  0.00     0.010 A 
ENDBRANCH   6   7
BRANCH   6  14
ATOM     14  N5  <0> d          -1.179  -4.390   1.122  0.00  0.00    -0.069 N 
ATOM     15  C15 <0> d          -2.560  -3.961   0.864  0.00  0.00     0.270 C 
ATOM     16  C16 <0> d          -1.145  -5.847   1.304  0.00  0.00     0.270 C 
ATOM     17  H22 <0> d          -0.837  -3.938   1.957  0.00  0.00     0.279 HD
ENDBRANCH   6  14
ENDBRANCH   5   6
ENDBRANCH   1   5
BRANCH   2  18
ATOM     18  C11 <0> d           4.033  -4.357  -2.183  0.00  0.00     0.234 C 
ATOM     19  N2  <0> d           3.532  -3.680  -3.184  0.00  0.00    -0.192 NA
BRANCH  19  20
ATOM     20  C12 <0> d           4.323  -3.315  -4.217  0.00  0.00     0.217 A 
ATOM     21  S1  <0> d           5.376  -1.883  -4.405  0.00  0.00    -0.032 SA
ATOM     22  C13 <0> d           5.951  -2.251  -5.947  0.00  0.00     0.097 A 
ATOM     23  N4  <0> d           5.331  -3.381  -6.209  0.00  0.00    -0.145 NA
ATOM     24  C14 <0> d           6.922  -1.481  -6.805  0.00  0.00     0.081 C 
ATOM     25  N3  <0> d           4.536  -3.918  -5.387  0.00  0.00    -0.121 NA
ENDBRANCH  19  20
BRANCH  18  26
ATOM     26  O2  <0> d           5.315  -4.789  -2.233  0.00  0.00    -0.341 OA
ATOM     27  H15 <0> d           5.803  -4.483  -3.010  0.00  0.00     0.219 HD
ENDBRANCH  18  26
ENDBRANCH   2  18
TORSDOF 7
