REMARK  5 active torsions:
REMARK  status: ('A' for Active; 'I' for Inactive)
REMARK    1  A    between atoms: C2_2  and  C5_5 
REMARK    2  A    between atoms: C8_8  and  C19_20 
REMARK    3  A    between atoms: C9_9  and  N1_11 
REMARK    4  A    between atoms: N1_11  and  C12_13 
REMARK    5  A    between atoms: C19_20  and  N2_21 
ROOT
ATOM      1  C5  <0> d           0.156  -0.977  -2.681  0.00  0.00    -0.005 C 
ATOM      2  C6  <0> d          -0.012  -0.907  -4.200  0.00  0.00     0.006 C 
ATOM      3  C7  <0> d           1.276  -1.377  -4.878  0.00  0.00     0.009 C 
ATOM      4  C8  <0> d           2.436  -0.475  -4.451  0.00  0.00     0.042 C 
ATOM      5  C9  <0> d           2.604  -0.545  -2.932  0.00  0.00     0.194 C 
ATOM      6  C10 <0> d           1.316  -0.075  -2.254  0.00  0.00     0.039 C 
ENDROOT
BRANCH   5   7
ATOM      7  N1  <0> d           2.890  -1.930  -2.534  0.00  0.00    -0.066 N 
ATOM      8  C11 <0> d           1.634  -2.689  -2.467  0.00  0.00     0.270 C 
ATOM      9  H39 <0> d           3.503  -2.355  -3.213  0.00  0.00     0.280 HD
BRANCH   7  10
ATOM     10  C12 <0> d           3.537  -1.937  -1.216  0.00  0.00     0.188 C 
ATOM     11  C18 <0> d           3.670  -3.314  -0.763  0.00  0.00     0.033 C 
ATOM     12  C17 <0> d           4.283  -3.413   0.648  0.00  0.00     0.002 C 
ATOM     13  C16 <0> d           5.775  -3.257   0.534  0.00  0.00     0.000 C 
ATOM     14  C15 <0> d           6.234  -1.802   0.747  0.00  0.00     0.000 C 
ATOM     15  C14 <0> d           5.317  -0.778   0.051  0.00  0.00     0.002 C 
ATOM     16  C13 <0> d           4.899  -1.221  -1.325  0.00  0.00     0.033 C 
ENDBRANCH   7  10
ENDBRANCH   5   7
BRANCH   4  17
ATOM     17  C19 <0> d           2.139   0.967  -4.866  0.00  0.00     0.236 C 
BRANCH  17  18
ATOM     18  N2  <0> d           2.096   1.057  -6.331  0.00  0.00    -0.079 N 
ATOM     19  H37 <0> d           1.900   2.008  -6.605  0.00  0.00     0.274 HD
ATOM     20  H38 <0> d           2.987   0.774  -6.712  0.00  0.00     0.274 HD
ATOM     21  H40 <0> d           1.371   0.450  -6.684  0.00  0.00     0.274 HD
ENDBRANCH  17  18
ENDBRANCH   4  17
BRANCH   1  22
ATOM     22  C2  <0> d          -1.132  -0.507  -2.003  0.00  0.00    -0.048 C 
ATOM     23  C1  <0> d          -1.429   0.936  -2.417  0.00  0.00     0.015 C 
ATOM     24  C3  <0> d          -0.964  -0.577  -0.484  0.00  0.00     0.015 C 
ATOM     25  C4  <0> d          -2.292  -1.409  -2.430  0.00  0.00     0.015 C 
ENDBRANCH   1  22
TORSDOF 5
