REMARK  0 active torsions:
REMARK  status: ('A' for Active; 'I' for Inactive)
ROOT
ATOM      1  C1  <0> d          -0.017   1.383   0.010  0.00  0.00     0.039 A 
ATOM      2  C2  <0> d           1.167   2.106   0.002  0.00  0.00    -0.050 A 
ATOM      3  C3  <0> d           2.377   1.443  -0.010  0.00  0.00    -0.050 A 
ATOM      4  C4  <0> d           2.405   0.057  -0.022  0.00  0.00     0.039 A 
ATOM      5  C5  <0> d           1.227  -0.675  -0.015  0.00  0.00     0.062 A 
ATOM      6  C6  <0> d           0.002  -0.004   0.002  0.00  0.00     0.062 A 
ATOM      7  N1  <0> d          -1.194  -0.715   0.012  0.00  0.00    -0.317 N 
ATOM      8  C7  <0> d          -1.179  -2.064   0.004  0.00  0.00     0.314 A 
ATOM      9  C8  <0> d           0.129  -2.780  -0.017  0.00  0.00     0.314 A 
ATOM     10  N2  <0> d           1.272  -2.066  -0.025  0.00  0.00    -0.317 N 
ATOM     11  O1  <0> d           0.163  -3.994  -0.025  0.00  0.00    -0.262 OA
ATOM     12  O2  <0> d          -2.221  -2.689   0.014  0.00  0.00    -0.262 OA
ATOM     13  C9  <0> d           3.697   2.169  -0.003  0.00  0.00     0.039 C 
ATOM     14  C10 <0> d           3.513   3.626  -0.421  0.00  0.00     0.005 C 
ATOM     15  C11 <0> d           2.393   4.235   0.432  0.00  0.00     0.005 C 
ATOM     16  C12 <0> d           1.067   3.609   0.004  0.00  0.00     0.039 C 
ATOM     17  H11 <0> d           2.128  -2.522  -0.039  0.00  0.00     0.169 HD
ATOM     18  H12 <0> d          -2.040  -0.240   0.026  0.00  0.00     0.169 HD
ENDROOT
TORSDOF 0
