REMARK  5 active torsions:
REMARK  status: ('A' for Active; 'I' for Inactive)
REMARK    1  A    between atoms: C2_2  and  C5_5 
REMARK    2  A    between atoms: N1_15  and  C14_18 
REMARK    3  A    between atoms: C14_18  and  C15_19 
REMARK       I    between atoms: C15_19  and  N3_21 
REMARK    4  A    between atoms: N3_21  and  C16_22 
REMARK    5  A    between atoms: C17_23  and  C24_31 
REMARK       I    between atoms: C24_31  and  N4_33 
ROOT
ATOM      1  C14 <0> d           2.412   1.197  -0.013  0.00  0.00     0.236 C 
ENDROOT
BRANCH   1   2
ATOM      2  N1  <0> d           1.135   1.915   0.002  0.00  0.00    -0.299 N 
ATOM      3  C12 <0> d          -0.015   1.215   0.009  0.00  0.00     0.262 A 
ATOM      4  C11 <0> d          -1.259   1.927   0.018  0.00  0.00     0.075 A 
ATOM      5  O1  <0> d           0.002  -0.004   0.002  0.00  0.00    -0.267 OA
ATOM      6  C8  <0> d          -2.616   1.383   0.024  0.00  0.00    -0.026 A 
ATOM      7  C10 <0> d          -1.157   3.327   0.028  0.00  0.00     0.115 A 
ATOM      8  C7  <0> d          -2.894  -0.118   0.020  0.00  0.00     0.041 C 
ATOM      9  C9  <0> d          -3.631   2.272   0.033  0.00  0.00    -0.007 A 
ATOM     10  C6  <0> d          -4.336  -0.351  -0.432  0.00  0.00     0.010 C 
ATOM     11  C5  <0> d          -5.291   0.496   0.414  0.00  0.00    -0.002 C 
ATOM     12  C25 <0> d          -5.100   1.974   0.041  0.00  0.00     0.052 C 
ATOM     13  S1  <0> d          -2.849   3.863   0.045  0.00  0.00    -0.073 SA
ATOM     14  N2  <0> d           0.018   3.949   0.019  0.00  0.00    -0.235 NA
ATOM     15  C13 <0> d           1.136   3.273   0.007  0.00  0.00     0.214 A 
BRANCH  11  16
ATOM     16  C2  <0> d          -6.736   0.079   0.131  0.00  0.00    -0.047 C 
ATOM     17  C1  <0> d          -7.040   0.271  -1.356  0.00  0.00     0.015 C 
ATOM     18  C3  <0> d          -6.923  -1.393   0.504  0.00  0.00     0.015 C 
ATOM     19  C4  <0> d          -7.688   0.941   0.963  0.00  0.00     0.015 C 
ENDBRANCH  11  16
ENDBRANCH   1   2
BRANCH   1  20
ATOM     20  C15 <0> d           2.837   0.957  -1.439  0.00  0.00     0.240 C 
ATOM     21  O2  <0> d           2.142   1.347  -2.353  0.00  0.00    -0.271 OA
ATOM     22  N3  <0> d           3.990   0.309  -1.698  0.00  0.00    -0.319 N 
ATOM     23  H18 <0> d           4.546  -0.003  -0.967  0.00  0.00     0.169 HD
BRANCH  22  24
ATOM     24  C16 <0> d           4.381   0.088  -3.010  0.00  0.00     0.093 A 
ATOM     25  S2  <0> d           3.566   0.546  -4.468  0.00  0.00    -0.075 SA
ATOM     26  C19 <0> d           4.713  -0.100  -5.652  0.00  0.00    -0.008 A 
ATOM     27  C18 <0> d           5.697  -0.654  -4.912  0.00  0.00    -0.026 A 
ATOM     28  C20 <0> d           4.625  -0.050  -7.146  0.00  0.00     0.047 C 
ATOM     29  C17 <0> d           5.524  -0.548  -3.474  0.00  0.00     0.072 A 
ATOM     30  C23 <0> d           6.893  -1.328  -5.575  0.00  0.00     0.041 C 
ATOM     31  C22 <0> d           6.533  -1.650  -7.027  0.00  0.00     0.005 C 
ATOM     32  C21 <0> d           6.005  -0.393  -7.724  0.00  0.00     0.005 C 
BRANCH  29  33
ATOM     33  C24 <0> d           6.518  -1.098  -2.546  0.00  0.00     0.252 C 
ATOM     34  O3  <0> d           6.418  -2.248  -2.159  0.00  0.00    -0.268 OA
ATOM     35  N4  <0> d           7.541  -0.330  -2.122  0.00  0.00    -0.366 N 
ATOM     36  H27 <0> d           7.620   0.586  -2.430  0.00  0.00     0.159 HD
ATOM     37  H28 <0> d           8.198  -0.694  -1.508  0.00  0.00     0.159 HD
ENDBRANCH  29  33
ENDBRANCH  22  24
ENDBRANCH   1  20
TORSDOF 5
