REMARK  6 active torsions:
REMARK  status: ('A' for Active; 'I' for Inactive)
REMARK       I    between atoms: C2_2  and  N1_4 
REMARK    1  A    between atoms: N1_4  and  C3_5 
REMARK    2  A    between atoms: C11_13  and  C12_15 
REMARK    3  A    between atoms: C12_15  and  N3_32 
REMARK    4  A    between atoms: C16_19  and  C18_21 
REMARK    5  A    between atoms: C18_21  and  C19_23 
REMARK    6  A    between atoms: C24_28  and  S1_29 
ROOT
ATOM      1  C13 <0> d          -7.569   2.350  -2.571  0.00  0.00     0.235 C 
ATOM      2  C14 <0> d          -7.852   2.537  -4.064  0.00  0.00     0.029 C 
ATOM      3  C15 <0> d          -9.317   2.940  -4.254  0.00  0.00     0.016 C 
ATOM      4  C16 <0> d          -9.593   4.221  -3.462  0.00  0.00     0.086 C 
ATOM      5  C17 <0> d          -9.260   3.985  -1.987  0.00  0.00     0.247 C 
ATOM      6  N3  <0> d          -7.830   3.625  -1.870  0.00  0.00    -0.065 N 
ATOM      7  H28 <0> d          -7.264   4.364  -2.301  0.00  0.00     0.280 HD
ENDROOT
BRANCH   6   8
ATOM      8  C12 <0> d          -7.456   3.503  -0.446  0.00  0.00     0.293 C 
BRANCH   8   9
ATOM      9  C11 <0> d          -6.089   2.877  -0.346  0.00  0.00     0.061 A 
ATOM     10  C10 <0> d          -4.971   3.703  -0.258  0.00  0.00     0.030 A 
ATOM     11  C9  <0> d          -3.723   3.152  -0.168  0.00  0.00     0.018 A 
ATOM     12  C8  <0> d          -3.614   1.751  -0.166  0.00  0.00     0.019 A 
ATOM     13  C3  <0> d          -2.361   1.112  -0.073  0.00  0.00     0.047 A 
ATOM     14  C7  <0> d          -4.792   0.969  -0.258  0.00  0.00     0.069 A 
ATOM     15  C4  <0> d          -2.302  -0.266  -0.080  0.00  0.00     0.030 A 
ATOM     16  C5  <0> d          -3.465  -1.024  -0.167  0.00  0.00     0.005 A 
ATOM     17  C6  <0> d          -4.688  -0.432  -0.256  0.00  0.00     0.032 A 
ATOM     18  N2  <0> d          -5.984   1.571  -0.345  0.00  0.00    -0.251 NA
BRANCH  13  19
ATOM     19  N1  <0> d          -1.191   1.867   0.018  0.00  0.00    -0.327 N 
ATOM     20  C2  <0> d          -0.089   1.337   0.586  0.00  0.00     0.218 C 
ATOM     21  C1  <0> d           1.210   2.100   0.568  0.00  0.00     0.117 C 
ATOM     22  O1  <0> d          -0.143   0.243   1.107  0.00  0.00    -0.274 OA
ATOM     23  H5  <0> d          -1.170   2.773  -0.328  0.00  0.00     0.169 HD
ENDBRANCH  13  19
ENDBRANCH   8   9
ENDBRANCH   6   8
BRANCH   4  24
ATOM     24  C18 <0> d         -11.047   4.593  -3.596  0.00  0.00     0.166 C 
ATOM     25  O2  <0> d         -11.844   4.241  -2.752  0.00  0.00    -0.292 OA
BRANCH  24  26
ATOM     26  C19 <0> d         -11.499   5.380  -4.748  0.00  0.00     0.027 A 
ATOM     27  C24 <0> d         -12.856   5.730  -4.878  0.00  0.00     0.014 A 
ATOM     28  C23 <0> d         -13.270   6.478  -5.975  0.00  0.00     0.019 A 
ATOM     29  C22 <0> d         -12.354   6.872  -6.928  0.00  0.00     0.001 A 
ATOM     30  C21 <0> d         -11.016   6.528  -6.803  0.00  0.00     0.001 A 
ATOM     31  C20 <0> d         -10.583   5.794  -5.723  0.00  0.00     0.016 A 
BRANCH  27  32
ATOM     32  S1  <0> d         -14.023   5.225  -3.659  0.00  0.00    -0.133 SA
ATOM     33  C25 <0> d         -15.532   5.946  -4.351  0.00  0.00     0.095 C 
ENDBRANCH  27  32
ENDBRANCH  24  26
ENDBRANCH   4  24
TORSDOF 6
