REMARK  3 active torsions:
REMARK  status: ('A' for Active; 'I' for Inactive)
REMARK    1  A    between atoms: C2_2  and  C5_9 
REMARK    2  A    between atoms: C5_9  and  C6_10 
REMARK    3  A    between atoms: C5_9  and  C12_16 
ROOT
ATOM      1  C5  <0> d           0.002   5.614  -0.038  0.00  0.00     0.089 C 
ENDROOT
BRANCH   1   2
ATOM      2  C2  <0> d          -1.015   5.640  -1.181  0.00  0.00     0.123 A 
ATOM      3  C1  <0> d          -0.375   5.149  -2.481  0.00  0.00     0.050 C 
ATOM      4  N2  <0> d          -2.195   4.825  -0.843  0.00  0.00    -0.324 N 
ATOM      5  C4  <0> d          -3.250   5.658  -0.837  0.00  0.00     0.323 A 
ATOM      6  H5  <0> d          -2.082   3.746  -0.657  0.00  0.00     0.165 HD
ATOM      7  N1  <0> d          -2.908   6.919  -1.129  0.00  0.00    -0.277 N 
ATOM      8  O2  <0> d          -4.388   5.306  -0.594  0.00  0.00    -0.247 OA
ATOM      9  C3  <0> d          -1.585   7.034  -1.356  0.00  0.00     0.254 A 
ATOM     10  H4  <0> d          -3.557   7.804  -1.195  0.00  0.00     0.173 HD
ATOM     11  O1  <0> d          -0.976   8.043  -1.641  0.00  0.00    -0.270 OA
ENDBRANCH   1   2
BRANCH   1  12
ATOM     12  C6  <0> d           0.502   4.206   0.157  0.00  0.00    -0.047 A 
ATOM     13  C11 <0> d           1.828   3.903  -0.088  0.00  0.00     0.008 A 
ATOM     14  C10 <0> d           2.287   2.612   0.096  0.00  0.00     0.001 A 
ATOM     15  C9  <0> d           1.418   1.622   0.516  0.00  0.00     0.000 A 
ATOM     16  C8  <0> d           0.092   1.925   0.761  0.00  0.00     0.001 A 
ATOM     17  C7  <0> d          -0.366   3.217   0.582  0.00  0.00     0.008 A 
ENDBRANCH   1  12
BRANCH   1  18
ATOM     18  C12 <0> d          -0.654   6.095   1.230  0.00  0.00    -0.047 A 
ATOM     19  C17 <0> d          -0.075   7.112   1.966  0.00  0.00     0.008 A 
ATOM     20  C16 <0> d          -0.677   7.553   3.129  0.00  0.00     0.001 A 
ATOM     21  C15 <0> d          -1.859   6.977   3.557  0.00  0.00     0.000 A 
ATOM     22  C14 <0> d          -2.438   5.960   2.821  0.00  0.00     0.001 A 
ATOM     23  C13 <0> d          -1.839   5.523   1.655  0.00  0.00     0.008 A 
ENDBRANCH   1  18
TORSDOF 3
