REMARK  6 active torsions:
REMARK  status: ('A' for Active; 'I' for Inactive)
REMARK    1  A    between atoms: N1_2  and  C3_4 
REMARK    2  A    between atoms: C3_4  and  C4_5 
REMARK    3  A    between atoms: C4_5  and  C5_6 
REMARK    4  A    between atoms: C5_6  and  N2_7 
REMARK    5  A    between atoms: N4_20  and  C17_23 
REMARK    6  A    between atoms: C18_27  and  S1_29 
ROOT
ATOM      1  N2  <0> d          -0.082  -0.239   4.890  0.00  0.00    -0.324 N 
ATOM      2  C6  <0> d           0.181   0.958   5.487  0.00  0.00     0.096 A 
ATOM      3  C7  <0> d          -0.463   1.372   6.591  0.00  0.00     0.050 A 
ATOM      4  C8  <0> d          -1.490   0.518   7.192  0.00  0.00     0.074 A 
ATOM      5  C9  <0> d          -1.764  -0.729   6.571  0.00  0.00     0.062 A 
ATOM      6  C10 <0> d          -1.012  -1.091   5.365  0.00  0.00     0.260 A 
ATOM      7  O1  <0> d          -1.223  -2.150   4.803  0.00  0.00    -0.267 OA
ATOM      8  C11 <0> d          -2.733  -1.571   7.111  0.00  0.00     0.039 A 
ATOM      9  C12 <0> d          -3.399  -1.139   8.256  0.00  0.00     0.063 A 
ATOM     10  C13 <0> d          -3.075   0.120   8.826  0.00  0.00     0.074 A 
ATOM     11  N3  <0> d          -2.146   0.895   8.282  0.00  0.00    -0.247 NA
ATOM     12  C14 <0> d          -3.800   0.535  10.030  0.00  0.00     0.051 A 
ATOM     13  C15 <0> d          -4.736  -0.275  10.552  0.00  0.00     0.121 A 
ATOM     14  N4  <0> d          -5.048  -1.487  10.004  0.00  0.00    -0.118 N 
ATOM     15  C16 <0> d          -4.435  -1.954   8.898  0.00  0.00     0.278 A 
ATOM     16  O2  <0> d          -4.739  -3.038   8.437  0.00  0.00    -0.266 OA
ENDROOT
BRANCH  14  17
ATOM     17  C17 <0> d          -6.030  -2.265  10.608  0.00  0.00     0.732 A 
ATOM     18  N7  <0> d          -6.438  -3.446  10.200  0.00  0.00    -0.034 NA
ATOM     19  C18 <0> d          -7.390  -3.901  11.021  0.00  0.00     0.225 A 
ATOM     20  N6  <0> d          -7.606  -3.009  11.959  0.00  0.00    -0.132 NA
ATOM     21  N5  <0> d          -6.734  -1.937  11.710  0.00  0.00    -0.104 N 
ATOM     22  H1  <0> d          -6.653  -1.121  12.229  0.00  0.00     0.208 HD
BRANCH  19  23
ATOM     23  S1  <0> d          -8.224  -5.446  10.866  0.00  0.00    -0.092 SA
ATOM     24  C19 <0> d          -9.383  -5.461  12.261  0.00  0.00     0.099 C 
ENDBRANCH  19  23
ENDBRANCH  14  17
BRANCH   1  25
ATOM     25  C5  <0> d           0.669  -0.610   3.687  0.00  0.00     0.133 C 
BRANCH  25  26
ATOM     26  C4  <0> d          -0.071  -0.103   2.448  0.00  0.00     0.048 C 
BRANCH  26  27
ATOM     27  C3  <0> d           0.713  -0.491   1.192  0.00  0.00     0.235 C 
BRANCH  27  28
ATOM     28  N1  <0> d           0.002  -0.004   0.002  0.00  0.00    -0.079 N 
ATOM     29  C1  <0> d          -0.018   1.465   0.010  0.00  0.00     0.269 C 
ATOM     30  C2  <0> d           0.690  -0.478  -1.207  0.00  0.00     0.269 C 
ATOM     31  H22 <0> d          -0.945  -0.353   0.009  0.00  0.00     0.278 HD
ENDBRANCH  27  28
ENDBRANCH  26  27
ENDBRANCH  25  26
ENDBRANCH   1  25
TORSDOF 6
