REMARK  3 active torsions:
REMARK  status: ('A' for Active; 'I' for Inactive)
REMARK    1  A    between atoms: C2_2  and  C7_10 
REMARK    2  A    between atoms: C7_10  and  N1_11 
REMARK    3  A    between atoms: C8_12  and  N3_17 
ROOT
ATOM      1  C7  <0> d           1.147   3.595   0.010  0.00  0.00     0.191 C 
ENDROOT
BRANCH   1   2
ATOM      2  C2  <0> d           1.170   2.088   0.002  0.00  0.00    -0.032 A 
ATOM      3  C1  <0> d          -0.017   1.380   0.010  0.00  0.00     0.054 A 
ATOM      4  C6  <0> d           0.002  -0.004   0.002  0.00  0.00     0.158 A 
ATOM      5  C5  <0> d           1.212  -0.680  -0.013  0.00  0.00     0.193 A 
ATOM      6  F1  <0> d          -1.158  -0.696   0.010  0.00  0.00    -0.203 F 
ATOM      7  C4  <0> d           2.401   0.032  -0.021  0.00  0.00     0.158 A 
ATOM      8  F2  <0> d           1.232  -2.030  -0.021  0.00  0.00    -0.200 F 
ATOM      9  C3  <0> d           2.378   1.416  -0.013  0.00  0.00     0.054 A 
ATOM     10  F3  <0> d           3.582  -0.624  -0.036  0.00  0.00    -0.203 F 
ENDBRANCH   1   2
BRANCH   1  11
ATOM     11  N1  <0> d           1.153   4.077   1.393  0.00  0.00    -0.249 N 
ATOM     12  N2  <0> d           2.288   4.364   2.162  0.00  0.00    -0.181 NA
ATOM     13  C10 <0> d           1.896   4.771   3.342  0.00  0.00     0.161 A 
ATOM     14  C9  <0> d           0.498   4.750   3.375  0.00  0.00     0.070 A 
ATOM     15  C8  <0> d           0.059   4.317   2.161  0.00  0.00     0.136 A 
ATOM     16  I1  <0> d          -0.706   5.288   5.003  0.00  0.00    -0.039 I 
BRANCH  15  17
ATOM     17  N3  <0> d          -1.269   4.153   1.777  0.00  0.00    -0.383 N 
ATOM     18  H6  <0> d          -1.480   3.838   0.884  0.00  0.00     0.157 HD
ATOM     19  H7  <0> d          -1.984   4.353   2.402  0.00  0.00     0.157 HD
ENDBRANCH  15  17
ENDBRANCH   1  11
TORSDOF 3
