REMARK  4 active torsions:
REMARK  status: ('A' for Active; 'I' for Inactive)
REMARK    1  A    between atoms: C2_2  and  N1_12 
REMARK       I    between atoms: N1_12  and  C9_13 
REMARK       I    between atoms: C9_13  and  N2_15 
REMARK    2  A    between atoms: N2_15  and  C10_16 
REMARK    3  A    between atoms: C10_16  and  C11_17 
REMARK    4  A    between atoms: C11_17  and  N3_23 
ROOT
ATOM      1  N1  <0> d          -2.938   4.247  -2.623  0.00  0.00    -0.308 N 
ATOM      2  C9  <0> d          -2.427   4.593  -1.425  0.00  0.00     0.320 C 
ATOM      3  O3  <0> d          -2.190   3.736  -0.595  0.00  0.00    -0.247 OA
ATOM      4  N2  <0> d          -2.178   5.888  -1.147  0.00  0.00    -0.340 N 
ATOM      5  H7  <0> d          -3.074   4.922  -3.305  0.00  0.00     0.170 HD
ATOM      6  H8  <0> d          -2.367   6.571  -1.809  0.00  0.00     0.164 HD
ENDROOT
BRANCH   1   7
ATOM      7  C2  <0> d          -3.274   2.911  -2.882  0.00  0.00     0.056 A 
ATOM      8  C1  <0> d          -2.517   1.885  -2.334  0.00  0.00     0.070 A 
ATOM      9  C6  <0> d          -2.848   0.564  -2.590  0.00  0.00     0.104 A 
ATOM     10  C5  <0> d          -3.943   0.268  -3.394  0.00  0.00     0.103 A 
ATOM     11  O1  <0> d          -2.091  -0.430  -2.050  0.00  0.00    -0.346 OA
ATOM     12  C4  <0> d          -4.697   1.295  -3.942  0.00  0.00     0.061 A 
ATOM     13  O2  <0> d          -4.288  -1.024  -3.652  0.00  0.00    -0.346 OA
ATOM     14  C3  <0> d          -4.365   2.612  -3.688  0.00  0.00     0.040 A 
ATOM     15 Br1  <0> d          -5.397   4.009  -4.437  0.00  0.00    -0.049 Br
ATOM     16  C8  <0> d          -3.291  -2.019  -3.398  0.00  0.00     0.202 C 
ATOM     17  C7  <0> d          -2.672  -1.738  -2.022  0.00  0.00     0.202 C 
ENDBRANCH   1   7
BRANCH   4  18
ATOM     18  C10 <0> d          -1.622   6.264   0.155  0.00  0.00     0.166 C 
BRANCH  18  19
ATOM     19  C11 <0> d          -1.554   7.789   0.260  0.00  0.00     0.175 C 
ATOM     20  C16 <0> d          -2.965   8.371   0.147  0.00  0.00     0.043 C 
ATOM     21  C15 <0> d          -3.836   7.820   1.278  0.00  0.00     0.003 C 
ATOM     22  C14 <0> d          -3.229   8.213   2.626  0.00  0.00     0.000 C 
ATOM     23  C13 <0> d          -1.818   7.631   2.739  0.00  0.00     0.003 C 
ATOM     24  C12 <0> d          -0.947   8.181   1.608  0.00  0.00     0.043 C 
BRANCH  19  25
ATOM     25  N3  <0> d          -0.718   8.318  -0.826  0.00  0.00     0.103 N 
ATOM     26  C20 <0> d          -0.550   9.773  -0.701  0.00  0.00     0.299 C 
ATOM     27  C19 <0> d           0.275  10.289  -1.883  0.00  0.00     0.198 C 
ATOM     28  O4  <0> d           1.528   9.601  -1.919  0.00  0.00    -0.388 OA
ATOM     29  C18 <0> d           1.402   8.181  -2.041  0.00  0.00     0.198 C 
ATOM     30  C17 <0> d           0.588   7.644  -0.861  0.00  0.00     0.299 C 
ENDBRANCH  19  25
ENDBRANCH  18  19
ENDBRANCH   4  18
TORSDOF 4
