REMARK  3 active torsions:
REMARK  status: ('A' for Active; 'I' for Inactive)
REMARK    1  A    between atoms: N2_5  and  C4_7 
REMARK    2  A    between atoms: C4_7  and  C5_8 
REMARK       I    between atoms: C5_8  and  N4_10 
REMARK    3  A    between atoms: N4_10  and  C6_11 
ROOT
ATOM      1  C5  <0> d          -0.718   1.572   1.248  0.00  0.00     0.243 C 
ATOM      2  O1  <0> d          -1.715   2.256   1.150  0.00  0.00    -0.271 OA
ATOM      3  N4  <0> d          -0.242   1.246   2.466  0.00  0.00    -0.304 N 
ATOM      4  H6  <0> d           0.662   0.625   2.555  0.00  0.00     0.171 HD
ENDROOT
BRANCH   3   5
ATOM      5  C6  <0> d          -0.892   1.694   3.609  0.00  0.00     0.173 A 
ATOM      6  S1  <0> d          -2.313   2.680   3.745  0.00  0.00    -0.055 SA
ATOM      7  C8  <0> d          -2.386   2.718   5.529  0.00  0.00     0.011 A 
ATOM      8  C7  <0> d          -1.314   1.993   5.882  0.00  0.00     0.050 A 
ATOM      9  C9  <0> d          -3.447   3.430   6.314  0.00  0.00     0.048 C 
ATOM     10  N5  <0> d          -0.589   1.488   4.867  0.00  0.00    -0.228 NA
ATOM     11  C14 <0> d          -0.871   1.729   7.307  0.00  0.00     0.060 C 
ATOM     12  C13 <0> d          -1.722   0.661   7.973  0.00  0.00     0.006 C 
ATOM     13  C12 <0> d          -3.179   0.772   7.523  0.00  0.00     0.000 C 
ATOM     14  C11 <0> d          -3.807   1.938   8.267  0.00  0.00     0.000 C 
ATOM     15  C10 <0> d          -3.226   3.272   7.820  0.00  0.00     0.005 C 
ENDBRANCH   3   5
BRANCH   1  16
ATOM     16  C4  <0> d          -0.013   1.086   0.008  0.00  0.00     0.256 C 
BRANCH  16  17
ATOM     17  N2  <0> d          -0.721   1.571  -1.179  0.00  0.00    -0.246 N 
ATOM     18  C3  <0> d          -0.502   2.725  -1.833  0.00  0.00     0.121 A 
ATOM     19  N1  <0> d          -1.338   2.788  -2.836  0.00  0.00    -0.218 NA
ATOM     20  C15 <0> d           0.529   3.764  -1.473  0.00  0.00     0.093 C 
ATOM     21  C2  <0> d          -2.104   1.698  -2.856  0.00  0.00     0.144 A 
ATOM     22  C1  <0> d          -3.188   1.407  -3.862  0.00  0.00     0.095 C 
ATOM     23  N3  <0> d          -1.761   0.920  -1.863  0.00  0.00    -0.155 NA
ENDBRANCH  16  17
ENDBRANCH   1  16
TORSDOF 3
