REMARK  5 active torsions:
REMARK  status: ('A' for Active; 'I' for Inactive)
REMARK    1  A    between atoms: C3_3  and  C7_12 
REMARK    2  A    between atoms: C4_4  and  C6_8 
REMARK       I    between atoms: C7_12  and  N3_14 
REMARK    3  A    between atoms: N3_14  and  C8_15 
REMARK    4  A    between atoms: C8_15  and  C9_16 
REMARK    5  A    between atoms: C9_16  and  C10_17 
ROOT
ATOM      1  C7  <0> d          -0.005  -0.369  -2.520  0.00  0.00     0.256 C 
ATOM      2  O1  <0> d           1.042  -0.170  -3.105  0.00  0.00    -0.268 OA
ATOM      3  N3  <0> d          -1.178  -0.182  -3.157  0.00  0.00    -0.356 N 
ATOM      4  H7  <0> d          -2.014  -0.341  -2.691  0.00  0.00     0.162 HD
ENDROOT
BRANCH   3   5
ATOM      5  C8  <0> d          -1.191   0.261  -4.553  0.00  0.00     0.127 C 
BRANCH   5   6
ATOM      6  C9  <0> d          -2.638   0.395  -5.032  0.00  0.00     0.056 C 
BRANCH   6   7
ATOM      7  C10 <0> d          -2.652   0.851  -6.469  0.00  0.00    -0.048 A 
ATOM      8  C17 <0> d          -2.570   2.275  -6.971  0.00  0.00     0.155 A 
ATOM      9  N4  <0> d          -2.618   2.188  -8.435  0.00  0.00    -0.385 N 
ATOM     10  C16 <0> d          -2.723   0.926  -8.776  0.00  0.00     0.038 A 
ATOM     11  H18 <0> d          -2.583   2.939  -9.048  0.00  0.00     0.160 HD
ATOM     12  C11 <0> d          -2.746   0.070  -7.569  0.00  0.00    -0.006 A 
ATOM     13  C15 <0> d          -2.810   0.292 -10.046  0.00  0.00     0.030 A 
ATOM     14  C12 <0> d          -2.858  -1.383  -7.750  0.00  0.00     0.014 A 
ATOM     15  C13 <0> d          -2.936  -1.883  -9.005  0.00  0.00     0.001 A 
ATOM     16  C14 <0> d          -2.911  -1.051 -10.133  0.00  0.00     0.002 A 
ENDBRANCH   6   7
ENDBRANCH   5   6
ENDBRANCH   3   5
BRANCH   1  17
ATOM     17  C3  <0> d           0.008  -0.815  -1.115  0.00  0.00     0.091 A 
ATOM     18  C2  <0> d           0.002  -0.004   0.002  0.00  0.00     0.044 A 
ATOM     19  C1  <0> d          -0.018   1.503   0.010  0.00  0.00     0.071 C 
ATOM     20  N2  <0> d           0.024  -0.804   1.080  0.00  0.00    -0.277 N 
ATOM     21  N1  <0> d           0.035  -2.134   0.645  0.00  0.00    -0.167 NA
ATOM     22  C5  <0> d           0.031  -0.360   2.476  0.00  0.00     0.179 C 
ATOM     23  C4  <0> d           0.029  -2.152  -0.660  0.00  0.00     0.178 A 
BRANCH  23  24
ATOM     24  C6  <0> d           0.042  -3.384  -1.528  0.00  0.00     0.437 C 
ATOM     25  F1  <0> d           1.365  -3.746  -1.804  0.00  0.00    -0.164 F 
ATOM     26  F2  <0> d          -0.600  -4.432  -0.861  0.00  0.00    -0.164 F 
ATOM     27  F3  <0> d          -0.627  -3.115  -2.728  0.00  0.00    -0.164 F 
ENDBRANCH  23  24
ENDBRANCH   1  17
TORSDOF 5
