REMARK  5 active torsions:
REMARK  status: ('A' for Active; 'I' for Inactive)
REMARK       I    between atoms: C2_2  and  N1_4 
REMARK    1  A    between atoms: N1_4  and  C3_5 
REMARK    2  A    between atoms: C3_5  and  C4_6 
REMARK    3  A    between atoms: C7_9  and  C8_11 
REMARK    4  A    between atoms: C10_14  and  N3_16 
REMARK       I    between atoms: N3_16  and  C11_17 
REMARK    5  A    between atoms: C11_17  and  C12_19 
ROOT
ATOM      1  C8  <0> d          -3.486   1.998   0.453  0.00  0.00     0.100 A 
ATOM      2  C9  <0> d          -3.311   3.331   0.191  0.00  0.00     0.087 A 
ATOM      3  S1  <0> d          -1.536   3.400  -0.010  0.00  0.00    -0.061 SA
ATOM      4  C10 <0> d          -1.209   1.665   0.263  0.00  0.00     0.173 A 
ATOM      5  N2  <0> d          -2.423   1.197   0.481  0.00  0.00    -0.221 NA
ENDROOT
BRANCH   1   6
ATOM      6  C7  <0> d          -4.838   1.456   0.700  0.00  0.00     0.105 A 
ATOM      7  C6  <0> d          -5.141   0.157   0.964  0.00  0.00     0.042 A 
ATOM      8  C5  <0> d          -6.540   0.092   1.135  0.00  0.00     0.037 A 
ATOM      9  C4  <0> d          -7.016   1.339   0.959  0.00  0.00     0.071 A 
ATOM     10  O2  <0> d          -5.986   2.161   0.697  0.00  0.00    -0.311 OA
BRANCH   9  11
ATOM     11  C3  <0> d          -8.465   1.746   1.044  0.00  0.00     0.187 C 
BRANCH  11  12
ATOM     12  N1  <0> d          -8.786   2.125   2.422  0.00  0.00    -0.355 N 
ATOM     13  C2  <0> d         -10.033   2.527   2.738  0.00  0.00     0.213 C 
ATOM     14  C1  <0> d         -10.363   2.916   4.156  0.00  0.00     0.117 C 
ATOM     15  O1  <0> d         -10.890   2.575   1.881  0.00  0.00    -0.274 OA
ATOM     16  H7  <0> d          -8.009   2.081   3.200  0.00  0.00     0.162 HD
ENDBRANCH  11  12
ENDBRANCH   9  11
ENDBRANCH   1   6
BRANCH   4  17
ATOM     17  N3  <0> d           0.004   0.987   0.253  0.00  0.00    -0.305 N 
ATOM     18  C11 <0> d           1.147   1.655  -0.000  0.00  0.00     0.228 C 
ATOM     19  O3  <0> d           1.117   2.849  -0.215  0.00  0.00    -0.273 OA
ATOM     20  H13 <0> d           0.032  -0.094   0.452  0.00  0.00     0.171 HD
BRANCH  18  21
ATOM     21  C12 <0> d           2.462   0.920  -0.017  0.00  0.00     0.083 C 
ATOM     22  C17 <0> d           3.012   0.758   1.433  0.00  0.00    -0.001 C 
ATOM     23  C16 <0> d           2.899   2.183   2.055  0.00  0.00     0.006 C 
ATOM     24  C18 <0> d           4.555   0.686   1.152  0.00  0.00     0.010 C 
ATOM     25  C15 <0> d           3.974   3.017   1.320  0.00  0.00     0.005 C 
ATOM     26  C14 <0> d           4.635   2.016   0.323  0.00  0.00    -0.013 C 
ATOM     27  C13 <0> d           3.536   1.753  -0.752  0.00  0.00     0.019 C 
ENDBRANCH  18  21
ENDBRANCH   4  17
TORSDOF 5
