REMARK  3 active torsions:
REMARK  status: ('A' for Active; 'I' for Inactive)
REMARK    1  A    between atoms: C3_3  and  C10_13 
REMARK    2  A    between atoms: C5_5  and  N1_7 
REMARK       I    between atoms: C10_13  and  N3_15 
REMARK    3  A    between atoms: N3_15  and  C11_16 
ROOT
ATOM      1  C1  <0> d           0.136   1.438  -0.029  0.00  0.00     0.003 A 
ATOM      2  C2  <0> d           1.354   2.086  -0.025  0.00  0.00     0.017 A 
ATOM      3  C3  <0> d           2.538   1.347  -0.009  0.00  0.00     0.034 A 
ATOM      4  C4  <0> d           2.483  -0.048   0.002  0.00  0.00     0.046 A 
ATOM      5  C5  <0> d           1.255  -0.689  -0.003  0.00  0.00     0.040 A 
ATOM      6  C6  <0> d           0.082   0.057  -0.018  0.00  0.00     0.030 A 
ENDROOT
BRANCH   3   7
ATOM      7  C10 <0> d           3.844   2.038  -0.005  0.00  0.00     0.257 C 
ATOM      8  O2  <0> d           4.874   1.392   0.008  0.00  0.00    -0.267 OA
ATOM      9  N3  <0> d           3.894   3.385  -0.017  0.00  0.00    -0.307 N 
ATOM     10  H10 <0> d           3.075   3.901   0.050  0.00  0.00     0.170 HD
BRANCH   9  11
ATOM     11  C11 <0> d           5.121   4.035  -0.123  0.00  0.00     0.131 A 
ATOM     12  N4  <0> d           6.224   3.328  -0.312  0.00  0.00    -0.224 NA
ATOM     13  C15 <0> d           7.406   3.906  -0.425  0.00  0.00     0.105 A 
ATOM     14  C14 <0> d           7.534   5.279  -0.337  0.00  0.00     0.040 A 
ATOM     15 Br1  <0> d           8.943   2.841  -0.703  0.00  0.00    -0.029 Br
ATOM     16  C13 <0> d           6.402   6.056  -0.133  0.00  0.00     0.007 A 
ATOM     17  C12 <0> d           5.177   5.421  -0.025  0.00  0.00     0.051 A 
ENDBRANCH   9  11
ENDBRANCH   3   7
BRANCH   5  18
ATOM     18  N1  <0> d           1.195  -2.087   0.008  0.00  0.00    -0.298 N 
ATOM     19  C9  <0> d           2.248  -2.910  -0.085  0.00  0.00     0.323 A 
ATOM     20  N2  <0> d           1.927  -4.209  -0.047  0.00  0.00    -0.341 N 
ATOM     21  O1  <0> d           3.392  -2.512  -0.191  0.00  0.00    -0.247 OA
ATOM     22  C8  <0> d           0.468  -4.343   0.079  0.00  0.00     0.144 A 
ATOM     23  H9  <0> d           2.556  -4.946  -0.098  0.00  0.00     0.164 HD
ATOM     24  C7  <0> d          -0.035  -2.886   0.117  0.00  0.00     0.153 A 
ENDBRANCH   5  18
TORSDOF 3
