REMARK  4 active torsions:
REMARK  status: ('A' for Active; 'I' for Inactive)
REMARK    1  A    between atoms: C5_7  and  N5_20 
REMARK    2  A    between atoms: C6_9  and  C7_11 
REMARK    3  A    between atoms: C7_11  and  O1_12 
REMARK    4  A    between atoms: O1_12  and  C8_13 
ROOT
ATOM      1  C1  <0> d          -0.018   1.461   0.010  0.00  0.00     0.182 C 
ATOM      2  N1  <0> d           0.002  -0.004   0.002  0.00  0.00    -0.256 N 
ATOM      3  C2  <0> d           0.008  -0.797  -1.107  0.00  0.00     0.163 A 
ATOM      4  C3  <0> d           0.028  -2.128  -0.648  0.00  0.00     0.076 A 
ATOM      5  C4  <0> d           0.034  -2.080   0.763  0.00  0.00     0.158 A 
ATOM      6  N2  <0> d           0.025  -0.831   1.132  0.00  0.00    -0.182 NA
ATOM      7  C5  <0> d           0.038  -3.163  -1.603  0.00  0.00     0.139 A 
ATOM      8  N3  <0> d           0.027  -2.834  -2.891  0.00  0.00    -0.213 NA
ATOM      9  C6  <0> d           0.009  -1.569  -3.273  0.00  0.00     0.154 A 
ATOM     10  N4  <0> d          -0.001  -0.570  -2.419  0.00  0.00    -0.211 NA
ENDROOT
BRANCH   9  11
ATOM     11  C7  <0> d          -0.002  -1.260  -4.748  0.00  0.00     0.256 C 
BRANCH  11  12
ATOM     12  O1  <0> d          -1.352  -1.181  -5.209  0.00  0.00    -0.342 OA
BRANCH  12  13
ATOM     13  C8  <0> d          -1.540  -0.908  -6.527  0.00  0.00     0.085 A 
ATOM     14  C13 <0> d          -2.825  -0.816  -7.042  0.00  0.00     0.039 A 
ATOM     15  C12 <0> d          -3.013  -0.531  -8.382  0.00  0.00     0.021 A 
ATOM     16  I1  <0> d          -4.479  -1.100  -5.789  0.00  0.00    -0.042 I 
ATOM     17  C11 <0> d          -1.921  -0.350  -9.210  0.00  0.00     0.001 A 
ATOM     18  C10 <0> d          -0.639  -0.447  -8.700  0.00  0.00     0.003 A 
ATOM     19  C9  <0> d          -0.446  -0.725  -7.361  0.00  0.00     0.038 A 
ENDBRANCH  12  13
ENDBRANCH  11  12
ENDBRANCH   9  11
BRANCH   7  20
ATOM     20  N5  <0> d           0.058  -4.487  -1.212  0.00  0.00    -0.383 N 
ATOM     21  H11 <0> d           0.066  -4.714  -0.269  0.00  0.00     0.157 HD
ATOM     22  H12 <0> d           0.064  -5.190  -1.880  0.00  0.00     0.157 HD
ENDBRANCH   7  20
TORSDOF 4
