REMARK  5 active torsions:
REMARK  status: ('A' for Active; 'I' for Inactive)
REMARK    1  A    between atoms: C8_8  and  C10_12 
REMARK    2  A    between atoms: C8_8  and  O5_24 
REMARK    3  A    between atoms: C10_12  and  C11_13 
REMARK    4  A    between atoms: C11_13  and  C12_15 
REMARK    5  A    between atoms: C15_18  and  N2_21 
ROOT
ATOM      1  C1  <0> d          -0.013   1.086   0.008  0.00  0.00     0.048 C 
ATOM      2  C2  <0> d          -0.718   1.572   1.248  0.00  0.00    -0.061 A 
ATOM      3  C3  <0> d          -2.084   1.790   1.228  0.00  0.00     0.009 A 
ATOM      4  C4  <0> d          -2.736   2.230   2.361  0.00  0.00     0.031 A 
ATOM      5  C5  <0> d          -2.020   2.468   3.533  0.00  0.00     0.044 A 
ATOM      6  C6  <0> d          -0.648   2.250   3.538  0.00  0.00     0.013 A 
ATOM      7  C7  <0> d          -0.000   1.806   2.408  0.00  0.00     0.019 A 
ATOM      8  C8  <0> d          -0.169   2.592   4.930  0.00  0.00     0.174 A 
ATOM      9  C9  <0> d          -1.427   3.013   5.660  0.00  0.00     0.262 A 
ATOM     10  O1  <0> d          -1.504   3.372   6.816  0.00  0.00    -0.269 OA
ATOM     11  N1  <0> d          -2.443   2.912   4.786  0.00  0.00    -0.324 N 
ATOM     12  H7  <0> d          -3.365   3.124   5.002  0.00  0.00     0.169 HD
ENDROOT
BRANCH   8  13
ATOM     13  C10 <0> d           0.454   1.366   5.599  0.00  0.00     0.137 C 
BRANCH  13  14
ATOM     14  C11 <0> d           0.812   1.698   7.025  0.00  0.00     0.163 C 
ATOM     15  O2  <0> d           0.590   2.807   7.463  0.00  0.00    -0.292 OA
BRANCH  14  16
ATOM     16  C12 <0> d           1.430   0.677   7.886  0.00  0.00     0.010 A 
ATOM     17  C17 <0> d           1.763   0.982   9.210  0.00  0.00     0.017 A 
ATOM     18  C16 <0> d           2.342   0.020  10.010  0.00  0.00     0.037 A 
ATOM     19  C15 <0> d           2.593  -1.244   9.507  0.00  0.00     0.102 A 
ATOM     20  C14 <0> d           2.266  -1.554   8.198  0.00  0.00     0.037 A 
ATOM     21  C13 <0> d           1.682  -0.604   7.386  0.00  0.00     0.017 A 
BRANCH  19  22
ATOM     22  N2  <0> d           3.214  -2.271  10.373  0.00  0.00    -0.116 N 
ATOM     23  O3  <0> d           3.503  -2.003  11.525  0.00  0.00    -0.532 OA
ATOM     24  O4  <0> d           3.437  -3.385   9.933  0.00  0.00    -0.532 OA
ENDBRANCH  19  22
ENDBRANCH  14  16
ENDBRANCH  13  14
ENDBRANCH   8  13
BRANCH   8  25
ATOM     25  O5  <0> d           0.768   3.671   4.886  0.00  0.00    -0.375 OA
ATOM     26  H14 <0> d           1.108   3.932   5.753  0.00  0.00     0.211 HD
ENDBRANCH   8  25
TORSDOF 5
