REMARK  5 active torsions:
REMARK  status: ('A' for Active; 'I' for Inactive)
REMARK    1  A    between atoms: C2_2  and  N1_3 
REMARK    2  A    between atoms: N1_3  and  C3_4 
REMARK    3  A    between atoms: C11_12  and  O1_13 
REMARK    4  A    between atoms: O1_13  and  C12_14 
REMARK    5  A    between atoms: C15_20  and  O4_21 
ROOT
ATOM      1  C3  <0> d          -1.441  -1.752  -0.189  0.00  0.00     0.219 C 
ATOM      2  C4  <0> d          -2.881  -2.283  -0.349  0.00  0.00     0.042 C 
ATOM      3  C5  <0> d          -2.658  -3.638  -1.054  0.00  0.00     0.044 C 
ATOM      4  C6  <0> d          -1.352  -3.483  -1.803  0.00  0.00    -0.016 A 
ATOM      5  C7  <0> d          -0.650  -2.400  -1.305  0.00  0.00    -0.019 A 
ATOM      6  C8  <0> d           0.582  -2.067  -1.841  0.00  0.00     0.010 A 
ATOM      7  C9  <0> d           1.119  -2.814  -2.873  0.00  0.00     0.003 A 
ATOM      8  C10 <0> d           0.424  -3.898  -3.375  0.00  0.00     0.037 A 
ATOM      9  C11 <0> d          -0.816  -4.234  -2.842  0.00  0.00     0.076 A 
ENDROOT
BRANCH   9  10
ATOM     10  O1  <0> d          -1.501  -5.300  -3.333  0.00  0.00    -0.342 OA
BRANCH  10  11
ATOM     11  C12 <0> d          -0.946  -5.958  -4.473  0.00  0.00     0.172 C 
ATOM     12  C15 <0> d          -2.071  -6.649  -5.230  0.00  0.00     0.162 C 
ATOM     13  C14 <0> d          -1.886  -8.173  -5.378  0.00  0.00     0.174 C 
ATOM     14  S1  <0> d          -0.736  -8.531  -3.980  0.00  0.00     0.149 S 
ATOM     15  C13 <0> d           0.165  -6.920  -3.996  0.00  0.00     0.175 C 
ATOM     16  O2  <0> d          -1.480  -8.643  -2.775  0.00  0.00    -0.228 OA
ATOM     17  O3  <0> d           0.155  -9.572  -4.357  0.00  0.00    -0.228 OA
BRANCH  12  18
ATOM     18  O4  <0> d          -2.162  -6.075  -6.535  0.00  0.00    -0.392 OA
ATOM     19  H21 <0> d          -2.858  -6.460  -7.086  0.00  0.00     0.210 HD
ENDBRANCH  12  18
ENDBRANCH  10  11
ENDBRANCH   9  10
BRANCH   1  20
ATOM     20  N1  <0> d          -1.418  -0.290  -0.330  0.00  0.00    -0.067 N 
ATOM     21  H9  <0> d          -1.900  -0.026  -1.177  0.00  0.00     0.277 HD
ATOM     22  H22 <0> d          -0.462   0.029  -0.374  0.00  0.00     0.277 HD
BRANCH  20  23
ATOM     23  C2  <0> d          -2.087   0.325   0.824  0.00  0.00     0.228 C 
ATOM     24  C1  <0> d          -1.953   1.847   0.741  0.00  0.00     0.034 C 
ENDBRANCH  20  23
ENDBRANCH   1  20
TORSDOF 5
