REMARK  6 active torsions:
REMARK  status: ('A' for Active; 'I' for Inactive)
REMARK    1  A    between atoms: C9_10  and  C11_12 
REMARK    2  A    between atoms: C11_12  and  C12_13 
REMARK    3  A    between atoms: C11_12  and  N4_29 
REMARK    4  A    between atoms: C12_13  and  N2_14 
REMARK       I    between atoms: N2_14  and  C13_15 
REMARK    5  A    between atoms: C13_15  and  C14_17 
REMARK    6  A    between atoms: C14_17  and  N3_18 
ROOT
ATOM      1  C12 <0> d           4.791  -1.569   4.637  0.00  0.00     0.160 C 
ENDROOT
BRANCH   1   2
ATOM      2  C11 <0> d           3.308  -1.888   4.835  0.00  0.00     0.237 C 
BRANCH   2   3
ATOM      3  C9  <0> d           2.591  -1.784   3.514  0.00  0.00    -0.025 A 
ATOM      4  C8  <0> d           2.477  -2.894   2.698  0.00  0.00     0.011 A 
ATOM      5  C7  <0> d           1.823  -2.796   1.489  0.00  0.00     0.025 A 
ATOM      6  C6  <0> d           1.272  -1.581   1.080  0.00  0.00     0.016 A 
ATOM      7  N1  <0> d           0.629  -1.544  -0.157  0.00  0.00    -0.287 NA
ATOM      8  C5  <0> d           1.383  -0.473   1.903  0.00  0.00    -0.036 A 
ATOM      9  C1  <0> d          -0.050  -2.817  -0.434  0.00  0.00     0.116 C 
ATOM     10  C2  <0> d          -0.294  -0.416  -0.292  0.00  0.00     0.095 C 
ATOM     11  C3  <0> d           0.461   0.878   0.035  0.00  0.00     0.019 C 
ATOM     12  C4  <0> d           0.795   0.864   1.528  0.00  0.00     0.041 C 
ATOM     13  C10 <0> d           2.045  -0.579   3.116  0.00  0.00     0.018 A 
ENDBRANCH   2   3
BRANCH   2  14
ATOM     14  N4  <0> d           3.167  -3.251   5.363  0.00  0.00    -0.069 N 
ATOM     15  C23 <0> d           4.234  -4.125   4.857  0.00  0.00     0.270 C 
ATOM     16  C24 <0> d           3.142  -3.247   6.832  0.00  0.00     0.270 C 
ATOM     17  H29 <0> d           2.205  -3.653   5.010  0.00  0.00     0.279 HD
ENDBRANCH   2  14
ENDBRANCH   1   2
BRANCH   1  18
ATOM     18  N2  <0> d           5.454  -1.496   5.941  0.00  0.00    -0.357 N 
ATOM     19  C13 <0> d           6.793  -1.358   6.010  0.00  0.00     0.236 C 
ATOM     20  O1  <0> d           7.449  -1.295   4.992  0.00  0.00    -0.272 OA
ATOM     21  H16 <0> d           4.858  -1.553   6.864  0.00  0.00     0.162 HD
BRANCH  19  22
ATOM     22  C14 <0> d           7.474  -1.283   7.352  0.00  0.00     0.238 C 
BRANCH  22  23
ATOM     23  N3  <0> d           8.919  -1.135   7.159  0.00  0.00    -0.271 N 
ATOM     24  C22 <0> d           9.556   0.044   7.053  0.00  0.00     0.262 A 
ATOM     25  C21 <0> d          11.000  -0.215   6.868  0.00  0.00     0.048 A 
ATOM     26  O3  <0> d           9.034   1.139   7.102  0.00  0.00    -0.267 OA
ATOM     27  C16 <0> d          11.143  -1.617   6.875  0.00  0.00     0.048 A 
ATOM     28  C20 <0> d          12.115   0.591   6.707  0.00  0.00     0.018 A 
ATOM     29  C15 <0> d           9.783  -2.162   7.069  0.00  0.00     0.262 A 
ATOM     30  C17 <0> d          12.399  -2.182   6.720  0.00  0.00     0.018 A 
ATOM     31  O2  <0> d           9.494  -3.340   7.133  0.00  0.00    -0.267 OA
ATOM     32  C18 <0> d          13.506  -1.363   6.559  0.00  0.00     0.001 A 
ATOM     33  C19 <0> d          13.365   0.012   6.553  0.00  0.00     0.001 A 
ENDBRANCH  22  23
ENDBRANCH  19  22
ENDBRANCH   1  18
TORSDOF 6
