REMARK  3 active torsions:
REMARK  status: ('A' for Active; 'I' for Inactive)
REMARK    1  A    between atoms: C5_5  and  N1_9 
REMARK       I    between atoms: N1_9  and  C8_10 
REMARK    2  A    between atoms: C8_10  and  C9_12 
REMARK    3  A    between atoms: C14_19  and  N3_22 
ROOT
ATOM      1  C9  <0> d          -0.134  -6.304  -1.190  0.00  0.00     0.060 A 
ATOM      2  C10 <0> d          -0.137  -7.122  -0.098  0.00  0.00     0.106 A 
ATOM      3  N2  <0> d          -0.235  -8.414  -0.494  0.00  0.00    -0.364 N 
ATOM      4  H1  <0> d          -0.257  -9.176   0.105  0.00  0.00     0.165 HD
ATOM      5  C11 <0> d          -0.300  -8.492  -1.872  0.00  0.00     0.043 A 
ATOM      6  C12 <0> d          -0.246  -7.181  -2.370  0.00  0.00     0.010 A 
ATOM      7  C13 <0> d          -0.299  -6.951  -3.743  0.00  0.00     0.043 A 
ATOM      8  C14 <0> d          -0.409  -8.022  -4.612  0.00  0.00     0.026 A 
ATOM      9  C15 <0> d          -0.466  -9.322  -4.115  0.00  0.00     0.031 A 
ATOM     10  C16 <0> d          -0.405  -9.558  -2.760  0.00  0.00     0.033 A 
ENDROOT
BRANCH   1  11
ATOM     11  C8  <0> d          -0.042  -4.838  -1.189  0.00  0.00     0.258 C 
ATOM     12  N1  <0> d           0.057  -4.170  -0.023  0.00  0.00    -0.322 N 
ATOM     13  H8  <0> d           0.149  -4.659   0.810  0.00  0.00     0.169 HD
ATOM     14  O1  <0> d          -0.055  -4.227  -2.241  0.00  0.00    -0.267 OA
BRANCH  12  15
ATOM     15  C5  <0> d           0.028  -2.772  -0.013  0.00  0.00     0.052 A 
ATOM     16  C4  <0> d          -0.595  -2.081  -1.045  0.00  0.00     0.031 A 
ATOM     17  C3  <0> d          -0.622  -0.701  -1.033  0.00  0.00     0.009 A 
ATOM     18  C2  <0> d          -0.031  -0.005   0.006  0.00  0.00    -0.061 A 
ATOM     19  C1  <0> d          -0.063   1.502   0.016  0.00  0.00     0.048 C 
ATOM     20  C7  <0> d           0.595  -0.688   1.032  0.00  0.00     0.028 A 
ATOM     21  C6  <0> d           0.622  -2.070   1.029  0.00  0.00     0.038 A 
ATOM     22 Br1  <0> d           1.470  -3.004   2.437  0.00  0.00    -0.049 Br
ENDBRANCH  12  15
ENDBRANCH   1  11
BRANCH   8  23
ATOM     23  N3  <0> d          -0.464  -7.799  -5.992  0.00  0.00    -0.399 N 
ATOM     24  H13 <0> d          -0.424  -6.894  -6.338  0.00  0.00     0.156 HD
ATOM     25  H14 <0> d          -0.540  -8.549  -6.602  0.00  0.00     0.156 HD
ENDBRANCH   8  23
TORSDOF 3
