REMARK  9 active torsions:
REMARK  status: ('A' for Active; 'I' for Inactive)
REMARK    1  A    between atoms: C2_2  and  C4_4 
REMARK    2  A    between atoms: C4_4  and  N1_5 
REMARK    3  A    between atoms: N1_5  and  C5_6 
REMARK    4  A    between atoms: N1_5  and  C15_21 
REMARK    5  A    between atoms: C5_6  and  C6_7 
REMARK    6  A    between atoms: C15_21  and  C16_22 
REMARK    7  A    between atoms: C16_22  and  C17_23 
REMARK    8  A    between atoms: C16_22  and  O3_26 
REMARK    9  A    between atoms: C17_23  and  O2_24 
ROOT
ATOM      1  C6  <0> d          -1.602  -1.143   4.252  0.00  0.00     0.134 A 
ATOM      2  N2  <0> d          -2.569  -2.037   4.581  0.00  0.00    -0.309 N 
ATOM      3  H1  <0> d          -2.928  -2.622   3.896  0.00  0.00     0.170 HD
ATOM      4  C7  <0> d          -3.041  -2.127   5.839  0.00  0.00     0.260 A 
ATOM      5  O1  <0> d          -3.909  -2.935   6.120  0.00  0.00    -0.267 OA
ATOM      6  C8  <0> d          -2.502  -1.257   6.841  0.00  0.00     0.075 A 
ATOM      7  C9  <0> d          -2.862  -1.181   8.265  0.00  0.00    -0.026 A 
ATOM      8  C10 <0> d          -2.209  -0.272   9.009  0.00  0.00    -0.008 A 
ATOM      9  S1  <0> d          -1.089   0.526   7.881  0.00  0.00    -0.073 SA
ATOM     10  C11 <0> d          -1.508  -0.369   6.409  0.00  0.00     0.116 A 
ATOM     11  N3  <0> d          -1.089  -0.340   5.146  0.00  0.00    -0.225 NA
ATOM     12  C12 <0> d          -2.662  -0.281  10.444  0.00  0.00     0.047 C 
ATOM     13  C13 <0> d          -4.010  -1.035  10.421  0.00  0.00     0.010 C 
ATOM     14  C14 <0> d          -3.850  -1.922   9.170  0.00  0.00     0.041 C 
ENDROOT
BRANCH   1  15
ATOM     15  C5  <0> d          -1.106  -1.078   2.830  0.00  0.00     0.313 C 
BRANCH  15  16
ATOM     16  N1  <0> d           0.033  -0.154   2.750  0.00  0.00    -0.062 N 
ATOM     17  H28 <0> d          -0.217   0.726   3.175  0.00  0.00     0.280 HD
BRANCH  16  18
ATOM     18  C4  <0> d           0.387   0.065   1.341  0.00  0.00     0.239 C 
BRANCH  18  19
ATOM     19  C2  <0> d          -0.793   0.712   0.613  0.00  0.00     0.003 C 
ATOM     20  C1  <0> d          -1.090   2.077   1.238  0.00  0.00     0.011 C 
ATOM     21  C3  <0> d          -0.443   0.893  -0.865  0.00  0.00     0.011 C 
ENDBRANCH  18  19
ENDBRANCH  16  18
BRANCH  16  22
ATOM     22  C15 <0> d           1.182  -0.732   3.460  0.00  0.00     0.269 C 
BRANCH  22  23
ATOM     23  C16 <0> d           2.303   0.307   3.545  0.00  0.00     0.167 C 
BRANCH  23  24
ATOM     24  C17 <0> d           3.399  -0.202   4.484  0.00  0.00     0.200 C 
BRANCH  24  25
ATOM     25  O2  <0> d           4.388   0.815   4.655  0.00  0.00    -0.393 OA
ATOM     26  C18 <0> d           5.463   0.440   5.519  0.00  0.00     0.201 C 
ENDBRANCH  24  25
ENDBRANCH  23  24
BRANCH  23  27
ATOM     27  O3  <0> d           2.852   0.522   2.244  0.00  0.00    -0.392 OA
ATOM     28  H27 <0> d           3.229  -0.271   1.839  0.00  0.00     0.210 HD
ENDBRANCH  23  27
ENDBRANCH  22  23
ENDBRANCH  16  22
ENDBRANCH  15  16
ENDBRANCH   1  15
TORSDOF 9
