REMARK  5 active torsions:
REMARK  status: ('A' for Active; 'I' for Inactive)
REMARK    1  A    between atoms: C6_6  and  N1_12 
REMARK    2  A    between atoms: C7_7  and  C8_8 
REMARK    3  A    between atoms: C8_8  and  O2_10 
REMARK       I    between atoms: N1_12  and  C10_13 
REMARK    4  A    between atoms: C10_13  and  C11_15 
REMARK    5  A    between atoms: N3_17  and  C15_22 
ROOT
ATOM      1  N1  <0> d           1.140   2.152   0.003  0.00  0.00    -0.321 N 
ATOM      2  C10 <0> d          -0.018   1.463   0.015  0.00  0.00     0.272 C 
ATOM      3  O3  <0> d          -1.080   2.057   0.019  0.00  0.00    -0.266 OA
ATOM      4  H11 <0> d           2.099   1.618   0.070  0.00  0.00     0.169 HD
ENDROOT
BRANCH   2   5
ATOM      5  C11 <0> d           0.002  -0.004   0.018  0.00  0.00     0.123 C 
ATOM      6  C14 <0> d          -1.298  -0.763   0.038  0.00  0.00     0.076 C 
ATOM      7  C13 <0> d          -1.147  -2.054  -0.776  0.00  0.00     0.111 C 
ATOM      8  C12 <0> d           0.124  -2.752  -0.363  0.00  0.00     0.240 C 
ATOM      9  N3  <0> d           1.196  -2.026   0.009  0.00  0.00    -0.232 N 
ATOM     10  O4  <0> d           0.180  -3.964  -0.366  0.00  0.00    -0.272 OA
ATOM     11  N2  <0> d           1.138  -0.628   0.009  0.00  0.00    -0.168 NA
BRANCH   9  12
ATOM     12  C15 <0> d           2.429  -2.704   0.415  0.00  0.00     0.128 C 
ATOM     13  C18 <0> d           2.775  -2.311   1.872  0.00  0.00     0.167 C 
ATOM     14  S1  <0> d           4.613  -2.362   1.878  0.00  0.00     0.146 S 
ATOM     15  C17 <0> d           4.914  -2.764   0.105  0.00  0.00     0.142 C 
ATOM     16  O5  <0> d           5.111  -1.058   2.147  0.00  0.00    -0.228 OA
ATOM     17  O6  <0> d           5.043  -3.454   2.680  0.00  0.00    -0.228 OA
ATOM     18  C16 <0> d           3.573  -2.290  -0.525  0.00  0.00     0.043 C 
ENDBRANCH   9  12
ENDBRANCH   2   5
BRANCH   1  19
ATOM     19  C6  <0> d           1.123   3.540  -0.095  0.00  0.00     0.051 A 
ATOM     20  C5  <0> d           0.107   4.269   0.509  0.00  0.00     0.030 A 
ATOM     21  C4  <0> d           0.095   5.646   0.417  0.00  0.00     0.003 A 
ATOM     22  C3  <0> d           1.086   6.311  -0.288  0.00  0.00     0.008 A 
ATOM     23  C2  <0> d           2.099   5.604  -0.899  0.00  0.00    -0.043 A 
ATOM     24  C1  <0> d           3.174   6.333  -1.663  0.00  0.00     0.049 C 
ATOM     25  C7  <0> d           2.128   4.210  -0.809  0.00  0.00     0.072 A 
BRANCH  25  26
ATOM     26  C8  <0> d           3.208   3.447  -1.460  0.00  0.00     0.295 C 
ATOM     27  O1  <0> d           3.076   3.065  -2.606  0.00  0.00    -0.259 OA
BRANCH  26  28
ATOM     28  O2  <0> d           4.343   3.175  -0.785  0.00  0.00    -0.322 OA
ATOM     29  C9  <0> d           5.364   2.420  -1.490  0.00  0.00     0.213 C 
ENDBRANCH  26  28
ENDBRANCH  25  26
ENDBRANCH   1  19
TORSDOF 5
