REMARK  6 active torsions:
REMARK  status: ('A' for Active; 'I' for Inactive)
REMARK    1  A    between atoms: C4_4  and  C6_8 
REMARK       I    between atoms: C6_8  and  N3_10 
REMARK    2  A    between atoms: N3_10  and  C7_11 
REMARK    3  A    between atoms: C10_16  and  C16_25 
REMARK    4  A    between atoms: C11_17  and  C13_20 
REMARK    5  A    between atoms: C13_20  and  O3_21 
REMARK    6  A    between atoms: O3_21  and  C14_22 
ROOT
ATOM      1  C7  <0> d          -2.280   4.515   0.226  0.00  0.00     0.211 C 
ATOM      2  C8  <0> d          -2.018   5.953  -0.210  0.00  0.00     0.187 C 
ATOM      3  N4  <0> d          -2.031   6.275   1.252  0.00  0.00    -0.293 N 
ATOM      4  C9  <0> d          -2.493   5.066   1.626  0.00  0.00     0.251 C 
ATOM      5  O2  <0> d          -2.912   4.601   2.665  0.00  0.00    -0.271 OA
ATOM      6  C10 <0> d          -1.521   7.436   1.856  0.00  0.00     0.121 C 
ATOM      7  C11 <0> d          -0.631   8.183   1.220  0.00  0.00    -0.013 C 
ATOM      8  C12 <0> d          -0.079   8.001  -0.156  0.00  0.00     0.115 C 
ATOM      9  S1  <0> d          -0.317   6.303  -0.767  0.00  0.00    -0.136 SA
ENDROOT
BRANCH   1  10
ATOM     10  N3  <0> d          -1.109   3.643   0.108  0.00  0.00    -0.340 N 
ATOM     11  C6  <0> d          -1.271   2.310  -0.005  0.00  0.00     0.272 C 
ATOM     12  O1  <0> d          -2.388   1.839  -0.103  0.00  0.00    -0.266 OA
ATOM     13  H9  <0> d          -0.218   4.025   0.113  0.00  0.00     0.163 HD
BRANCH  11  14
ATOM     14  C4  <0> d          -0.097   1.425  -0.012  0.00  0.00     0.143 A 
ATOM     15  C3  <0> d           0.504   0.832   1.087  0.00  0.00     0.093 A 
ATOM     16  C2  <0> d           1.568   0.087   0.569  0.00  0.00     0.075 A 
ATOM     17 Cl1  <0> d           0.037   0.982   2.752  0.00  0.00    -0.079 Cl
ATOM     18  C1  <0> d           2.538  -0.747   1.365  0.00  0.00     0.074 C 
ATOM     19  N2  <0> d           1.573   0.244  -0.730  0.00  0.00    -0.176 NA
ATOM     20  N1  <0> d           0.618   1.017  -1.104  0.00  0.00    -0.267 N 
ATOM     21  C5  <0> d           0.336   1.401  -2.489  0.00  0.00     0.180 C 
ENDBRANCH  11  14
ENDBRANCH   1  10
BRANCH   6  22
ATOM     22  C16 <0> d          -1.978   7.825   3.203  0.00  0.00     0.227 C 
ATOM     23  O5  <0> d          -2.710   7.088   3.832  0.00  0.00    -0.643 OA
ATOM     24  O6  <0> d          -1.582   8.998   3.736  0.00  0.00    -0.643 OA
ENDBRANCH   6  22
BRANCH   7  25
ATOM     25  C13 <0> d          -0.107   9.371   1.984  0.00  0.00     0.216 C 
BRANCH  25  26
ATOM     26  O3  <0> d           0.938  10.020   1.213  0.00  0.00    -0.317 OA
BRANCH  26  27
ATOM     27  C14 <0> d           1.584  11.040   1.799  0.00  0.00     0.255 C 
ATOM     28  O4  <0> d           1.351  11.322   2.951  0.00  0.00    -0.266 OA
ATOM     29  C15 <0> d           2.601  11.835   1.021  0.00  0.00     0.126 C 
ENDBRANCH  26  27
ENDBRANCH  25  26
ENDBRANCH   7  25
TORSDOF 6
