REMARK  6 active torsions:
REMARK  status: ('A' for Active; 'I' for Inactive)
REMARK    1  A    between atoms: C2_2  and  C4_4 
REMARK    2  A    between atoms: C5_6  and  C7_9 
REMARK    3  A    between atoms: C7_9  and  S2_10 
REMARK    4  A    between atoms: S2_10  and  C8_13 
REMARK    5  A    between atoms: C8_13  and  C9_14 
REMARK    6  A    between atoms: C9_14  and  N2_15 
ROOT
ATOM      1  S2  <0> d          -3.700  -4.285  -1.296  0.00  0.00     0.151 S 
ATOM      2  O1  <0> d          -2.316  -4.586  -1.405  0.00  0.00    -0.227 OA
ATOM      3  O2  <0> d          -4.367  -4.534  -0.066  0.00  0.00    -0.227 OA
ENDROOT
BRANCH   1   4
ATOM      4  C7  <0> d          -3.944  -2.542  -1.738  0.00  0.00     0.199 C 
BRANCH   4   5
ATOM      5  C5  <0> d          -3.259  -1.665  -0.722  0.00  0.00     0.056 A 
ATOM      6  N1  <0> d          -2.004  -1.288  -0.872  0.00  0.00    -0.249 NA
ATOM      7  C4  <0> d          -1.412  -0.526   0.013  0.00  0.00     0.078 A 
ATOM      8  S1  <0> d          -2.610  -0.276   1.168  0.00  0.00    -0.084 SA
ATOM      9  C6  <0> d          -3.904  -1.227   0.389  0.00  0.00     0.079 A 
BRANCH   7  10
ATOM     10  C2  <0> d           0.002  -0.004   0.002  0.00  0.00     0.037 C 
ATOM     11  C1  <0> d          -0.019   1.526   0.010  0.00  0.00     0.016 C 
ATOM     12  C3  <0> d           0.742  -0.511   1.242  0.00  0.00     0.016 C 
ENDBRANCH   7  10
ENDBRANCH   4   5
ENDBRANCH   1   4
BRANCH   1  13
ATOM     13  C8  <0> d          -4.584  -5.161  -2.615  0.00  0.00     0.161 C 
BRANCH  13  14
ATOM     14  C9  <0> d          -4.474  -6.670  -2.388  0.00  0.00     0.152 C 
BRANCH  14  15
ATOM     15  N2  <0> d          -5.189  -7.377  -3.454  0.00  0.00    -0.268 N 
ATOM     16  C12 <0> d          -4.628  -7.764  -4.606  0.00  0.00     0.325 A 
ATOM     17  N3  <0> d          -5.498  -8.397  -5.413  0.00  0.00    -0.334 N 
ATOM     18  O4  <0> d          -3.463  -7.568  -4.889  0.00  0.00    -0.247 OA
ATOM     19  C11 <0> d          -6.790  -8.420  -4.705  0.00  0.00     0.227 A 
ATOM     20  H17 <0> d          -5.312  -8.764  -6.292  0.00  0.00     0.164 HD
ATOM     21  C10 <0> d          -6.492  -7.714  -3.397  0.00  0.00     0.245 A 
ATOM     22  O3  <0> d          -7.266  -7.497  -2.489  0.00  0.00    -0.271 OA
ENDBRANCH  14  15
ENDBRANCH  13  14
ENDBRANCH   1  13
TORSDOF 6
