REMARK  6 active torsions:
REMARK  status: ('A' for Active; 'I' for Inactive)
REMARK    1  A    between atoms: C3_4  and  S1_11 
REMARK    2  A    between atoms: S1_11  and  N3_14 
REMARK    3  A    between atoms: N3_14  and  C7_15 
REMARK    4  A    between atoms: C7_15  and  C8_16 
REMARK    5  A    between atoms: C11_19  and  C14_22 
REMARK    6  A    between atoms: C14_22  and  O5_23 
ROOT
ATOM      1  S1  <0> d          -2.323   3.130   7.432  0.00  0.00     0.265 S 
ATOM      2  O3  <0> d          -1.511   2.437   8.370  0.00  0.00    -0.200 OA
ATOM      3  O4  <0> d          -2.260   4.540   7.265  0.00  0.00    -0.200 OA
ENDROOT
BRANCH   1   4
ATOM      4  C3  <0> d          -3.995   2.746   7.833  0.00  0.00     0.163 A 
ATOM      5  C2  <0> d          -4.953   3.695   7.757  0.00  0.00     0.126 A 
ATOM      6  N1  <0> d          -6.247   3.378   8.067  0.00  0.00    -0.312 N 
ATOM      7  C1  <0> d          -7.287   4.406   7.979  0.00  0.00     0.160 C 
ATOM      8  C5  <0> d          -6.573   2.132   8.458  0.00  0.00     0.330 A 
ATOM      9  N2  <0> d          -5.638   1.169   8.548  0.00  0.00    -0.269 N 
ATOM     10  O2  <0> d          -7.729   1.873   8.733  0.00  0.00    -0.246 OA
ATOM     11  C4  <0> d          -4.352   1.439   8.246  0.00  0.00     0.276 A 
ATOM     12  C6  <0> d          -6.018  -0.180   8.976  0.00  0.00     0.164 C 
ATOM     13  O1  <0> d          -3.505   0.568   8.328  0.00  0.00    -0.266 OA
ENDBRANCH   1   4
BRANCH   1  14
ATOM     14  N3  <0> d          -2.009   2.463   5.950  0.00  0.00    -0.311 N 
ATOM     15  H8  <0> d          -1.395   1.552   5.889  0.00  0.00     0.172 HD
BRANCH  14  16
ATOM     16  C7  <0> d          -2.717   2.949   4.763  0.00  0.00     0.170 C 
BRANCH  16  17
ATOM     17  C8  <0> d          -2.012   2.463   3.523  0.00  0.00    -0.040 A 
ATOM     18  C13 <0> d          -1.010   3.227   2.953  0.00  0.00     0.009 A 
ATOM     19  C12 <0> d          -0.360   2.779   1.819  0.00  0.00     0.010 A 
ATOM     20  C11 <0> d          -0.718   1.572   1.248  0.00  0.00    -0.035 A 
ATOM     21  C10 <0> d          -1.719   0.808   1.818  0.00  0.00     0.010 A 
ATOM     22  C9  <0> d          -2.366   1.254   2.955  0.00  0.00     0.009 A 
BRANCH  20  23
ATOM     23  C14 <0> d          -0.013   1.086   0.008  0.00  0.00     0.205 C 
BRANCH  23  24
ATOM     24  O5  <0> d          -0.704   1.559  -1.150  0.00  0.00    -0.391 OA
ATOM     25  C15 <0> d          -0.114   1.152  -2.386  0.00  0.00     0.201 C 
ENDBRANCH  23  24
ENDBRANCH  20  23
ENDBRANCH  16  17
ENDBRANCH  14  16
ENDBRANCH   1  14
TORSDOF 6
