REMARK  7 active torsions:
REMARK  status: ('A' for Active; 'I' for Inactive)
REMARK    1  A    between atoms: C2_2  and  C3_3 
REMARK    2  A    between atoms: C3_3  and  N1_4 
REMARK    3  A    between atoms: N1_4  and  C4_5 
REMARK    4  A    between atoms: N1_4  and  C16_22 
REMARK    5  A    between atoms: C4_5  and  C5_6 
REMARK    6  A    between atoms: C16_22  and  C17_23 
REMARK    7  A    between atoms: C17_23  and  O2_26 
ROOT
ATOM      1  C5  <0> d           3.149  -2.418  -3.386  0.00  0.00     0.134 A 
ATOM      2  N2  <0> d           4.077  -1.898  -4.231  0.00  0.00    -0.309 N 
ATOM      3  H1  <0> d           4.092  -0.941  -4.388  0.00  0.00     0.170 HD
ATOM      4  C6  <0> d           4.976  -2.683  -4.853  0.00  0.00     0.260 A 
ATOM      5  O1  <0> d           5.803  -2.200  -5.607  0.00  0.00    -0.267 OA
ATOM      6  C7  <0> d           4.945  -4.096  -4.613  0.00  0.00     0.075 A 
ATOM      7  C8  <0> d           5.814  -5.131  -5.171  0.00  0.00    -0.026 A 
ATOM      8  C9  <0> d           5.578  -6.402  -4.783  0.00  0.00    -0.008 A 
ATOM      9  S1  <0> d           4.203  -6.296  -3.669  0.00  0.00    -0.073 SA
ATOM     10  C10 <0> d           3.951  -4.540  -3.727  0.00  0.00     0.116 A 
ATOM     11  N3  <0> d           3.099  -3.701  -3.144  0.00  0.00    -0.225 NA
ATOM     12  C11 <0> d           6.321  -7.633  -5.206  0.00  0.00     0.051 C 
ATOM     13  C12 <0> d           7.639  -7.200  -5.864  0.00  0.00    -0.014 C 
ATOM     14  C13 <0> d           7.341  -6.093  -6.879  0.00  0.00     0.009 C 
ATOM     15  C14 <0> d           6.943  -4.811  -6.147  0.00  0.00     0.041 C 
ATOM     16  C15 <0> d           8.274  -8.396  -6.577  0.00  0.00     0.010 C 
ENDROOT
BRANCH   1  17
ATOM     17  C4  <0> d           2.163  -1.499  -2.713  0.00  0.00     0.313 C 
BRANCH  17  18
ATOM     18  N1  <0> d           1.395  -2.252  -1.712  0.00  0.00    -0.062 N 
ATOM     19  H30 <0> d           1.300  -3.211  -2.013  0.00  0.00     0.280 HD
BRANCH  18  20
ATOM     20  C3  <0> d           0.064  -1.651  -1.562  0.00  0.00     0.235 C 
BRANCH  20  21
ATOM     21  C2  <0> d          -0.793  -2.530  -0.649  0.00  0.00     0.023 C 
ATOM     22  C1  <0> d          -2.136  -1.844  -0.394  0.00  0.00     0.007 C 
ENDBRANCH  20  21
ENDBRANCH  18  20
BRANCH  18  23
ATOM     23  C16 <0> d           2.099  -2.212  -0.423  0.00  0.00     0.272 C 
BRANCH  23  24
ATOM     24  C17 <0> d           2.351  -3.640   0.065  0.00  0.00     0.074 C 
ATOM     25  C18 <0> d           3.123  -3.599   1.385  0.00  0.00     0.047 C 
ATOM     26  C19 <0> d           1.013  -4.350   0.278  0.00  0.00     0.047 C 
BRANCH  24  27
ATOM     27  O2  <0> d           3.116  -4.349  -0.912  0.00  0.00    -0.389 OA
ATOM     28  H29 <0> d           3.266  -5.279  -0.695  0.00  0.00     0.210 HD
ENDBRANCH  24  27
ENDBRANCH  23  24
ENDBRANCH  18  23
ENDBRANCH  17  18
ENDBRANCH   1  17
TORSDOF 7
