REMARK  7 active torsions:
REMARK  status: ('A' for Active; 'I' for Inactive)
REMARK    1  A    between atoms: C7_7  and  S1_31 
REMARK    2  A    between atoms: C9_9  and  N2_12 
REMARK    3  A    between atoms: C10_10  and  N1_11 
REMARK    4  A    between atoms: N2_12  and  N3_13 
REMARK    5  A    between atoms: N3_13  and  C11_14 
REMARK    6  A    between atoms: C15_18  and  C17_20 
REMARK    7  A    between atoms: C18_21  and  C19_22 
ROOT
ATOM      1  C11 <0> d           5.746  -3.218   0.341  0.00  0.00     0.080 A 
ATOM      2  C12 <0> d           6.879  -2.760   1.020  0.00  0.00     0.033 A 
ATOM      3  C13 <0> d           7.896  -3.636   1.339  0.00  0.00     0.003 A 
ATOM      4  C14 <0> d           7.803  -4.970   0.990  0.00  0.00     0.011 A 
ATOM      5  C15 <0> d           6.678  -5.440   0.310  0.00  0.00    -0.034 A 
ATOM      6  C16 <0> d           5.644  -4.564  -0.010  0.00  0.00     0.044 A 
ENDROOT
BRANCH   1   7
ATOM      7  N3  <0> d           4.738  -2.349   0.025  0.00  0.00    -0.150 NA
BRANCH   7   8
ATOM      8  N2  <0> d           4.834  -1.104   0.351  0.00  0.00    -0.148 NA
BRANCH   8   9
ATOM      9  C9  <0> d           3.831  -0.240   0.037  0.00  0.00     0.107 A 
ATOM     10  C8  <0> d           2.690  -0.707  -0.642  0.00  0.00     0.063 A 
ATOM     11  C7  <0> d           1.677   0.135  -0.965  0.00  0.00     0.094 A 
ATOM     12  C5  <0> d           1.752   1.500  -0.624  0.00  0.00     0.001 A 
ATOM     13  C4  <0> d           2.890   1.993   0.060  0.00  0.00     0.004 A 
ATOM     14  C6  <0> d           0.711   2.384  -0.951  0.00  0.00     0.014 A 
ATOM     15  C3  <0> d           2.957   3.354   0.397  0.00  0.00     0.014 A 
ATOM     16  C10 <0> d           3.938   1.108   0.391  0.00  0.00     0.068 A 
ATOM     17  C2  <0> d           1.928   4.183   0.064  0.00  0.00     0.001 A 
ATOM     18  C1  <0> d           0.808   3.699  -0.608  0.00  0.00     0.001 A 
BRANCH  11  19
ATOM     19  S1  <0> d           0.262  -0.480  -1.815  0.00  0.00     0.138 S 
ATOM     20  O1  <0> d           0.464  -0.202  -3.229  0.00  0.00    -0.591 OA
ATOM     21  O2  <0> d           0.196  -1.909  -1.546  0.00  0.00    -0.591 OA
ATOM     22  O3  <0> d          -0.892   0.227  -1.282  0.00  0.00    -0.591 OA
ENDBRANCH  11  19
BRANCH  16  23
ATOM     23  N1  <0> d           5.060   1.570   1.059  0.00  0.00    -0.396 N 
ATOM     24  H6  <0> d           5.129   2.506   1.302  0.00  0.00     0.156 HD
ATOM     25  H7  <0> d           5.777   0.957   1.284  0.00  0.00     0.156 HD
ENDBRANCH  16  23
ENDBRANCH   8   9
ENDBRANCH   7   8
ENDBRANCH   1   7
BRANCH   5  26
ATOM     26  C17 <0> d           6.581  -6.868  -0.063  0.00  0.00     0.011 C 
ATOM     27  C18 <0> d           7.659  -7.518  -0.479  0.00  0.00     0.020 C 
BRANCH  27  28
ATOM     28  C19 <0> d           8.937  -6.766  -0.746  0.00  0.00     0.206 A 
ATOM     29  N5  <0> d           9.967  -7.162   0.223  0.00  0.00    -0.364 N 
ATOM     30  C25 <0> d          10.957  -7.675  -0.448  0.00  0.00     0.056 A 
ATOM     31  H20 <0> d           9.918  -7.061   1.187  0.00  0.00     0.162 HD
ATOM     32  C20 <0> d          10.637  -7.646  -1.901  0.00  0.00     0.056 A 
ATOM     33  C24 <0> d          12.252  -8.241  -0.043  0.00  0.00     0.031 A 
ATOM     34  N4  <0> d           9.460  -7.116  -2.072  0.00  0.00    -0.364 N 
ATOM     35  C21 <0> d          11.636  -8.183  -2.835  0.00  0.00     0.031 A 
ATOM     36  H19 <0> d           9.011  -6.978  -2.921  0.00  0.00     0.162 HD
ATOM     37  C22 <0> d          12.794  -8.679  -2.356  0.00  0.00     0.002 A 
ATOM     38  C23 <0> d          13.097  -8.707  -0.983  0.00  0.00     0.002 A 
ENDBRANCH  27  28
ENDBRANCH   5  26
TORSDOF 7
