REMARK  5 active torsions:
REMARK  status: ('A' for Active; 'I' for Inactive)
REMARK    1  A    between atoms: C2_2  and  O1_3 
REMARK    2  A    between atoms: O1_3  and  C3_4 
REMARK    3  A    between atoms: C3_4  and  C4_6 
REMARK    4  A    between atoms: C5_7  and  N2_24 
REMARK    5  A    between atoms: C9_11  and  N1_14 
ROOT
ATOM      1  C4  <0> d          -1.115   7.405   0.897  0.00  0.00     0.109 A 
ATOM      2  C5  <0> d          -1.067   6.059   1.197  0.00  0.00     0.063 A 
ATOM      3  C6  <0> d          -1.187   5.105   0.106  0.00  0.00     0.033 A 
ATOM      4  C7  <0> d          -1.164   3.683   0.173  0.00  0.00    -0.033 A 
ATOM      5  C8  <0> d          -1.297   2.962  -0.966  0.00  0.00    -0.012 A 
ATOM      6  C9  <0> d          -1.448   3.621  -2.197  0.00  0.00     0.090 A 
ATOM      7  C10 <0> d          -1.344   5.676  -1.175  0.00  0.00     0.089 A 
ATOM      8  S1  <0> d          -1.325   7.425  -0.873  0.00  0.00    -0.063 SA
ATOM      9  C15 <0> d          -1.292   1.455  -0.977  0.00  0.00     0.042 C 
ATOM     10  C16 <0> d          -0.694   0.911   0.319  0.00  0.00     0.005 C 
ATOM     11  C17 <0> d          -1.401   1.586   1.500  0.00  0.00     0.005 C 
ATOM     12  C18 <0> d          -0.987   3.057   1.529  0.00  0.00     0.040 C 
ATOM     13  N3  <0> d          -1.473   4.975  -2.327  0.00  0.00    -0.340 N 
ATOM     14  H24 <0> d          -1.583   5.436  -3.239  0.00  0.00     0.167 HD
ENDROOT
BRANCH   6  15
ATOM     15  N1  <0> d          -1.579   2.878  -3.361  0.00  0.00    -0.265 NA
ATOM     16  C14 <0> d          -2.879   3.127  -4.001  0.00  0.00     0.123 C 
ATOM     17  C13 <0> d          -3.006   2.245  -5.245  0.00  0.00     0.182 C 
ATOM     18  O3  <0> d          -1.909   2.508  -6.125  0.00  0.00    -0.389 OA
ATOM     19  C12 <0> d          -0.628   2.275  -5.534  0.00  0.00     0.182 C 
ATOM     20  C11 <0> d          -0.477   3.158  -4.292  0.00  0.00     0.123 C 
ENDBRANCH   6  15
BRANCH   2  21
ATOM     21  N2  <0> d          -0.908   5.627   2.505  0.00  0.00    -0.397 N 
ATOM     22  H22 <0> d          -0.480   4.776   2.686  0.00  0.00     0.156 HD
ATOM     23  H23 <0> d          -1.226   6.176   3.239  0.00  0.00     0.156 HD
ENDBRANCH   2  21
BRANCH   1  24
ATOM     24  C3  <0> d          -1.021   8.504   1.780  0.00  0.00     0.302 C 
ATOM     25  O2  <0> d          -0.877   8.314   2.974  0.00  0.00    -0.259 OA
BRANCH  24  26
ATOM     26  O1  <0> d          -1.090   9.764   1.301  0.00  0.00    -0.317 OA
BRANCH  26  27
ATOM     27  C2  <0> d          -0.987  10.826   2.251  0.00  0.00     0.174 C 
ATOM     28  C1  <0> d          -1.086  12.170   1.526  0.00  0.00     0.034 C 
ENDBRANCH  26  27
ENDBRANCH  24  26
ENDBRANCH   1  24
TORSDOF 5
