REMARK  3 active torsions:
REMARK  status: ('A' for Active; 'I' for Inactive)
REMARK    1  A    between atoms: C4_4  and  N3_15 
REMARK    2  A    between atoms: C8_9  and  N2_11 
REMARK       I    between atoms: N2_11  and  C9_12 
REMARK       I    between atoms: N3_15  and  C11_16 
REMARK       I    between atoms: C11_16  and  N4_18 
REMARK    3  A    between atoms: N4_18  and  C12_19 
ROOT
ATOM      1  C1  <0> d          -5.219   0.083  -0.032  0.00  0.00     0.050 C 
ATOM      2  C2  <0> d          -4.880   1.552  -0.012  0.00  0.00    -0.030 A 
ATOM      3  C3  <0> d          -5.888   2.479   0.005  0.00  0.00     0.038 A 
ATOM      4  C4  <0> d          -5.618   3.845   0.024  0.00  0.00     0.038 A 
ATOM      5  C5  <0> d          -4.298   4.274   0.025  0.00  0.00     0.051 A 
ATOM      6  C6  <0> d          -3.286   3.348   0.007  0.00  0.00     0.040 A 
ATOM      7  C7  <0> d          -3.525   1.955  -0.012  0.00  0.00     0.083 A 
ATOM      8  N1  <0> d          -2.422   1.173  -0.033  0.00  0.00    -0.223 NA
ATOM      9  C8  <0> d          -1.207   1.667  -0.026  0.00  0.00     0.174 A 
ATOM     10  S1  <0> d          -1.511   3.428   0.001  0.00  0.00    -0.050 SA
ENDROOT
BRANCH   4  11
ATOM     11  N3  <0> d          -6.667   4.775   0.042  0.00  0.00    -0.309 N 
ATOM     12  C11 <0> d          -6.533   5.927   0.729  0.00  0.00     0.325 C 
ATOM     13  O2  <0> d          -5.474   6.199   1.260  0.00  0.00    -0.247 OA
ATOM     14  N4  <0> d          -7.574   6.777   0.826  0.00  0.00    -0.307 N 
ATOM     15  H11 <0> d          -8.442   6.525   0.474  0.00  0.00     0.170 HD
ATOM     16  H10 <0> d          -7.488   4.589  -0.439  0.00  0.00     0.170 HD
BRANCH  14  17
ATOM     17  C12 <0> d          -7.403   8.026   1.436  0.00  0.00     0.053 A 
ATOM     18  C17 <0> d          -8.490   8.676   2.007  0.00  0.00     0.037 A 
ATOM     19  C16 <0> d          -8.318   9.908   2.609  0.00  0.00     0.021 A 
ATOM     20 Br1  <0> d         -10.203   7.876   1.962  0.00  0.00    -0.049 Br
ATOM     21  C15 <0> d          -7.065  10.493   2.643  0.00  0.00     0.002 A 
ATOM     22  C14 <0> d          -5.982   9.848   2.076  0.00  0.00     0.002 A 
ATOM     23  C13 <0> d          -6.146   8.614   1.477  0.00  0.00     0.031 A 
ENDBRANCH  14  17
ENDBRANCH   4  11
BRANCH   9  24
ATOM     24  N2  <0> d           0.004   0.994  -0.042  0.00  0.00    -0.306 N 
ATOM     25  C9  <0> d           1.160   1.687  -0.042  0.00  0.00     0.219 C 
ATOM     26  O1  <0> d           1.140   2.899  -0.024  0.00  0.00    -0.274 OA
ATOM     27  C10 <0> d           2.478   0.955  -0.065  0.00  0.00     0.117 C 
ATOM     28  H6  <0> d           0.021   0.024  -0.056  0.00  0.00     0.171 HD
ENDBRANCH   9  24
TORSDOF 3
