REMARK  5 active torsions:
REMARK  status: ('A' for Active; 'I' for Inactive)
REMARK    1  A    between atoms: C4_4  and  N5_30 
REMARK    2  A    between atoms: C7_7  and  C8_8 
REMARK    3  A    between atoms: C12_15  and  C20_24 
REMARK    4  A    between atoms: C13_16  and  C14_17 
REMARK    5  A    between atoms: C18_21  and  O1_23 
ROOT
ATOM      1  C8  <0> d           0.044   0.344   2.518  0.00  0.00     0.072 A 
ATOM      2  C9  <0> d           1.123   1.026   3.047  0.00  0.00     0.052 A 
ATOM      3  C10 <0> d           1.020   1.572   4.328  0.00  0.00     0.121 A 
ATOM      4  N1  <0> d          -0.089   1.438   5.020  0.00  0.00    -0.241 NA
ATOM      5  C11 <0> d          -1.143   0.782   4.525  0.00  0.00     0.164 A 
ATOM      6  N2  <0> d          -1.100   0.231   3.271  0.00  0.00    -0.213 N 
ATOM      7  N3  <0> d          -2.334  -0.379   3.019  0.00  0.00    -0.164 NA
ATOM      8  C12 <0> d          -3.120  -0.213   4.066  0.00  0.00     0.102 A 
ATOM      9  C13 <0> d          -2.412   0.506   5.049  0.00  0.00     0.053 A 
ENDROOT
BRANCH   1  10
ATOM     10  C7  <0> d           0.117  -0.246   1.167  0.00  0.00    -0.001 A 
ATOM     11  C2  <0> d           0.046   0.576   0.039  0.00  0.00    -0.047 A 
ATOM     12  C1  <0> d          -0.105   2.066   0.200  0.00  0.00     0.049 C 
ATOM     13  C3  <0> d           0.120   0.022  -1.220  0.00  0.00     0.037 A 
ATOM     14  C4  <0> d           0.259  -1.354  -1.369  0.00  0.00     0.031 A 
ATOM     15  C5  <0> d           0.325  -2.176  -0.248  0.00  0.00     0.030 A 
ATOM     16  C6  <0> d           0.252  -1.629   1.014  0.00  0.00     0.016 A 
BRANCH  14  17
ATOM     17  N5  <0> d           0.333  -1.911  -2.644  0.00  0.00    -0.372 N 
ATOM     18  C28 <0> d           0.482  -3.357  -2.984  0.00  0.00     0.112 C 
ATOM     19  C27 <0> d          -0.406  -3.451  -4.280  0.00  0.00     0.061 C 
ATOM     20  C29 <0> d           1.900  -3.452  -3.628  0.00  0.00     0.257 C 
ATOM     21  C26 <0> d           0.359  -2.300  -5.026  0.00  0.00     0.205 C 
ATOM     22  C25 <0> d           0.286  -1.188  -3.933  0.00  0.00     0.156 C 
ATOM     23  N6  <0> d           1.775  -2.781  -4.961  0.00  0.00    -0.067 N 
ATOM     24  H26 <0> d           1.951  -3.443  -5.702  0.00  0.00     0.277 HD
ATOM     25  H27 <0> d           2.411  -2.001  -5.032  0.00  0.00     0.277 HD
ENDBRANCH  14  17
ENDBRANCH   1  10
BRANCH   9  26
ATOM     26  C14 <0> d          -2.919   0.909   6.379  0.00  0.00    -0.017 A 
ATOM     27  C19 <0> d          -3.120   2.258   6.672  0.00  0.00     0.049 A 
ATOM     28  C18 <0> d          -3.601   2.627   7.917  0.00  0.00     0.066 A 
ATOM     29  C17 <0> d          -3.871   1.658   8.873  0.00  0.00     0.036 A 
ATOM     30  C16 <0> d          -3.667   0.321   8.586  0.00  0.00     0.004 A 
ATOM     31  C15 <0> d          -3.194  -0.059   7.347  0.00  0.00     0.012 A 
BRANCH  28  32
ATOM     32  O1  <0> d          -3.804   3.940   8.205  0.00  0.00    -0.361 OA
ATOM     33  H15 <0> d          -3.033   4.383   8.586  0.00  0.00     0.217 HD
ENDBRANCH  28  32
ENDBRANCH   9  26
BRANCH   8  34
ATOM     34  C20 <0> d          -4.511  -0.712   4.192  0.00  0.00    -0.002 A 
ATOM     35  C24 <0> d          -4.863  -1.982   3.727  0.00  0.00     0.033 A 
ATOM     36  C23 <0> d          -6.167  -2.409   3.869  0.00  0.00     0.117 A 
ATOM     37  N4  <0> d          -7.077  -1.632   4.425  0.00  0.00    -0.273 NA
ATOM     38  C22 <0> d          -6.788  -0.425   4.872  0.00  0.00     0.117 A 
ATOM     39  C21 <0> d          -5.506   0.078   4.774  0.00  0.00     0.033 A 
ENDBRANCH   8  34
TORSDOF 5
