REMARK  5 active torsions:
REMARK  status: ('A' for Active; 'I' for Inactive)
REMARK    1  A    between atoms: C13_14  and  N3_21 
REMARK    2  A    between atoms: N1_15  and  C15_18 
REMARK    3  A    between atoms: C15_18  and  C16_19 
REMARK    4  A    between atoms: C16_19  and  O2_20 
REMARK    5  A    between atoms: C17_22  and  C18_23 
ROOT
ATOM      1  C1  <0> d          -0.016   1.357   0.009  0.00  0.00     0.001 A 
ATOM      2  C2  <0> d           1.169   2.090   0.002  0.00  0.00     0.001 A 
ATOM      3  C3  <0> d           2.379   1.467  -0.013  0.00  0.00     0.015 A 
ATOM      4  C4  <0> d           2.437   0.064  -0.021  0.00  0.00     0.009 A 
ATOM      5  C5  <0> d           1.233  -0.682  -0.013  0.00  0.00    -0.023 A 
ATOM      6  C6  <0> d           0.002  -0.004   0.002  0.00  0.00     0.012 A 
ATOM      7  C7  <0> d           1.293  -2.086  -0.021  0.00  0.00     0.013 A 
ATOM      8  C8  <0> d           2.500  -2.712  -0.036  0.00  0.00     0.012 A 
ATOM      9  C9  <0> d           3.694  -1.989  -0.044  0.00  0.00    -0.008 A 
ATOM     10  C10 <0> d           3.676  -0.614  -0.037  0.00  0.00     0.096 A 
ATOM     11  O1  <0> d           4.823   0.106  -0.046  0.00  0.00    -0.290 OA
ATOM     12  C11 <0> d           5.975  -0.460  -0.459  0.00  0.00     0.182 A 
ATOM     13  C12 <0> d           6.120  -1.837  -0.488  0.00  0.00     0.054 A 
ATOM     14  C13 <0> d           7.329  -2.372  -0.923  0.00  0.00     0.113 A 
ATOM     15  N1  <0> d           8.302  -1.542  -1.294  0.00  0.00    -0.325 N 
ATOM     16  C14 <0> d           8.127  -0.237  -1.252  0.00  0.00     0.214 A 
ATOM     17  N2  <0> d           6.996   0.303  -0.846  0.00  0.00    -0.219 NA
ATOM     18  C17 <0> d           4.999  -2.740  -0.060  0.00  0.00     0.120 C 
ENDROOT
BRANCH  18  19
ATOM     19  C18 <0> d           5.286  -3.271   1.321  0.00  0.00     0.066 A 
ATOM     20  O3  <0> d           5.434  -2.530   2.431  0.00  0.00    -0.326 OA
ATOM     21  C21 <0> d           5.676  -3.336   3.478  0.00  0.00     0.142 A 
ATOM     22  C20 <0> d           5.695  -4.608   3.040  0.00  0.00     0.027 A 
ATOM     23  C19 <0> d           5.444  -4.566   1.649  0.00  0.00     0.035 A 
ENDBRANCH  18  19
BRANCH  14  24
ATOM     24  N3  <0> d           7.517  -3.745  -0.969  0.00  0.00    -0.385 N 
ATOM     25  H14 <0> d           6.803  -4.342  -0.696  0.00  0.00     0.157 HD
ATOM     26  H15 <0> d           8.363  -4.108  -1.273  0.00  0.00     0.157 HD
ENDBRANCH  14  24
BRANCH  15  27
ATOM     27  C15 <0> d           9.582  -2.086  -1.755  0.00  0.00     0.157 C 
BRANCH  27  28
ATOM     28  C16 <0> d           9.489  -2.415  -3.246  0.00  0.00     0.184 C 
BRANCH  28  29
ATOM     29  O2  <0> d          10.738  -2.945  -3.695  0.00  0.00    -0.399 OA
ATOM     30  H13 <0> d          10.752  -3.177  -4.634  0.00  0.00     0.209 HD
ENDBRANCH  28  29
ENDBRANCH  27  28
ENDBRANCH  15  27
TORSDOF 5
