REMARK  5 active torsions:
REMARK  status: ('A' for Active; 'I' for Inactive)
REMARK    1  A    between atoms: N1_7  and  C6_8 
REMARK    2  A    between atoms: C6_8  and  C7_9 
REMARK    3  A    between atoms: C7_9  and  C8_10 
REMARK    4  A    between atoms: C8_10  and  C10_12 
REMARK    5  A    between atoms: C8_10  and  N2_15 
ROOT
ATOM      1  C7  <0> d           2.802  -0.463   2.787  0.00  0.00     0.080 C 
ENDROOT
BRANCH   1   2
ATOM      2  C6  <0> d           2.038  -0.390   1.464  0.00  0.00     0.276 C 
BRANCH   2   3
ATOM      3  N1  <0> d           0.767  -1.115   1.593  0.00  0.00     0.101 N 
ATOM      4  C2  <0> d          -0.099  -0.871   0.430  0.00  0.00     0.173 C 
ATOM      5  C1  <0> d          -0.351   0.631   0.287  0.00  0.00     0.051 C 
ATOM      6  C3  <0> d          -1.433  -1.596   0.632  0.00  0.00     0.208 C 
ATOM      7  C12 <0> d           0.583  -1.397  -0.835  0.00  0.00     0.051 C 
ATOM      8  O1  <0> d          -1.185  -2.989   0.840  0.00  0.00    -0.387 OA
ATOM      9  C4  <0> d          -0.346  -3.263   1.965  0.00  0.00     0.198 C 
ATOM     10  C5  <0> d           0.998  -2.555   1.776  0.00  0.00     0.299 C 
ENDBRANCH   2   3
ENDBRANCH   1   2
BRANCH   1  11
ATOM     11  C8  <0> d           4.126   0.293   2.654  0.00  0.00     0.210 C 
ATOM     12  C9  <0> d           3.845   1.756   2.307  0.00  0.00     0.058 C 
BRANCH  11  13
ATOM     13  C10 <0> d           4.953  -0.332   1.560  0.00  0.00     0.210 C 
ATOM     14  O2  <0> d           4.583  -0.263   0.401  0.00  0.00    -0.646 OA
ATOM     15  O3  <0> d           5.992  -0.908   1.835  0.00  0.00    -0.646 OA
ENDBRANCH  11  13
BRANCH  11  16
ATOM     16  N2  <0> d           4.860   0.223   3.924  0.00  0.00    -0.060 N 
ATOM     17  C11 <0> d           4.010   0.728   5.010  0.00  0.00     0.268 C 
ATOM     18  H17 <0> d           5.114  -0.735   4.114  0.00  0.00     0.278 HD
ATOM     19  H24 <0> d           5.695   0.786   3.861  0.00  0.00     0.278 HD
ENDBRANCH  11  16
ENDBRANCH   1  11
TORSDOF 5
