REMARK  2 active torsions:
REMARK  status: ('A' for Active; 'I' for Inactive)
REMARK    1  A    between atoms: C4_4  and  C15_21 
REMARK    2  A    between atoms: N2_10  and  C8_12 
ROOT
ATOM      1  C1  <0> d          -0.457   1.365   0.031  0.00  0.00     0.069 C 
ATOM      2  C2  <0> d          -0.265  -0.126  -0.068  0.00  0.00     0.023 C 
ATOM      3  C3  <0> d          -1.232  -0.997  -0.013  0.00  0.00    -0.009 C 
ATOM      4  C4  <0> d          -2.695  -0.836   0.319  0.00  0.00     0.065 C 
ATOM      5  C5  <0> d          -2.940  -1.667   1.587  0.00  0.00     0.116 C 
ATOM      6  C6  <0> d          -2.154  -2.938   1.581  0.00  0.00     0.220 C 
ATOM      7  O1  <0> d          -2.543  -3.812   2.326  0.00  0.00    -0.274 OA
ATOM      8  N1  <0> d          -1.073  -3.222   0.853  0.00  0.00    -0.339 N 
ATOM      9  C7  <0> d          -0.617  -2.369  -0.237  0.00  0.00     0.215 C 
ATOM     10  N2  <0> d           0.827  -2.111  -0.216  0.00  0.00    -0.163 NA
ATOM     11  N3  <0> d           0.962  -0.748  -0.236  0.00  0.00    -0.318 N 
ATOM     12  H8  <0> d          -0.572  -4.027   1.056  0.00  0.00     0.164 HD
ATOM     13  H9  <0> d           1.804  -0.280  -0.350  0.00  0.00     0.181 HD
ENDROOT
BRANCH  10  14
ATOM     14  C8  <0> d           1.447  -2.689   0.984  0.00  0.00     0.284 A 
ATOM     15  N5  <0> d           2.901  -2.484   0.948  0.00  0.00    -0.353 N 
ATOM     16  C14 <0> d           3.220  -1.770   1.988  0.00  0.00     0.057 A 
ATOM     17  H19 <0> d           3.511  -2.821   0.274  0.00  0.00     0.163 HD
ATOM     18  C9  <0> d           1.992  -1.462   2.771  0.00  0.00     0.057 A 
ATOM     19  C13 <0> d           4.500  -1.249   2.488  0.00  0.00     0.031 A 
ATOM     20  N4  <0> d           0.961  -1.997   2.185  0.00  0.00    -0.353 N 
ATOM     21  C10 <0> d           2.142  -0.658   3.992  0.00  0.00     0.031 A 
ATOM     22  H18 <0> d           0.040  -1.949   2.486  0.00  0.00     0.163 HD
ATOM     23  C11 <0> d           3.365  -0.230   4.362  0.00  0.00     0.002 A 
ATOM     24  C12 <0> d           4.526  -0.521   3.622  0.00  0.00     0.002 A 
ENDBRANCH  10  14
BRANCH   4  25
ATOM     25  C15 <0> d          -3.011   0.614   0.578  0.00  0.00    -0.009 A 
ATOM     26  C20 <0> d          -2.604   1.211   1.759  0.00  0.00     0.123 A 
ATOM     27  C19 <0> d          -2.890   2.546   1.994  0.00  0.00     0.044 A 
ATOM     28  F1  <0> d          -1.924   0.494   2.679  0.00  0.00    -0.206 F 
ATOM     29  C18 <0> d          -3.591   3.277   1.054  0.00  0.00     0.022 A 
ATOM     30  C17 <0> d          -4.002   2.679  -0.123  0.00  0.00     0.011 A 
ATOM     31  C16 <0> d          -3.712   1.347  -0.361  0.00  0.00     0.030 A 
ATOM     32 Br1  <0> d          -4.961   3.681  -1.409  0.00  0.00    -0.051 Br
ENDBRANCH   4  25
TORSDOF 2
