REMARK  6 active torsions:
REMARK  status: ('A' for Active; 'I' for Inactive)
REMARK    1  A    between atoms: O1_2  and  C2_3 
REMARK    2  A    between atoms: C2_3  and  C3_5 
REMARK    3  A    between atoms: C8_10  and  N1_11 
REMARK    4  A    between atoms: N1_11  and  C9_12 
REMARK    5  A    between atoms: C10_13  and  C15_22 
REMARK    6  A    between atoms: C18_25  and  O3_28 
ROOT
ATOM      1  C9  <0> d          -4.921  -2.393   0.319  0.00  0.00     0.144 A 
ATOM      2  C10 <0> d          -6.110  -1.685   0.307  0.00  0.00     0.114 A 
ATOM      3  N2  <0> d          -7.114  -2.555   0.494  0.00  0.00    -0.225 NA
ATOM      4  C11 <0> d          -6.618  -3.773   0.622  0.00  0.00     0.154 A 
ATOM      5  N3  <0> d          -5.245  -3.700   0.511  0.00  0.00    -0.286 N 
ATOM      6  C12 <0> d          -4.506  -4.852   0.607  0.00  0.00     0.140 A 
ATOM      7  C13 <0> d          -5.130  -6.032   0.804  0.00  0.00     0.118 A 
ATOM      8  N4  <0> d          -6.461  -6.104   0.910  0.00  0.00    -0.248 NA
ATOM      9  C14 <0> d          -7.213  -5.032   0.833  0.00  0.00     0.168 A 
ATOM     10 Br1  <0> d          -4.102  -7.614   0.935  0.00  0.00    -0.028 Br
ENDROOT
BRANCH   1  11
ATOM     11  N1  <0> d          -3.640  -1.869   0.158  0.00  0.00    -0.339 N 
ATOM     12  H8  <0> d          -3.525  -0.943  -0.105  0.00  0.00     0.167 HD
BRANCH  11  13
ATOM     13  C8  <0> d          -2.530  -2.673   0.375  0.00  0.00     0.050 A 
ATOM     14  C3  <0> d          -1.583  -2.860  -0.645  0.00  0.00     0.066 A 
ATOM     15  C4  <0> d          -0.466  -3.668  -0.410  0.00  0.00     0.020 A 
ATOM     16  C5  <0> d          -0.304  -4.277   0.814  0.00  0.00     0.001 A 
ATOM     17  C6  <0> d          -1.244  -4.095   1.817  0.00  0.00     0.002 A 
ATOM     18  C7  <0> d          -2.351  -3.301   1.602  0.00  0.00     0.030 A 
BRANCH  14  19
ATOM     19  C2  <0> d          -1.762  -2.205  -1.952  0.00  0.00     0.295 C 
ATOM     20  O2  <0> d          -2.756  -1.540  -2.167  0.00  0.00    -0.259 OA
BRANCH  19  21
ATOM     21  O1  <0> d          -0.823  -2.342  -2.909  0.00  0.00    -0.322 OA
ATOM     22  C1  <0> d          -1.062  -1.679  -4.152  0.00  0.00     0.213 C 
ENDBRANCH  19  21
ENDBRANCH  14  19
ENDBRANCH  11  13
ENDBRANCH   1  11
BRANCH   2  23
ATOM     23  C15 <0> d          -6.250  -0.221   0.121  0.00  0.00    -0.003 A 
ATOM     24  C20 <0> d          -7.345   0.295  -0.571  0.00  0.00     0.017 A 
ATOM     25  C19 <0> d          -7.475   1.658  -0.736  0.00  0.00     0.037 A 
ATOM     26  C18 <0> d          -6.511   2.516  -0.225  0.00  0.00     0.065 A 
ATOM     27  C17 <0> d          -5.416   2.006   0.459  0.00  0.00     0.037 A 
ATOM     28  C16 <0> d          -5.283   0.644   0.634  0.00  0.00     0.017 A 
BRANCH  26  29
ATOM     29  O3  <0> d          -6.640   3.858  -0.394  0.00  0.00    -0.361 OA
ATOM     30  H15 <0> d          -6.227   4.194  -1.202  0.00  0.00     0.217 HD
ENDBRANCH  26  29
ENDBRANCH   2  23
TORSDOF 6
