REMARK  5 active torsions:
REMARK  status: ('A' for Active; 'I' for Inactive)
REMARK    1  A    between atoms: C4_4  and  N5_27 
REMARK    2  A    between atoms: C5_6  and  S1_8 
REMARK    3  A    between atoms: S1_8  and  C6_9 
REMARK    4  A    between atoms: C6_9  and  C8_11 
REMARK    5  A    between atoms: C11_17  and  C14_22 
ROOT
ATOM      1  C8  <0> d           0.216  -5.458   3.460  0.00  0.00     0.122 A 
ATOM      2  N3  <0> d          -0.202  -4.968   4.656  0.00  0.00    -0.310 N 
ATOM      3  H2  <0> d          -0.586  -4.079   4.697  0.00  0.00     0.170 HD
ATOM      4  C9  <0> d          -0.094  -5.694   5.784  0.00  0.00     0.260 A 
ATOM      5  O1  <0> d          -0.475  -5.240   6.850  0.00  0.00    -0.267 OA
ATOM      6  C10 <0> d           0.474  -7.005   5.714  0.00  0.00     0.081 A 
ATOM      7  C11 <0> d           0.694  -7.973   6.783  0.00  0.00     0.023 A 
ATOM      8  C12 <0> d           1.256  -9.170   6.473  0.00  0.00     0.067 A 
ATOM      9  S2  <0> d           1.519  -9.057   4.713  0.00  0.00    -0.080 SA
ATOM     10  C13 <0> d           0.878  -7.426   4.437  0.00  0.00     0.116 A 
ATOM     11  N4  <0> d           0.733  -6.653   3.364  0.00  0.00    -0.226 NA
ENDROOT
BRANCH   1  12
ATOM     12  C6  <0> d           0.075  -4.610   2.222  0.00  0.00     0.121 C 
ATOM     13  C7  <0> d          -1.231  -4.963   1.508  0.00  0.00     0.030 C 
BRANCH  12  14
ATOM     14  S1  <0> d           0.053  -2.857   2.690  0.00  0.00    -0.078 SA
BRANCH  14  15
ATOM     15  C5  <0> d           0.035  -2.005   1.147  0.00  0.00     0.191 A 
ATOM     16  N1  <0> d           0.039  -2.705   0.022  0.00  0.00    -0.206 NA
ATOM     17  C4  <0> d           0.025  -2.091  -1.157  0.00  0.00     0.126 A 
ATOM     18  C3  <0> d           0.006  -0.696  -1.194  0.00  0.00     0.076 A 
ATOM     19  C2  <0> d           0.002  -0.004   0.002  0.00  0.00     0.037 A 
ATOM     20  C1  <0> d          -0.018   1.503   0.010  0.00  0.00     0.070 C 
ATOM     21  N2  <0> d           0.022  -0.679   1.141  0.00  0.00    -0.228 NA
BRANCH  17  22
ATOM     22  N5  <0> d           0.029  -2.826  -2.331  0.00  0.00    -0.384 N 
ATOM     23  H14 <0> d           0.018  -2.371  -3.188  0.00  0.00     0.157 HD
ATOM     24  H15 <0> d           0.042  -3.795  -2.297  0.00  0.00     0.157 HD
ENDBRANCH  17  22
ENDBRANCH  14  15
ENDBRANCH  12  14
ENDBRANCH   1  12
BRANCH   7  25
ATOM     25  C14 <0> d           0.315  -7.658   8.175  0.00  0.00     0.086 A 
ATOM     26  O2  <0> d           0.642  -6.539   8.850  0.00  0.00    -0.322 OA
ATOM     27  C17 <0> d           0.122  -6.595  10.088  0.00  0.00     0.142 A 
ATOM     28  C16 <0> d          -0.538  -7.761  10.226  0.00  0.00     0.027 A 
ATOM     29  C15 <0> d          -0.420  -8.450   9.002  0.00  0.00     0.040 A 
ENDBRANCH   7  25
TORSDOF 5
