REMARK  3 active torsions:
REMARK  status: ('A' for Active; 'I' for Inactive)
REMARK    1  A    between atoms: C3_3  and  C7_9 
REMARK    2  A    between atoms: C7_9  and  C8_10 
REMARK       I    between atoms: C8_10  and  N3_12 
REMARK    3  A    between atoms: N3_12  and  C9_13 
ROOT
ATOM      1  C8  <0> d           1.280   1.451   2.639  0.00  0.00     0.222 C 
ATOM      2  O1  <0> d           1.845   2.152   1.827  0.00  0.00    -0.273 OA
ATOM      3  N3  <0> d          -0.009   1.107   2.452  0.00  0.00    -0.351 N 
ATOM      4  H12 <0> d          -0.521   0.471   3.190  0.00  0.00     0.163 HD
ENDROOT
BRANCH   1   5
ATOM      5  C7  <0> d           2.020   0.965   3.859  0.00  0.00     0.145 C 
BRANCH   5   6
ATOM      6  C3  <0> d           3.434   1.487   3.830  0.00  0.00     0.000 A 
ATOM      7  C2  <0> d           3.877   2.693   4.381  0.00  0.00     0.059 A 
ATOM      8  C1  <0> d           3.023   3.700   5.107  0.00  0.00     0.073 C 
ATOM      9  N2  <0> d           5.162   2.798   4.156  0.00  0.00    -0.177 NA
ATOM     10  N1  <0> d           5.577   1.659   3.454  0.00  0.00    -0.278 N 
ATOM     11  C4  <0> d           4.500   0.868   3.271  0.00  0.00     0.035 A 
ATOM     12  C5  <0> d           6.942   1.375   3.002  0.00  0.00     0.179 C 
ATOM     13  C6  <0> d           4.484  -0.464   2.566  0.00  0.00     0.070 C 
ENDBRANCH   5   6
ENDBRANCH   1   5
BRANCH   3  14
ATOM     14  C9  <0> d          -0.729   1.579   1.267  0.00  0.00     0.043 C 
ATOM     15  C12 <0> d          -0.760   3.127   1.267  0.00  0.00     0.170 C 
ATOM     16  S1  <0> d          -2.336   3.500   2.136  0.00  0.00     0.146 S 
ATOM     17  C11 <0> d          -2.958   1.784   2.390  0.00  0.00     0.143 C 
ATOM     18  O2  <0> d          -3.207   4.179   1.241  0.00  0.00    -0.228 OA
ATOM     19  O3  <0> d          -2.044   4.077   3.401  0.00  0.00    -0.228 OA
ATOM     20  C10 <0> d          -2.164   1.027   1.287  0.00  0.00     0.046 C 
ATOM     21  C13 <0> d          -0.013   1.086   0.008  0.00  0.00     0.039 C 
ENDBRANCH   3  14
TORSDOF 3
