REMARK  5 active torsions:
REMARK  status: ('A' for Active; 'I' for Inactive)
REMARK    1  A    between atoms: C2_2  and  C3_3 
REMARK    2  A    between atoms: C3_3  and  N1_4 
REMARK    3  A    between atoms: N1_4  and  C4_5 
REMARK    4  A    between atoms: N1_4  and  S1_14 
REMARK    5  A    between atoms: S1_14  and  C13_17 
ROOT
ATOM      1  S1  <0> d          -0.017   1.417   0.010  0.00  0.00     0.261 S 
ATOM      2  O1  <0> d           0.002  -0.004   0.002  0.00  0.00    -0.200 OA
ATOM      3  O2  <0> d           1.172   2.195   0.003  0.00  0.00    -0.200 OA
ENDROOT
BRANCH   1   4
ATOM      4  N1  <0> d          -0.872   1.871   1.353  0.00  0.00    -0.294 N 
BRANCH   4   5
ATOM      5  C3  <0> d          -1.846   0.952   1.947  0.00  0.00     0.162 C 
BRANCH   5   6
ATOM      6  C2  <0> d          -1.192   0.181   3.066  0.00  0.00    -0.017 C 
ATOM      7  C1  <0> d          -1.722   0.191   4.264  0.00  0.00     0.008 C 
ENDBRANCH   5   6
ENDBRANCH   4   5
BRANCH   4   8
ATOM      8  C4  <0> d          -0.654   3.192   1.948  0.00  0.00     0.130 C 
ATOM      9  C8  <0> d          -1.962   3.950   2.037  0.00  0.00    -0.028 A 
ATOM     10  C7  <0> d          -2.061   4.567   3.270  0.00  0.00    -0.050 A 
ATOM     11  C9  <0> d          -2.982   4.089   1.112  0.00  0.00     0.010 A 
ATOM     12  C6  <0> d          -0.828   4.265   4.094  0.00  0.00     0.041 C 
ATOM     13  C12 <0> d          -3.182   5.321   3.575  0.00  0.00     0.007 A 
ATOM     14  C5  <0> d          -0.170   3.050   3.407  0.00  0.00     0.035 C 
ATOM     15  C11 <0> d          -4.200   5.458   2.651  0.00  0.00     0.001 A 
ATOM     16  C10 <0> d          -4.100   4.842   1.418  0.00  0.00     0.001 A 
ENDBRANCH   4   8
ENDBRANCH   1   4
BRANCH   1  17
ATOM     17  C13 <0> d          -0.954   1.915  -1.397  0.00  0.00     0.082 A 
ATOM     18  C18 <0> d          -0.757   3.166  -1.945  0.00  0.00     0.057 A 
ATOM     19  C17 <0> d          -1.494   3.563  -3.056  0.00  0.00     0.063 A 
ATOM     20  C16 <0> d          -2.432   2.691  -3.612  0.00  0.00     0.062 A 
ATOM     21  N2  <0> d          -1.290   4.826  -3.603  0.00  0.00    -0.317 N 
ATOM     22  C15 <0> d          -2.621   1.433  -3.050  0.00  0.00     0.033 A 
ATOM     23  N3  <0> d          -3.179   3.069  -4.723  0.00  0.00    -0.317 N 
ATOM     24  C14 <0> d          -1.880   1.048  -1.951  0.00  0.00     0.028 A 
ATOM     25  C20 <0> d          -3.002   4.287  -5.274  0.00  0.00     0.314 A 
ATOM     26  H3  <0> d          -3.915   2.374  -5.154  0.00  0.00     0.169 HD
ATOM     27  C19 <0> d          -2.001   5.219  -4.680  0.00  0.00     0.314 A 
ATOM     28  O4  <0> d          -3.652   4.622  -6.245  0.00  0.00    -0.262 OA
ATOM     29  O3  <0> d          -1.826   6.321  -5.162  0.00  0.00    -0.262 OA
ATOM     30  H2  <0> d          -0.549   5.506  -3.158  0.00  0.00     0.169 HD
ENDBRANCH   1  17
TORSDOF 5
