REMARK  6 active torsions:
REMARK  status: ('A' for Active; 'I' for Inactive)
REMARK    1  A    between atoms: C3_3  and  N3_15 
REMARK    2  A    between atoms: N1_6  and  C6_9 
REMARK       I    between atoms: N3_15  and  C12_16 
REMARK    3  A    between atoms: C12_16  and  C13_18 
REMARK    4  A    between atoms: C17_22  and  N4_24 
REMARK       I    between atoms: N4_24  and  C19_25 
REMARK    5  A    between atoms: C19_25  and  C20_27 
REMARK    6  A    between atoms: C21_28  and  C22_29 
ROOT
ATOM      1  N3  <0> d          -2.533   1.567  -0.164  0.00  0.00    -0.317 N 
ATOM      2  C12 <0> d          -2.783   0.245  -0.254  0.00  0.00     0.256 C 
ATOM      3  O2  <0> d          -1.862  -0.549  -0.264  0.00  0.00    -0.267 OA
ATOM      4  H12 <0> d          -3.263   2.203  -0.216  0.00  0.00     0.169 HD
ENDROOT
BRANCH   2   5
ATOM      5  C13 <0> d          -4.177  -0.239  -0.341  0.00  0.00     0.034 A 
ATOM      6  C18 <0> d          -4.438  -1.605  -0.440  0.00  0.00     0.046 A 
ATOM      7  C17 <0> d          -5.749  -2.052  -0.515  0.00  0.00     0.035 A 
ATOM      8  C16 <0> d          -6.796  -1.139  -0.504  0.00  0.00     0.029 A 
ATOM      9  C15 <0> d          -6.537   0.216  -0.411  0.00  0.00     0.003 A 
ATOM     10  C14 <0> d          -5.237   0.670  -0.330  0.00  0.00     0.017 A 
BRANCH   7  11
ATOM     11  N4  <0> d          -6.016  -3.422  -0.610  0.00  0.00    -0.324 N 
ATOM     12  C19 <0> d          -5.211  -4.309   0.007  0.00  0.00     0.245 C 
ATOM     13  O3  <0> d          -4.304  -3.917   0.718  0.00  0.00    -0.268 OA
ATOM     14  H17 <0> d          -6.781  -3.733  -1.118  0.00  0.00     0.169 HD
BRANCH  12  15
ATOM     15  C20 <0> d          -5.420  -5.697  -0.173  0.00  0.00     0.075 C 
ATOM     16  C21 <0> d          -4.609  -6.590   0.448  0.00  0.00     0.024 C 
BRANCH  16  17
ATOM     17  C22 <0> d          -4.818  -7.979   0.268  0.00  0.00     0.004 A 
ATOM     18  S1  <0> d          -6.062  -8.813  -0.701  0.00  0.00    -0.102 SA
ATOM     19  C25 <0> d          -5.598 -10.450  -0.368  0.00  0.00     0.050 A 
ATOM     20  C24 <0> d          -4.532 -10.309   0.464  0.00  0.00     0.008 A 
ATOM     21  C23 <0> d          -4.111  -9.048   0.806  0.00  0.00     0.019 A 
ENDBRANCH  16  17
ENDBRANCH  12  15
ENDBRANCH   7  11
ENDBRANCH   2   5
BRANCH   1  22
ATOM     22  C3  <0> d          -1.212   2.023   0.006  0.00  0.00     0.130 A 
ATOM     23  C2  <0> d          -0.542   2.864  -0.814  0.00  0.00     0.057 A 
ATOM     24  C1  <0> d          -1.085   3.479  -2.078  0.00  0.00     0.072 C 
ATOM     25  N2  <0> d           0.716   3.059  -0.307  0.00  0.00    -0.289 N 
ATOM     26  N1  <0> d           0.853   2.325   0.877  0.00  0.00    -0.217 N 
ATOM     27  C5  <0> d           1.752   3.902  -0.908  0.00  0.00     0.178 C 
ATOM     28  C4  <0> d          -0.309   1.678   1.105  0.00  0.00     0.295 A 
ATOM     29  O1  <0> d          -0.557   0.944   2.044  0.00  0.00    -0.264 OA
BRANCH  26  30
ATOM     30  C6  <0> d           1.995   2.271   1.682  0.00  0.00     0.060 A 
ATOM     31  C11 <0> d           1.876   2.337   3.064  0.00  0.00     0.031 A 
ATOM     32  C10 <0> d           3.006   2.283   3.856  0.00  0.00     0.002 A 
ATOM     33  C9  <0> d           4.255   2.165   3.275  0.00  0.00     0.000 A 
ATOM     34  C8  <0> d           4.377   2.099   1.899  0.00  0.00     0.002 A 
ATOM     35  C7  <0> d           3.251   2.146   1.101  0.00  0.00     0.031 A 
ENDBRANCH  26  30
ENDBRANCH   1  22
TORSDOF 6
