REMARK  5 active torsions:
REMARK  status: ('A' for Active; 'I' for Inactive)
REMARK    1  A    between atoms: C7_7  and  N1_8 
REMARK       I    between atoms: N1_8  and  C8_9 
REMARK    2  A    between atoms: C8_9  and  C9_11 
REMARK    3  A    between atoms: C9_11  and  N2_12 
REMARK       I    between atoms: N2_12  and  C10_13 
REMARK    4  A    between atoms: C10_13  and  C11_15 
REMARK    5  A    between atoms: C11_15  and  N3_16 
ROOT
ATOM      1  N2  <0> d          -0.197   0.607  -1.586  0.00  0.00    -0.351 N 
ATOM      2  C10 <0> d          -1.362  -0.055  -1.736  0.00  0.00     0.236 C 
ATOM      3  O2  <0> d          -2.334   0.276  -1.091  0.00  0.00    -0.272 OA
ATOM      4  H10 <0> d           0.581   0.342  -2.102  0.00  0.00     0.163 HD
ENDROOT
BRANCH   1   5
ATOM      5  C9  <0> d          -0.106   1.726  -0.645  0.00  0.00     0.225 C 
BRANCH   5   6
ATOM      6  C8  <0> d           1.291   2.288  -0.668  0.00  0.00     0.239 C 
ATOM      7  N1  <0> d           1.611   3.332   0.124  0.00  0.00    -0.325 N 
ATOM      8  H7  <0> d           0.928   3.754   0.668  0.00  0.00     0.169 HD
ATOM      9  O1  <0> d           2.129   1.802  -1.398  0.00  0.00    -0.271 OA
BRANCH   7  10
ATOM     10  C7  <0> d           2.927   3.806   0.159  0.00  0.00     0.046 A 
ATOM     11  C2  <0> d           3.976   2.929   0.403  0.00  0.00    -0.035 A 
ATOM     12  C1  <0> d           3.698   1.465   0.629  0.00  0.00     0.050 C 
ATOM     13  C3  <0> d           5.274   3.399   0.433  0.00  0.00     0.009 A 
ATOM     14  C4  <0> d           5.529   4.743   0.231  0.00  0.00     0.001 A 
ATOM     15  C5  <0> d           4.486   5.620  -0.006  0.00  0.00     0.009 A 
ATOM     16  C6  <0> d           3.186   5.155  -0.043  0.00  0.00    -0.035 A 
ATOM     17  C18 <0> d           2.050   6.111  -0.303  0.00  0.00     0.050 C 
ENDBRANCH   7  10
ENDBRANCH   5   6
ENDBRANCH   1   5
BRANCH   2  18
ATOM     18  C11 <0> d          -1.456  -1.206  -2.704  0.00  0.00     0.235 C 
BRANCH  18  19
ATOM     19  N3  <0> d          -2.814  -1.754  -2.682  0.00  0.00    -0.299 N 
ATOM     20  C15 <0> d          -3.752  -1.262  -3.525  0.00  0.00     0.264 A 
ATOM     21  C14 <0> d          -5.092  -1.846  -3.460  0.00  0.00     0.099 A 
ATOM     22  O3  <0> d          -3.491  -0.367  -4.309  0.00  0.00    -0.267 OA
ATOM     23  C13 <0> d          -5.321  -2.874  -2.532  0.00  0.00     0.164 A 
ATOM     24  C16 <0> d          -6.303  -1.622  -4.142  0.00  0.00     0.160 A 
ATOM     25  N4  <0> d          -4.313  -3.281  -1.745  0.00  0.00    -0.224 NA
ATOM     26  N6  <0> d          -6.623  -3.237  -2.669  0.00  0.00    -0.256 N 
ATOM     27  C12 <0> d          -3.126  -2.754  -1.821  0.00  0.00     0.215 A 
ATOM     28  N5  <0> d          -7.198  -2.445  -3.670  0.00  0.00    -0.182 NA
ATOM     29  C17 <0> d          -7.308  -4.280  -1.900  0.00  0.00     0.182 C 
ENDBRANCH  18  19
ENDBRANCH   2  18
TORSDOF 5
