REMARK  6 active torsions:
REMARK  status: ('A' for Active; 'I' for Inactive)
REMARK    1  A    between atoms: C7_11  and  O7_27 
REMARK    2  A    between atoms: C7_11  and  O8_28 
REMARK    3  A    between atoms: C8_12  and  C10_15 
REMARK    4  A    between atoms: C12_17  and  O6_25 
REMARK    5  A    between atoms: C13_18  and  O5_23 
REMARK    6  A    between atoms: C14_19  and  O4_21 
ROOT
ATOM      1  C1  <0> d          -0.018   1.461   0.010  0.00  0.00     0.161 C 
ATOM      2  N1  <0> d           0.002  -0.004   0.002  0.00  0.00    -0.300 N 
ATOM      3  C2  <0> d          -1.197  -0.699   0.004  0.00  0.00     0.102 A 
ATOM      4  C3  <0> d          -1.168  -2.053  -0.004  0.00  0.00     0.103 A 
ATOM      5  C4  <0> d           0.136  -2.733  -0.014  0.00  0.00     0.265 A 
ATOM      6  O1  <0> d           0.200  -3.948  -0.022  0.00  0.00    -0.267 OA
ATOM      7  N2  <0> d           1.259  -1.987  -0.015  0.00  0.00    -0.270 N 
ATOM      8  C5  <0> d           1.180  -0.645  -0.013  0.00  0.00     0.331 A 
ATOM      9  O2  <0> d           2.207   0.007  -0.019  0.00  0.00    -0.246 OA
ATOM     10  C6  <0> d           2.570  -2.641  -0.025  0.00  0.00     0.164 C 
ATOM     11  C7  <0> d          -2.571  -2.608  -0.000  0.00  0.00     0.211 A 
ATOM     12  C8  <0> d          -3.510  -1.392   0.011  0.00  0.00     0.163 A 
ATOM     13  C9  <0> d          -2.586  -0.196   0.014  0.00  0.00     0.191 A 
ATOM     14  O3  <0> d          -2.924   0.964   0.023  0.00  0.00    -0.290 OA
ENDROOT
BRANCH  12  15
ATOM     15  C10 <0> d          -4.378  -1.387  -1.221  0.00  0.00    -0.035 A 
ATOM     16  C15 <0> d          -5.753  -1.438  -1.095  0.00  0.00     0.048 A 
ATOM     17  C14 <0> d          -6.555  -1.427  -2.226  0.00  0.00     0.104 A 
ATOM     18  C13 <0> d          -5.974  -1.377  -3.488  0.00  0.00     0.135 A 
ATOM     19  C12 <0> d          -4.590  -1.331  -3.610  0.00  0.00     0.104 A 
ATOM     20  C11 <0> d          -3.795  -1.337  -2.473  0.00  0.00     0.048 A 
BRANCH  17  21
ATOM     21  O4  <0> d          -7.909  -1.472  -2.102  0.00  0.00    -0.353 OA
ATOM     22  C16 <0> d          -8.437  -1.522  -0.775  0.00  0.00     0.210 C 
ENDBRANCH  17  21
BRANCH  18  23
ATOM     23  O5  <0> d          -6.757  -1.371  -4.600  0.00  0.00    -0.351 OA
ATOM     24  C17 <0> d          -7.092  -2.640  -5.165  0.00  0.00     0.210 C 
ENDBRANCH  18  23
BRANCH  19  25
ATOM     25  O6  <0> d          -4.016  -1.281  -4.842  0.00  0.00    -0.353 OA
ATOM     26  C18 <0> d          -2.589  -1.236  -4.891  0.00  0.00     0.210 C 
ENDBRANCH  19  25
ENDBRANCH  12  15
BRANCH  11  27
ATOM     27  O7  <0> d          -2.781  -3.404   1.168  0.00  0.00    -0.361 OA
ATOM     28  H19 <0> d          -2.197  -4.171   1.232  0.00  0.00     0.213 HD
ENDBRANCH  11  27
BRANCH  11  29
ATOM     29  O8  <0> d          -2.793  -3.390  -1.175  0.00  0.00    -0.361 OA
ATOM     30  H20 <0> d          -2.209  -4.157  -1.254  0.00  0.00     0.213 HD
ENDBRANCH  11  29
TORSDOF 6
