REMARK  3 active torsions:
REMARK  status: ('A' for Active; 'I' for Inactive)
REMARK    1  A    between atoms: C2_2  and  N1_3 
REMARK    2  A    between atoms: C7_9  and  C10_15 
REMARK       I    between atoms: C10_15  and  N2_17 
REMARK    3  A    between atoms: N2_17  and  C11_18 
ROOT
ATOM      1  N1  <0> d           0.704  -0.545   1.171  0.00  0.00    -0.237 N 
ATOM      2  C3  <0> d           2.028  -0.700   1.318  0.00  0.00     0.269 A 
ATOM      3  O1  <0> d           2.792  -0.439   0.410  0.00  0.00    -0.266 OA
ATOM      4  C4  <0> d           2.530  -1.193   2.610  0.00  0.00     0.056 A 
ATOM      5  C5  <0> d           3.849  -1.443   3.028  0.00  0.00     0.020 A 
ATOM      6  C6  <0> d           4.104  -1.909   4.295  0.00  0.00     0.018 A 
ATOM      7  C7  <0> d           3.061  -2.144   5.193  0.00  0.00     0.033 A 
ATOM      8  C8  <0> d           1.744  -1.899   4.789  0.00  0.00     0.043 A 
ATOM      9  C9  <0> d           1.500  -1.437   3.529  0.00  0.00     0.096 A 
ATOM     10  S1  <0> d           0.033  -1.000   2.635  0.00  0.00     0.268 S 
ATOM     11  O2  <0> d          -0.709  -2.192   2.418  0.00  0.00    -0.200 OA
ATOM     12  O3  <0> d          -0.513   0.164   3.240  0.00  0.00    -0.200 OA
ENDROOT
BRANCH   7  13
ATOM     13  C10 <0> d           3.345  -2.646   6.556  0.00  0.00     0.256 C 
ATOM     14  O4  <0> d           2.432  -2.848   7.332  0.00  0.00    -0.267 OA
ATOM     15  N2  <0> d           4.617  -2.879   6.937  0.00  0.00    -0.320 N 
ATOM     16  H9  <0> d           5.340  -2.780   6.298  0.00  0.00     0.169 HD
BRANCH  15  17
ATOM     17  C11 <0> d           4.894  -3.264   8.253  0.00  0.00     0.075 A 
ATOM     18  C16 <0> d           6.067  -2.844   8.870  0.00  0.00     0.164 A 
ATOM     19  C15 <0> d           6.334  -3.222  10.175  0.00  0.00     0.074 A 
ATOM     20  F1  <0> d           6.942  -2.063   8.199  0.00  0.00    -0.202 F 
ATOM     21  C14 <0> d           5.440  -4.026  10.859  0.00  0.00     0.027 A 
ATOM     22 Cl1  <0> d           7.794  -2.693  10.950  0.00  0.00    -0.081 Cl
ATOM     23  C13 <0> d           4.275  -4.450  10.245  0.00  0.00     0.004 A 
ATOM     24  C12 <0> d           4.000  -4.071   8.945  0.00  0.00     0.033 A 
ENDBRANCH  15  17
ENDBRANCH   7  13
BRANCH   1  25
ATOM     25  C2  <0> d          -0.006  -0.071  -0.020  0.00  0.00     0.140 C 
ATOM     26  C1  <0> d          -0.032   1.459  -0.023  0.00  0.00     0.028 C 
ENDBRANCH   1  25
TORSDOF 3
