REMARK  5 active torsions:
REMARK  status: ('A' for Active; 'I' for Inactive)
REMARK    1  A    between atoms: N2_5  and  C6_8 
REMARK    2  A    between atoms: C6_8  and  C7_9 
REMARK    3  A    between atoms: C7_9  and  N3_10 
REMARK       I    between atoms: N3_10  and  C8_11 
REMARK    4  A    between atoms: C8_11  and  C9_13 
REMARK    5  A    between atoms: C13_21  and  N7_23 
ROOT
ATOM      1  C9  <0> d           3.295  -8.025   1.978  0.00  0.00     0.134 A 
ATOM      2  C10 <0> d           2.599  -8.732   1.053  0.00  0.00     0.114 A 
ATOM      3  C11 <0> d           2.676 -10.150   1.049  0.00  0.00     0.271 A 
ATOM      4  O2  <0> d           2.057 -10.807   0.224  0.00  0.00    -0.266 OA
ATOM      5  N4  <0> d           3.440 -10.751   1.967  0.00  0.00    -0.183 NA
ATOM      6  C12 <0> d           4.103 -10.049   2.851  0.00  0.00     0.201 A 
ATOM      7  N5  <0> d           4.084  -8.684   2.914  0.00  0.00    -0.201 N 
ATOM      8  N6  <0> d           4.855  -8.102   3.917  0.00  0.00    -0.139 NA
ATOM      9  C13 <0> d           5.560  -8.829   4.744  0.00  0.00     0.192 A 
ATOM     10  S1  <0> d           5.192 -10.486   4.189  0.00  0.00    -0.010 SA
ENDROOT
BRANCH   1  11
ATOM     11  C8  <0> d           3.220  -6.548   1.986  0.00  0.00     0.270 C 
ATOM     12  N3  <0> d           2.456  -5.907   1.080  0.00  0.00    -0.354 N 
ATOM     13  H16 <0> d           1.956  -6.414   0.421  0.00  0.00     0.162 HD
ATOM     14  O1  <0> d           3.846  -5.912   2.811  0.00  0.00    -0.266 OA
BRANCH  12  15
ATOM     15  C7  <0> d           2.381  -4.444   1.088  0.00  0.00     0.153 C 
BRANCH  15  16
ATOM     16  C6  <0> d           1.453  -3.974  -0.034  0.00  0.00     0.292 C 
BRANCH  16  17
ATOM     17  N2  <0> d           1.378  -2.507  -0.025  0.00  0.00     0.093 N 
ATOM     18  C3  <0> d           0.693  -2.008  -1.226  0.00  0.00     0.300 C 
ATOM     19  C2  <0> d           0.688  -0.477  -1.207  0.00  0.00     0.264 C 
ATOM     20  N1  <0> d           0.002  -0.004   0.002  0.00  0.00    -0.072 N 
ATOM     21  C1  <0> d          -0.018   1.465   0.010  0.00  0.00     0.269 C 
ATOM     22  C5  <0> d           0.713  -0.490   1.192  0.00  0.00     0.264 C 
ATOM     23  H30 <0> d          -0.945  -0.353   0.010  0.00  0.00     0.279 HD
ATOM     24  C4  <0> d           0.717  -2.021   1.194  0.00  0.00     0.300 C 
ENDBRANCH  16  17
ENDBRANCH  15  16
ENDBRANCH  12  15
ENDBRANCH   1  11
BRANCH   9  25
ATOM     25  N7  <0> d           6.373  -8.421   5.785  0.00  0.00    -0.359 N 
ATOM     26  C19 <0> d           7.071  -9.449   6.582  0.00  0.00     0.125 C 
ATOM     27  C18 <0> d           8.530  -9.049   6.888  0.00  0.00     0.020 C 
ATOM     28  C17 <0> d           9.158  -8.402   5.679  0.00  0.00     0.002 C 
ATOM     29  C16 <0> d           8.959  -6.891   5.752  0.00  0.00     0.002 C 
ATOM     30  C15 <0> d           7.670  -6.424   5.219  0.00  0.00     0.020 C 
ATOM     31  C14 <0> d           6.500  -7.006   6.051  0.00  0.00     0.125 C 
ENDBRANCH   9  25
TORSDOF 5
