REMARK  4 active torsions:
REMARK  status: ('A' for Active; 'I' for Inactive)
REMARK    1  A    between atoms: C2_2  and  C4_4 
REMARK    2  A    between atoms: C4_4  and  O1_5 
REMARK    3  A    between atoms: O1_5  and  C5_6 
REMARK    4  A    between atoms: C11_12  and  N2_20 
ROOT
ATOM      1  C5  <0> d          -2.861  -2.820   0.420  0.00  0.00     0.080 A 
ATOM      2  C6  <0> d          -4.119  -2.287   0.656  0.00  0.00     0.037 A 
ATOM      3  C7  <0> d          -5.239  -3.086   0.536  0.00  0.00     0.005 A 
ATOM      4  C8  <0> d          -5.105  -4.415   0.185  0.00  0.00     0.037 A 
ATOM      5  C9  <0> d          -3.845  -4.955  -0.052  0.00  0.00     0.081 A 
ATOM      6  C10 <0> d          -2.723  -4.154   0.058  0.00  0.00     0.039 A 
ATOM      7  C11 <0> d          -1.340  -4.692  -0.207  0.00  0.00     0.228 C 
ATOM      8  C12 <0> d          -1.358  -6.222  -0.138  0.00  0.00     0.078 C 
ATOM      9  C13 <0> d          -2.539  -6.728  -0.966  0.00  0.00     0.095 C 
ATOM     10  O2  <0> d          -3.757  -6.269  -0.388  0.00  0.00    -0.338 OA
ATOM     11  C14 <0> d          -2.521  -8.268  -1.018  0.00  0.00     0.068 C 
ATOM     12  C15 <0> d          -2.938  -8.567  -2.481  0.00  0.00     0.235 C 
ATOM     13  N1  <0> d          -2.279  -7.482  -3.253  0.00  0.00    -0.072 N 
ATOM     14  C16 <0> d          -2.405  -6.263  -2.423  0.00  0.00     0.270 C 
ATOM     15  H20 <0> d          -1.306  -7.702  -3.402  0.00  0.00     0.277 HD
ATOM     16  H30 <0> d          -2.747  -7.350  -4.137  0.00  0.00     0.277 HD
ENDROOT
BRANCH   7  17
ATOM     17  N2  <0> d          -0.410  -4.170   0.804  0.00  0.00    -0.070 N 
ATOM     18  C17 <0> d          -0.902  -4.515   2.145  0.00  0.00     0.270 C 
ATOM     19  C18 <0> d           0.918  -4.763   0.602  0.00  0.00     0.270 C 
ATOM     20  H29 <0> d          -0.348  -3.167   0.717  0.00  0.00     0.279 HD
ENDBRANCH   7  17
BRANCH   1  21
ATOM     21  O1  <0> d          -1.759  -2.033   0.539  0.00  0.00    -0.350 OA
BRANCH  21  22
ATOM     22  C4  <0> d          -1.979  -0.643   0.787  0.00  0.00     0.179 C 
BRANCH  22  23
ATOM     23  C2  <0> d          -0.639   0.096   0.770  0.00  0.00     0.002 C 
ATOM     24  C1  <0> d          -0.885   1.601   0.897  0.00  0.00     0.011 C 
ATOM     25  C3  <0> d           0.221  -0.381   1.942  0.00  0.00     0.011 C 
ENDBRANCH  22  23
ENDBRANCH  21  22
ENDBRANCH   1  21
TORSDOF 4
