REMARK  3 active torsions:
REMARK  status: ('A' for Active; 'I' for Inactive)
REMARK    1  A    between atoms: C6_6  and  C7_7 
REMARK    2  A    between atoms: C7_7  and  C8_8 
REMARK    3  A    between atoms: C7_7  and  N1_19 
ROOT
ATOM      1  C7  <0> d          -1.293  -0.775   0.011  0.00  0.00     0.251 C 
ENDROOT
BRANCH   1   2
ATOM      2  C6  <0> d           0.002  -0.004   0.002  0.00  0.00    -0.022 A 
ATOM      3  C1  <0> d          -0.017   1.378   0.010  0.00  0.00     0.011 A 
ATOM      4  C2  <0> d           1.171   2.086   0.002  0.00  0.00     0.026 A 
ATOM      5  C3  <0> d           2.378   1.412  -0.013  0.00  0.00     0.055 A 
ATOM      6  C4  <0> d           2.397   0.027  -0.021  0.00  0.00     0.056 A 
ATOM      7 Cl2  <0> d           3.869   2.301  -0.023  0.00  0.00    -0.083 Cl
ATOM      8  C5  <0> d           1.208  -0.680  -0.013  0.00  0.00     0.035 A 
ATOM      9 Cl1  <0> d           3.912  -0.821  -0.040  0.00  0.00    -0.083 Cl
ENDBRANCH   1   2
BRANCH   1  10
ATOM     10  C8  <0> d          -1.585  -1.251   1.410  0.00  0.00    -0.003 A 
ATOM     11  C13 <0> d          -2.229  -0.415   2.304  0.00  0.00     0.022 A 
ATOM     12  C12 <0> d          -2.501  -0.851   3.588  0.00  0.00     0.059 A 
ATOM     13 Br1  <0> d          -2.745   1.323   1.767  0.00  0.00    -0.050 Br
ATOM     14  C11 <0> d          -2.119  -2.123   3.986  0.00  0.00     0.103 A 
ATOM     15  C10 <0> d          -1.468  -2.962   3.088  0.00  0.00     0.102 A 
ATOM     16  O1  <0> d          -2.382  -2.533   5.257  0.00  0.00    -0.346 OA
ATOM     17  C9  <0> d          -1.202  -2.521   1.801  0.00  0.00     0.050 A 
ATOM     18  O2  <0> d          -1.089  -4.216   3.457  0.00  0.00    -0.346 OA
ATOM     19  C15 <0> d          -1.035  -4.485   4.862  0.00  0.00     0.202 C 
ATOM     20  C14 <0> d          -2.318  -3.942   5.505  0.00  0.00     0.202 C 
ENDBRANCH   1  10
BRANCH   1  21
ATOM     21  N1  <0> d          -1.180  -1.932  -0.887  0.00  0.00    -0.067 N 
ATOM     22  H11 <0> d          -2.047  -2.448  -0.881  0.00  0.00     0.275 HD
ATOM     23  H12 <0> d          -0.985  -1.613  -1.824  0.00  0.00     0.275 HD
ATOM     24  H13 <0> d          -0.430  -2.530  -0.572  0.00  0.00     0.275 HD
ENDBRANCH   1  21
TORSDOF 3
