REMARK  3 active torsions:
REMARK  status: ('A' for Active; 'I' for Inactive)
REMARK    1  A    between atoms: N1_5  and  C5_7 
REMARK    2  A    between atoms: C11_18  and  C12_19 
REMARK    3  A    between atoms: C17_24  and  C18_25 
ROOT
ATOM      1  C1  <0> d           0.458   1.495  -0.049  0.00  0.00     0.073 C 
ATOM      2  C2  <0> d           0.654   0.002  -0.110  0.00  0.00     0.063 A 
ATOM      3  C3  <0> d           0.489  -0.801  -1.259  0.00  0.00     0.033 A 
ATOM      4  C4  <0> d           0.753  -2.079  -0.911  0.00  0.00     0.160 A 
ATOM      5  N1  <0> d           1.078  -2.072   0.429  0.00  0.00    -0.042 N 
ATOM      6  N2  <0> d           1.008  -0.756   0.887  0.00  0.00    -0.155 NA
ATOM      7  N5  <0> d           0.737  -3.248  -1.631  0.00  0.00    -0.310 N 
ATOM      8  C9  <0> d           0.524  -3.556  -2.875  0.00  0.00     0.232 C 
ATOM      9  O1  <0> d           0.707  -4.724  -3.150  0.00  0.00    -0.272 OA
ATOM     10  C10 <0> d           0.094  -2.711  -4.009  0.00  0.00     0.178 C 
ATOM     11  S1  <0> d           0.828  -1.070  -3.979  0.00  0.00    -0.145 SA
ATOM     12  C11 <0> d           0.090  -0.222  -2.580  0.00  0.00     0.120 C 
ATOM     13  H8  <0> d           0.930  -4.025  -1.084  0.00  0.00     0.170 HD
ENDROOT
BRANCH  12  14
ATOM     14  C12 <0> d           0.504   1.226  -2.619  0.00  0.00    -0.025 A 
ATOM     15  C17 <0> d          -0.453   2.216  -2.733  0.00  0.00     0.055 A 
ATOM     16  C16 <0> d          -0.073   3.545  -2.764  0.00  0.00     0.017 A 
ATOM     17  C15 <0> d           1.265   3.883  -2.690  0.00  0.00     0.001 A 
ATOM     18  C14 <0> d           2.223   2.893  -2.580  0.00  0.00     0.001 A 
ATOM     19  C13 <0> d           1.843   1.564  -2.545  0.00  0.00     0.009 A 
BRANCH  15  20
ATOM     20  C18 <0> d          -1.912   1.847  -2.820  0.00  0.00     0.418 C 
ATOM     21  F1  <0> d          -2.686   3.012  -2.861  0.00  0.00    -0.166 F 
ATOM     22  F2  <0> d          -2.135   1.098  -3.979  0.00  0.00    -0.166 F 
ATOM     23  F3  <0> d          -2.268   1.090  -1.699  0.00  0.00    -0.166 F 
ENDBRANCH  15  20
ENDBRANCH  12  14
BRANCH   5  24
ATOM     24  C5  <0> d           1.423  -3.186   1.193  0.00  0.00     0.750 A 
ATOM     25  N4  <0> d           1.575  -4.357   0.595  0.00  0.00    -0.073 NA
ATOM     26  C8  <0> d           1.907  -5.433   1.288  0.00  0.00     0.138 A 
ATOM     27  C7  <0> d           2.085  -5.325   2.659  0.00  0.00     0.040 A 
ATOM     28  C6  <0> d           1.913  -4.085   3.253  0.00  0.00     0.138 A 
ATOM     29  N3  <0> d           1.586  -3.048   2.499  0.00  0.00    -0.073 NA
ENDBRANCH   5  24
TORSDOF 3
