REMARK  4 active torsions:
REMARK  status: ('A' for Active; 'I' for Inactive)
REMARK    1  A    between atoms: C2_2  and  C3_3 
REMARK    2  A    between atoms: C2_2  and  C10_15 
REMARK    3  A    between atoms: C3_3  and  N1_4 
REMARK    4  A    between atoms: C10_15  and  N3_16 
ROOT
ATOM      1  N1  <0> d          -2.082  -0.162   1.273  0.00  0.00    -0.289 N 
ATOM      2  C4  <0> d          -2.003  -0.987   2.341  0.00  0.00     0.269 A 
ATOM      3  O1  <0> d          -1.396  -2.041   2.265  0.00  0.00    -0.266 OA
ATOM      4  C5  <0> d          -2.629  -0.613   3.535  0.00  0.00     0.099 A 
ATOM      5  C6  <0> d          -3.330   0.592   3.642  0.00  0.00     0.057 A 
ATOM      6  C7  <0> d          -3.889   0.804   4.898  0.00  0.00     0.038 A 
ATOM      7  C8  <0> d          -3.723  -0.120   5.870  0.00  0.00     0.053 A 
ATOM      8  S1  <0> d          -2.803  -1.327   5.146  0.00  0.00    -0.094 SA
ATOM      9  N2  <0> d          -3.366   1.392   2.491  0.00  0.00    -0.332 N 
ATOM     10  C9  <0> d          -2.748   1.002   1.366  0.00  0.00     0.181 A 
ATOM     11  S2  <0> d          -2.818   2.021  -0.007  0.00  0.00    -0.040 SA
ATOM     12  H20 <0> d          -3.839   2.239   2.510  0.00  0.00     0.168 HD
ENDROOT
BRANCH   1  13
ATOM     13  C3  <0> d          -1.433  -0.534   0.013  0.00  0.00     0.140 C 
BRANCH  13  14
ATOM     14  C2  <0> d           0.002  -0.004   0.002  0.00  0.00     0.026 C 
ATOM     15  C1  <0> d          -0.019   1.526   0.010  0.00  0.00     0.013 C 
BRANCH  14  16
ATOM     16  C10 <0> d           0.718  -0.497  -1.257  0.00  0.00     0.240 C 
BRANCH  16  17
ATOM     17  N3  <0> d           2.129  -0.090  -1.209  0.00  0.00    -0.071 N 
ATOM     18  C14 <0> d           2.808  -0.454  -2.472  0.00  0.00     0.235 C 
ATOM     19  C13 <0> d           4.247  -0.865  -2.109  0.00  0.00     0.029 C 
ATOM     20  C12 <0> d           4.326  -0.741  -0.570  0.00  0.00     0.029 C 
ATOM     21  C11 <0> d           2.841  -0.833  -0.138  0.00  0.00     0.235 C 
ATOM     22  H19 <0> d           2.199   0.904  -1.050  0.00  0.00     0.279 HD
ENDBRANCH  16  17
ENDBRANCH  14  16
ENDBRANCH  13  14
ENDBRANCH   1  13
TORSDOF 4
