REMARK  9 active torsions:
REMARK  status: ('A' for Active; 'I' for Inactive)
REMARK    1  A    between atoms: C2_2  and  O1_3 
REMARK    2  A    between atoms: O1_3  and  C3_4 
REMARK    3  A    between atoms: C8_9  and  C9_10 
REMARK    4  A    between atoms: C9_10  and  C10_11 
REMARK    5  A    between atoms: C9_10  and  N2_13 
REMARK    6  A    between atoms: C10_11  and  N1_12 
REMARK    7  A    between atoms: N2_13  and  C12_15 
REMARK    8  A    between atoms: C12_15  and  C13_16 
REMARK    9  A    between atoms: C13_16  and  O2_17 
ROOT
ATOM      1  C9  <0> d          -4.775  -1.707  -0.062  0.00  0.00     0.283 C 
ENDROOT
BRANCH   1   2
ATOM      2  C8  <0> d          -3.322  -1.788   0.330  0.00  0.00     0.011 A 
ATOM      3  C3  <0> d          -2.512  -0.668   0.225  0.00  0.00     0.077 A 
ATOM      4  C4  <0> d          -1.173  -0.747   0.581  0.00  0.00     0.039 A 
ATOM      5  C5  <0> d          -0.653  -1.937   1.050  0.00  0.00     0.022 A 
ATOM      6  C6  <0> d          -1.464  -3.054   1.154  0.00  0.00     0.011 A 
ATOM      7  C7  <0> d          -2.797  -2.979   0.794  0.00  0.00     0.031 A 
ATOM      8 Br1  <0> d          -0.747  -4.684   1.790  0.00  0.00    -0.051 Br
BRANCH   3   9
ATOM      9  O1  <0> d          -3.027   0.504  -0.232  0.00  0.00    -0.351 OA
BRANCH   9  10
ATOM     10  C2  <0> d          -2.134   1.617  -0.314  0.00  0.00     0.171 C 
ATOM     11  C1  <0> d          -2.888   2.838  -0.844  0.00  0.00     0.034 C 
ENDBRANCH   9  10
ENDBRANCH   3   9
ENDBRANCH   1   2
BRANCH   1  12
ATOM     12  C10 <0> d          -4.911  -1.932  -1.569  0.00  0.00     0.270 C 
BRANCH  12  13
ATOM     13  N1  <0> d          -6.321  -1.797  -1.960  0.00  0.00    -0.077 N 
ATOM     14  H12 <0> d          -6.418  -1.959  -3.043  0.00  0.00     0.274 HD
ATOM     15  H13 <0> d          -6.677  -0.788  -1.706  0.00  0.00     0.274 HD
ATOM     16  H22 <0> d          -6.923  -2.545  -1.422  0.00  0.00     0.274 HD
ENDBRANCH  12  13
ENDBRANCH   1  12
BRANCH   1  17
ATOM     17  N2  <0> d          -5.535  -2.739   0.657  0.00  0.00     0.097 N 
ATOM     18  C11 <0> d          -5.158  -2.777   2.076  0.00  0.00     0.310 C 
BRANCH  17  19
ATOM     19  C12 <0> d          -6.981  -2.532   0.502  0.00  0.00     0.298 C 
BRANCH  19  20
ATOM     20  C13 <0> d          -7.411  -1.307   1.311  0.00  0.00     0.194 C 
BRANCH  20  21
ATOM     21  O2  <0> d          -6.824  -0.133   0.745  0.00  0.00    -0.399 OA
ATOM     22  H21 <0> d          -7.021   0.852   1.194  0.00  0.00     0.209 HD
ENDBRANCH  20  21
ENDBRANCH  19  20
ENDBRANCH  17  19
ENDBRANCH   1  17
TORSDOF 9
