REMARK  5 active torsions:
REMARK  status: ('A' for Active; 'I' for Inactive)
REMARK    1  A    between atoms: C2_2  and  N1_4 
REMARK       I    between atoms: N1_4  and  C4_5 
REMARK    2  A    between atoms: C4_5  and  C5_7 
REMARK    3  A    between atoms: C5_7  and  S1_8 
REMARK    4  A    between atoms: S1_8  and  C6_9 
REMARK    5  A    between atoms: C9_17  and  C11_19 
ROOT
ATOM      1  C6  <0> d           0.648  -1.827   6.346  0.00  0.00     0.283 C 
ATOM      2  N2  <0> d           1.772  -0.905   6.585  0.00  0.00    -0.157 NA
ATOM      3  N3  <0> d           2.892  -1.276   6.942  0.00  0.00    -0.112 NA
ATOM      4  C7  <0> d           3.212  -2.571   7.190  0.00  0.00     0.280 C 
ATOM      5  O2  <0> d           4.345  -2.908   7.442  0.00  0.00    -0.268 OA
ATOM      6  C8  <0> d           2.088  -3.561   7.133  0.00  0.00     0.175 C 
ATOM      7  N4  <0> d           1.215  -3.118   6.004  0.00  0.00    -0.202 NA
ATOM      8  N5  <0> d           0.346  -4.252   5.783  0.00  0.00    -0.246 NA
ATOM      9  C9  <0> d           1.265  -5.428   5.832  0.00  0.00     0.113 C 
ATOM     10  C10 <0> d           2.478  -4.980   6.711  0.00  0.00     0.057 C 
ATOM     11  H14 <0> d          -0.112  -4.188   4.886  0.00  0.00     0.141 HD
ENDROOT
BRANCH   1  12
ATOM     12  S1  <0> d          -0.371  -1.217   4.976  0.00  0.00    -0.115 SA
BRANCH  12  13
ATOM     13  C5  <0> d           0.780  -1.133   3.576  0.00  0.00     0.180 C 
BRANCH  13  14
ATOM     14  C4  <0> d           0.051  -0.633   2.355  0.00  0.00     0.227 C 
ATOM     15  N1  <0> d           0.711  -0.489   1.189  0.00  0.00    -0.357 N 
ATOM     16  H11 <0> d           1.654  -0.707   1.135  0.00  0.00     0.162 HD
ATOM     17  O1  <0> d          -1.129  -0.361   2.423  0.00  0.00    -0.273 OA
BRANCH  15  18
ATOM     18  C2  <0> d           0.002  -0.004   0.002  0.00  0.00     0.076 C 
ATOM     19  C1  <0> d          -0.019   1.526   0.010  0.00  0.00     0.032 C 
ATOM     20  C3  <0> d           0.718  -0.497  -1.257  0.00  0.00     0.032 C 
ENDBRANCH  15  18
ENDBRANCH  13  14
ENDBRANCH  12  13
ENDBRANCH   1  12
BRANCH   9  21
ATOM     21  C11 <0> d           0.573  -6.604   6.472  0.00  0.00     0.001 A 
ATOM     22  S2  <0> d          -0.553  -6.628   7.857  0.00  0.00    -0.105 SA
ATOM     23  C14 <0> d          -0.854  -8.387   7.907  0.00  0.00     0.050 A 
ATOM     24  C13 <0> d          -0.082  -8.832   6.885  0.00  0.00     0.008 A 
ATOM     25  C12 <0> d           0.649  -7.918   6.150  0.00  0.00     0.017 A 
ENDBRANCH   9  21
TORSDOF 5
