REMARK  1 active torsions:
REMARK  status: ('A' for Active; 'I' for Inactive)
REMARK    1  A    between atoms: C2_2  and  C11_15 
REMARK       I    between atoms: N1_5  and  C6_7 
REMARK       I    between atoms: C6_7  and  N2_9 
ROOT
ATOM      1  C1  <0> d          -1.498  -0.722  -0.751  0.00  0.00     0.028 C 
ATOM      2  C2  <0> d          -1.333   0.282   0.392  0.00  0.00     0.062 C 
ATOM      3  C3  <0> d           0.140   0.759   0.495  0.00  0.00     0.042 C 
ATOM      4  C4  <0> d           0.781  -0.385   1.319  0.00  0.00     0.129 C 
ATOM      5  N1  <0> d          -0.256  -0.776   2.292  0.00  0.00    -0.333 N 
ATOM      6  C5  <0> d          -1.572  -0.400   1.755  0.00  0.00     0.147 C 
ATOM      7  C6  <0> d          -0.034  -1.379   3.477  0.00  0.00     0.320 C 
ATOM      8  O1  <0> d           1.078  -1.786   3.752  0.00  0.00    -0.247 OA
ATOM      9  N2  <0> d          -1.044  -1.530   4.356  0.00  0.00    -0.331 N 
ATOM     10  C7  <0> d          -2.434  -1.246   3.967  0.00  0.00     0.155 C 
ATOM     11  C8  <0> d          -3.303  -2.444   4.362  0.00  0.00     0.252 C 
ATOM     12  N3  <0> d          -3.120  -2.731   5.791  0.00  0.00    -0.072 N 
ATOM     13  C9  <0> d          -1.734  -3.147   6.044  0.00  0.00     0.252 C 
ATOM     14  C10 <0> d          -0.788  -1.989   5.730  0.00  0.00     0.155 C 
ATOM     15  H14 <0> d          -3.324  -1.901   6.328  0.00  0.00     0.277 HD
ATOM     16  H19 <0> d          -3.748  -3.470   6.068  0.00  0.00     0.277 HD
ENDROOT
BRANCH   2  17
ATOM     17  C11 <0> d          -2.266   1.452   0.210  0.00  0.00     0.183 C 
ATOM     18  O2  <0> d          -3.019   1.487  -0.748  0.00  0.00    -0.647 OA
ATOM     19  O3  <0> d          -2.266   2.362   1.020  0.00  0.00    -0.647 OA
ENDBRANCH   2  17
TORSDOF 1
