REMARK  6 active torsions:
REMARK  status: ('A' for Active; 'I' for Inactive)
REMARK    1  A    between atoms: C4_4  and  C16_23 
REMARK    2  A    between atoms: N1_6  and  N2_7 
REMARK       I    between atoms: N2_7  and  C6_8 
REMARK    3  A    between atoms: C6_8  and  C7_10 
REMARK    4  A    between atoms: C16_23  and  C17_25 
REMARK    5  A    between atoms: C17_25  and  S1_26 
REMARK    6  A    between atoms: S1_26  and  C18_27 
ROOT
ATOM      1  C1  <0> d          -6.995  -2.003  -1.659  0.00  0.00     0.070 C 
ATOM      2  C2  <0> d          -6.591  -0.906  -0.708  0.00  0.00     0.031 A 
ATOM      3  C3  <0> d          -5.329  -0.529  -0.445  0.00  0.00     0.044 A 
ATOM      4  C4  <0> d          -5.418   0.563   0.534  0.00  0.00     0.037 A 
ATOM      5  C5  <0> d          -6.767   0.751   0.768  0.00  0.00     0.044 A 
ATOM      6  N1  <0> d          -7.450  -0.133   0.019  0.00  0.00    -0.262 N 
ATOM      7  C15 <0> d          -7.369   1.771   1.700  0.00  0.00     0.071 C 
ENDROOT
BRANCH   6   8
ATOM      8  N2  <0> d          -8.846  -0.245  -0.011  0.00  0.00    -0.258 N 
ATOM      9  C6  <0> d          -9.597   0.796  -0.421  0.00  0.00     0.291 C 
ATOM     10  O1  <0> d          -9.070   1.859  -0.685  0.00  0.00    -0.264 OA
ATOM     11  H6  <0> d          -9.272  -1.072   0.264  0.00  0.00     0.191 HD
BRANCH   9  12
ATOM     12  C7  <0> d         -11.060   0.645  -0.550  0.00  0.00     0.157 A 
ATOM     13  N4  <0> d         -11.636  -0.498  -0.268  0.00  0.00    -0.166 NA
ATOM     14  N3  <0> d         -12.895  -0.711  -0.354  0.00  0.00    -0.242 N 
ATOM     15  C14 <0> d         -13.783   0.225  -0.749  0.00  0.00     0.272 A 
ATOM     16  H1  <0> d         -13.229  -1.592  -0.123  0.00  0.00     0.192 HD
ATOM     17  C13 <0> d         -13.283   1.561  -1.100  0.00  0.00     0.046 A 
ATOM     18  O2  <0> d         -14.972  -0.032  -0.812  0.00  0.00    -0.266 OA
ATOM     19  C8  <0> d         -11.889   1.778  -0.992  0.00  0.00     0.016 A 
ATOM     20  C12 <0> d         -14.116   2.594  -1.517  0.00  0.00     0.018 A 
ATOM     21  C9  <0> d         -11.356   3.021  -1.315  0.00  0.00     0.015 A 
ATOM     22  C10 <0> d         -12.198   4.032  -1.728  0.00  0.00     0.001 A 
ATOM     23  C11 <0> d         -13.567   3.820  -1.828  0.00  0.00     0.001 A 
ENDBRANCH   9  12
ENDBRANCH   6   8
BRANCH   4  24
ATOM     24  C16 <0> d          -4.306   1.303   1.135  0.00  0.00     0.171 C 
ATOM     25  O3  <0> d          -4.529   2.191   1.931  0.00  0.00    -0.291 OA
BRANCH  24  26
ATOM     26  C17 <0> d          -2.886   0.963   0.763  0.00  0.00     0.163 C 
BRANCH  26  27
ATOM     27  S1  <0> d          -1.748   2.048   1.667  0.00  0.00    -0.119 SA
BRANCH  27  28
ATOM     28  C18 <0> d          -0.150   1.531   1.131  0.00  0.00     0.039 A 
ATOM     29  C23 <0> d           0.987   2.161   1.624  0.00  0.00     0.136 A 
ATOM     30  C22 <0> d           2.239   1.757   1.197  0.00  0.00     0.086 A 
ATOM     31  F1  <0> d           0.870   3.166   2.519  0.00  0.00    -0.205 F 
ATOM     32  C21 <0> d           2.359   0.728   0.279  0.00  0.00     0.119 A 
ATOM     33  C20 <0> d           1.227   0.100  -0.213  0.00  0.00     0.044 A 
ATOM     34  F2  <0> d           3.583   0.335  -0.138  0.00  0.00    -0.206 F 
ATOM     35  C19 <0> d          -0.026   0.499   0.210  0.00  0.00     0.025 A 
ENDBRANCH  27  28
ENDBRANCH  26  27
ENDBRANCH  24  26
ENDBRANCH   4  24
TORSDOF 6
