REMARK  3 active torsions:
REMARK  status: ('A' for Active; 'I' for Inactive)
REMARK    1  A    between atoms: N1_2  and  C2_3 
REMARK    2  A    between atoms: N1_2  and  C6_8 
REMARK    3  A    between atoms: C9_14  and  O3_15 
ROOT
ATOM      1  C6  <0> d           0.810  -0.425   1.221  0.00  0.00     0.231 C 
ATOM      2  C7  <0> d           0.015  -0.025   2.484  0.00  0.00     0.176 C 
ATOM      3  S2  <0> d           1.375   0.521   3.607  0.00  0.00     0.149 S 
ATOM      4  O1  <0> d           1.962  -0.617   4.223  0.00  0.00    -0.228 OA
ATOM      5  O2  <0> d           0.917   1.600   4.410  0.00  0.00    -0.228 OA
ATOM      6  C8  <0> d           2.513   1.166   2.304  0.00  0.00     0.174 C 
ATOM      7  C9  <0> d           2.179   0.232   1.124  0.00  0.00     0.164 C 
ENDROOT
BRANCH   1   8
ATOM      8  N1  <0> d           0.026  -0.052   0.036  0.00  0.00    -0.062 N 
ATOM      9  C1  <0> d          -0.277   1.385   0.082  0.00  0.00     0.270 C 
ATOM     10  H18 <0> d           0.558  -0.257  -0.797  0.00  0.00     0.280 HD
BRANCH   8  11
ATOM     11  C2  <0> d          -1.228  -0.817   0.017  0.00  0.00     0.198 C 
ATOM     12  C5  <0> d          -2.046  -0.393  -1.218  0.00  0.00     0.107 C 
ATOM     13  S1  <0> d          -2.384  -1.986  -2.071  0.00  0.00    -0.167 SA
ATOM     14  C4  <0> d          -2.013  -3.123  -0.664  0.00  0.00     0.076 C 
ATOM     15  C3  <0> d          -0.892  -2.307   0.040  0.00  0.00     0.044 C 
ENDBRANCH   8  11
ENDBRANCH   1   8
BRANCH   7  16
ATOM     16  O3  <0> d           2.237   0.989  -0.086  0.00  0.00    -0.393 OA
ATOM     17  H17 <0> d           3.053   1.496  -0.194  0.00  0.00     0.210 HD
ENDBRANCH   7  16
TORSDOF 3
