REMARK  4 active torsions:
REMARK  status: ('A' for Active; 'I' for Inactive)
REMARK    1  A    between atoms: C3_3  and  C12_16 
REMARK    2  A    between atoms: C4_4  and  C6_9 
REMARK    3  A    between atoms: C9_12  and  O1_15 
REMARK       I    between atoms: C12_16  and  N3_18 
REMARK    4  A    between atoms: N3_18  and  C13_19 
ROOT
ATOM      1  C1  <0> d          -4.603   1.911   3.498  0.00  0.00     0.069 C 
ATOM      2  C2  <0> d          -4.296   1.691   2.039  0.00  0.00     0.021 A 
ATOM      3  C3  <0> d          -3.218   0.956   1.691  0.00  0.00     0.059 A 
ATOM      4  C4  <0> d          -2.946   0.758   0.214  0.00  0.00     0.158 A 
ATOM      5  N1  <0> d          -3.886   1.389  -0.728  0.00  0.00    -0.354 N 
ATOM      6  C5  <0> d          -4.919   2.095  -0.227  0.00  0.00     0.172 A 
ATOM      7  S1  <0> d          -6.021   2.833  -1.310  0.00  0.00    -0.041 SA
ATOM      8  N2  <0> d          -5.112   2.237   1.090  0.00  0.00    -0.337 N 
ATOM      9  H5  <0> d          -3.765   1.299  -1.686  0.00  0.00     0.163 HD
ATOM     10  H6  <0> d          -5.875   2.757   1.388  0.00  0.00     0.168 HD
ENDROOT
BRANCH   3  11
ATOM     11  C12 <0> d          -2.371   0.388   2.674  0.00  0.00     0.256 C 
ATOM     12  O2  <0> d          -2.423  -0.806   2.906  0.00  0.00    -0.267 OA
ATOM     13  N3  <0> d          -1.508   1.169   3.352  0.00  0.00    -0.320 N 
ATOM     14  H12 <0> d          -1.439   2.113   3.141  0.00  0.00     0.169 HD
BRANCH  13  15
ATOM     15  C13 <0> d          -0.709   0.618   4.361  0.00  0.00     0.073 A 
ATOM     16  C18 <0> d          -0.261   1.415   5.409  0.00  0.00     0.143 A 
ATOM     17  C17 <0> d           0.527   0.867   6.404  0.00  0.00     0.044 A 
ATOM     18  F1  <0> d          -0.596   2.723   5.455  0.00  0.00    -0.204 F 
ATOM     19  C16 <0> d           0.869  -0.472   6.357  0.00  0.00     0.003 A 
ATOM     20  C15 <0> d           0.424  -1.267   5.316  0.00  0.00     0.002 A 
ATOM     21  C14 <0> d          -0.368  -0.727   4.322  0.00  0.00     0.033 A 
ENDBRANCH  13  15
ENDBRANCH   3  11
BRANCH   4  22
ATOM     22  C6  <0> d          -1.567   1.290  -0.080  0.00  0.00    -0.031 A 
ATOM     23  C11 <0> d          -1.359   2.654  -0.173  0.00  0.00     0.012 A 
ATOM     24  C10 <0> d          -0.097   3.144  -0.449  0.00  0.00     0.037 A 
ATOM     25  C9  <0> d           0.963   2.267  -0.625  0.00  0.00     0.065 A 
ATOM     26  C8  <0> d           0.753   0.900  -0.525  0.00  0.00     0.037 A 
ATOM     27  C7  <0> d          -0.511   0.414  -0.250  0.00  0.00     0.012 A 
BRANCH  25  28
ATOM     28  O1  <0> d           2.205   2.747  -0.896  0.00  0.00    -0.361 OA
ATOM     29  H11 <0> d           2.390   2.849  -1.840  0.00  0.00     0.217 HD
ENDBRANCH  25  28
ENDBRANCH   4  22
TORSDOF 4
