REMARK  3 active torsions:
REMARK  status: ('A' for Active; 'I' for Inactive)
REMARK    1  A    between atoms: S1_2  and  C2_3 
REMARK    2  A    between atoms: C5_6  and  C8_9 
REMARK    3  A    between atoms: C12_17  and  O1_20 
ROOT
ATOM      1  C8  <0> d           2.901  -1.397  -5.106  0.00  0.00     0.118 C 
ATOM      2  C9  <0> d           1.974  -2.172  -5.993  0.00  0.00     0.027 A 
ATOM      3  C10 <0> d           0.619  -2.048  -5.917  0.00  0.00     0.122 A 
ATOM      4  N1  <0> d           0.071  -2.857  -6.841  0.00  0.00    -0.287 N 
ATOM      5  H2  <0> d          -0.878  -2.968  -7.011  0.00  0.00     0.188 HD
ATOM      6  N2  <0> d           1.106  -3.507  -7.513  0.00  0.00    -0.154 NA
ATOM      7  C11 <0> d           2.267  -3.100  -6.999  0.00  0.00     0.180 A 
ATOM      8  N3  <0> d           3.444  -3.588  -7.454  0.00  0.00    -0.206 NA
ATOM      9  C12 <0> d           4.654  -3.414  -7.191  0.00  0.00     0.149 C 
ATOM     10  C13 <0> d           5.300  -2.492  -6.236  0.00  0.00     0.161 C 
ATOM     11  S2  <0> d           4.391  -2.312  -4.695  0.00  0.00    -0.146 SA
ENDROOT
BRANCH   1  12
ATOM     12  C5  <0> d           2.178  -1.049  -3.830  0.00  0.00    -0.040 A 
ATOM     13  C4  <0> d           1.978   0.276  -3.490  0.00  0.00     0.010 A 
ATOM     14  C3  <0> d           1.315   0.599  -2.322  0.00  0.00     0.019 A 
ATOM     15  C2  <0> d           0.848  -0.411  -1.489  0.00  0.00    -0.000 A 
ATOM     16  C7  <0> d           1.056  -1.742  -1.831  0.00  0.00     0.019 A 
ATOM     17  C6  <0> d           1.714  -2.056  -3.004  0.00  0.00     0.010 A 
BRANCH  15  18
ATOM     18  S1  <0> d           0.002  -0.004   0.002  0.00  0.00    -0.134 SA
ATOM     19  C1  <0> d          -0.022   1.810   0.012  0.00  0.00     0.095 C 
ENDBRANCH  15  18
ENDBRANCH   1  12
BRANCH   9  20
ATOM     20  O1  <0> d           5.505  -4.194  -7.891  0.00  0.00    -0.347 OA
ATOM     21  H13 <0> d           5.068  -4.793  -8.512  0.00  0.00     0.219 HD
ENDBRANCH   9  20
TORSDOF 3
