REMARK  7 active torsions:
REMARK  status: ('A' for Active; 'I' for Inactive)
REMARK    1  A    between atoms: C6_6  and  C8_8 
REMARK    2  A    between atoms: C8_8  and  N1_9 
REMARK    3  A    between atoms: C12_13  and  C14_16 
REMARK    4  A    between atoms: C12_13  and  O3_25 
REMARK    5  A    between atoms: C14_16  and  N2_27 
REMARK    6  A    between atoms: C16_18  and  C17_19 
REMARK    7  A    between atoms: C16_18  and  N2_27 
ROOT
ATOM      1  N1  <0> d           2.817   1.244  -2.150  0.00  0.00    -0.345 N 
ATOM      2  C9  <0> d           2.388   2.596  -2.488  0.00  0.00     0.126 C 
ATOM      3  C10 <0> d           1.184   3.003  -1.639  0.00  0.00     0.023 C 
ATOM      4  C11 <0> d           1.508   2.732  -0.165  0.00  0.00     0.051 C 
ATOM      5  C12 <0> d           1.609   1.218   0.037  0.00  0.00     0.162 C 
ATOM      6  C13 <0> d           2.497   0.620  -1.016  0.00  0.00     0.256 C 
ATOM      7  O1  <0> d           2.946  -0.490  -0.826  0.00  0.00    -0.270 OA
ENDROOT
BRANCH   5   8
ATOM      8  C14 <0> d           2.197   0.930   1.420  0.00  0.00     0.282 C 
BRANCH   8   9
ATOM      9  N2  <0> d           1.399   1.652   2.433  0.00  0.00    -0.066 N 
ATOM     10  C15 <0> d           0.133   0.932   2.687  0.00  0.00     0.270 C 
ATOM     11  H29 <0> d           1.183   2.592   2.081  0.00  0.00     0.280 HD
BRANCH   9  12
ATOM     12  C16 <0> d           2.169   1.776   3.689  0.00  0.00     0.299 C 
BRANCH  12  13
ATOM     13  C17 <0> d           1.431   2.699   4.624  0.00  0.00     0.079 A 
ATOM     14  O2  <0> d           1.572   4.033   4.684  0.00  0.00    -0.318 OA
ATOM     15  C20 <0> d           0.758   4.527   5.631  0.00  0.00     0.049 A 
ATOM     16  C19 <0> d           0.084   3.504   6.188  0.00  0.00     0.035 A 
ATOM     17  C21 <0> d           0.622   5.980   6.006  0.00  0.00     0.076 C 
ATOM     18  C18 <0> d           0.513   2.326   5.535  0.00  0.00     0.037 A 
ENDBRANCH  12  13
ENDBRANCH   9  12
ENDBRANCH   8   9
ENDBRANCH   5   8
BRANCH   5  19
ATOM     19  O3  <0> d           0.306   0.638  -0.055  0.00  0.00    -0.378 OA
ATOM     20  H28 <0> d           0.293  -0.321   0.070  0.00  0.00     0.211 HD
ENDBRANCH   5  19
BRANCH   1  21
ATOM     21  C8  <0> d           3.652   0.527  -3.117  0.00  0.00     0.164 C 
BRANCH  21  22
ATOM     22  C6  <0> d           2.772  -0.244  -4.066  0.00  0.00    -0.040 A 
ATOM     23  C5  <0> d           2.410  -1.545  -3.771  0.00  0.00     0.009 A 
ATOM     24  C4  <0> d           1.600  -2.251  -4.641  0.00  0.00     0.001 A 
ATOM     25  C3  <0> d           1.159  -1.659  -5.809  0.00  0.00     0.007 A 
ATOM     26  C2  <0> d           1.525  -0.359  -6.107  0.00  0.00    -0.061 A 
ATOM     27  C1  <0> d           1.044   0.286  -7.381  0.00  0.00     0.048 C 
ATOM     28  C7  <0> d           2.332   0.348  -5.236  0.00  0.00     0.015 A 
ENDBRANCH  21  22
ENDBRANCH   1  21
TORSDOF 7
