REMARK  4 active torsions:
REMARK  status: ('A' for Active; 'I' for Inactive)
REMARK    1  A    between atoms: C2_4  and  C9_12 
REMARK    2  A    between atoms: N3_5  and  C3_6 
REMARK    3  A    between atoms: C9_12  and  C10_13 
REMARK    4  A    between atoms: C9_12  and  N4_19 
ROOT
ATOM      1  C1  <0> d          -0.016   1.351   0.009  0.00  0.00     0.236 A 
ATOM      2  N1  <0> d           1.224   1.756  -0.000  0.00  0.00    -0.143 NA
ATOM      3  N2  <0> d           2.012   0.739  -0.013  0.00  0.00    -0.133 NA
ATOM      4  C2  <0> d           1.309  -0.361  -0.012  0.00  0.00     0.161 A 
ATOM      5  N3  <0> d           0.002  -0.004   0.002  0.00  0.00    -0.320 N 
ENDROOT
BRANCH   4   6
ATOM      6  C9  <0> d           1.851  -1.767  -0.025  0.00  0.00     0.258 C 
BRANCH   6   7
ATOM      7  C10 <0> d           2.370  -2.101  -1.425  0.00  0.00     0.024 C 
ATOM      8  C15 <0> d           2.921  -3.528  -1.438  0.00  0.00     0.007 C 
ATOM      9  C14 <0> d           3.440  -3.862  -2.838  0.00  0.00     0.000 C 
ATOM     10  C13 <0> d           2.295  -3.747  -3.847  0.00  0.00     0.000 C 
ATOM     11  C12 <0> d           1.745  -2.320  -3.834  0.00  0.00     0.000 C 
ATOM     12  C11 <0> d           1.226  -1.986  -2.434  0.00  0.00     0.007 C 
ENDBRANCH   6   7
BRANCH   6  13
ATOM     13  N4  <0> d           2.950  -1.877   0.944  0.00  0.00    -0.068 N 
ATOM     14  H25 <0> d           3.313  -2.818   0.935  0.00  0.00     0.275 HD
ATOM     15  H26 <0> d           3.684  -1.231   0.694  0.00  0.00     0.275 HD
ATOM     16  H27 <0> d           2.608  -1.657   1.867  0.00  0.00     0.275 HD
ENDBRANCH   6  13
ENDBRANCH   4   6
BRANCH   5  17
ATOM     17  C3  <0> d          -1.156  -0.901   0.009  0.00  0.00     0.092 C 
ATOM     18  C8  <0> d          -2.013  -0.637  -1.231  0.00  0.00     0.026 C 
ATOM     19  C7  <0> d          -3.223  -1.574  -1.224  0.00  0.00     0.002 C 
ATOM     20  C6  <0> d          -4.055  -1.322   0.035  0.00  0.00     0.000 C 
ATOM     21  C5  <0> d          -3.198  -1.586   1.274  0.00  0.00     0.002 C 
ATOM     22  C4  <0> d          -1.989  -0.649   1.267  0.00  0.00     0.026 C 
ENDBRANCH   5  17
TORSDOF 4
