REMARK  3 active torsions:
REMARK  status: ('A' for Active; 'I' for Inactive)
REMARK    1  A    between atoms: C4_4  and  N2_20 
REMARK    2  A    between atoms: C6_6  and  S1_9 
REMARK    3  A    between atoms: S1_9  and  N1_12 
ROOT
ATOM      1  C1  <0> d           1.419  -1.392  -2.104  0.00  0.00     0.049 C 
ATOM      2  C2  <0> d           0.603  -1.162  -0.858  0.00  0.00    -0.052 A 
ATOM      3  C3  <0> d          -0.251  -0.079  -0.782  0.00  0.00     0.036 A 
ATOM      4  C4  <0> d          -1.003   0.131   0.366  0.00  0.00     0.027 A 
ATOM      5  C5  <0> d          -0.893  -0.749   1.436  0.00  0.00     0.054 A 
ATOM      6  C6  <0> d          -0.037  -1.830   1.353  0.00  0.00     0.088 A 
ATOM      7  C7  <0> d           0.706  -2.039   0.206  0.00  0.00    -0.033 A 
ATOM      8  C8  <0> d           1.634  -3.223   0.117  0.00  0.00     0.050 C 
ENDROOT
BRANCH   6   9
ATOM      9  S1  <0> d           0.103  -2.946   2.709  0.00  0.00     0.261 S 
ATOM     10  O1  <0> d          -0.835  -2.518   3.687  0.00  0.00    -0.200 OA
ATOM     11  O2  <0> d           0.086  -4.256   2.159  0.00  0.00    -0.200 OA
BRANCH   9  12
ATOM     12  N1  <0> d           1.606  -2.729   3.369  0.00  0.00    -0.302 N 
ATOM     13  C13 <0> d           1.844  -1.668   4.356  0.00  0.00     0.095 C 
ATOM     14  C12 <0> d           3.017  -0.807   3.890  0.00  0.00     0.005 C 
ATOM     15  C14 <0> d           2.180  -2.294   5.711  0.00  0.00     0.033 C 
ATOM     16  C11 <0> d           4.230  -1.702   3.624  0.00  0.00     0.008 C 
ATOM     17  C15 <0> d           3.365   0.215   4.973  0.00  0.00     0.012 C 
ATOM     18  C10 <0> d           3.893  -2.704   2.517  0.00  0.00     0.021 C 
ATOM     19  C9  <0> d           2.729  -3.590   2.972  0.00  0.00     0.136 C 
ENDBRANCH   9  12
ENDBRANCH   6   9
BRANCH   4  20
ATOM     20  N2  <0> d          -1.867   1.226   0.446  0.00  0.00    -0.399 N 
ATOM     21  H23 <0> d          -1.942   1.840  -0.301  0.00  0.00     0.156 HD
ATOM     22  H24 <0> d          -2.392   1.372   1.249  0.00  0.00     0.156 HD
ENDBRANCH   4  20
TORSDOF 3
