REMARK  4 active torsions:
REMARK  status: ('A' for Active; 'I' for Inactive)
REMARK    1  A    between atoms: C6_6  and  N1_9 
REMARK       I    between atoms: N1_9  and  C9_10 
REMARK    2  A    between atoms: C9_10  and  C10_12 
REMARK    3  A    between atoms: C14_17  and  N3_18 
REMARK    4  A    between atoms: N3_18  and  N4_19 
ROOT
ATOM      1  C10 <0> d           2.760  -4.232   3.605  0.00  0.00     0.080 A 
ATOM      2  C11 <0> d           2.927  -3.406   4.722  0.00  0.00     0.041 A 
ATOM      3  C12 <0> d           3.613  -3.909   5.814  0.00  0.00     0.029 A 
ATOM      4  C13 <0> d           4.110  -5.200   5.772  0.00  0.00     0.138 A 
ATOM      5  N2  <0> d           3.942  -5.962   4.709  0.00  0.00    -0.240 NA
ATOM      6  C14 <0> d           3.288  -5.534   3.640  0.00  0.00     0.153 A 
ATOM      7 Br1  <0> d           3.871  -2.839   7.352  0.00  0.00    -0.050 Br
ENDROOT
BRANCH   1   8
ATOM      8  C9  <0> d           2.037  -3.748   2.415  0.00  0.00     0.255 C 
ATOM      9  N1  <0> d           1.428  -2.546   2.439  0.00  0.00    -0.352 N 
ATOM     10  H16 <0> d           1.465  -2.000   3.240  0.00  0.00     0.163 HD
ATOM     11  O1  <0> d           1.990  -4.432   1.411  0.00  0.00    -0.268 OA
BRANCH   9  12
ATOM     12  C6  <0> d           0.709  -2.064   1.257  0.00  0.00     0.088 C 
ATOM     13  C5  <0> d          -0.715  -2.623   1.263  0.00  0.00     0.025 C 
ATOM     14  C4  <0> d          -1.465  -2.120   0.028  0.00  0.00     0.002 C 
ATOM     15  C3  <0> d          -1.517  -0.591   0.050  0.00  0.00     0.005 C 
ATOM     16  C2  <0> d          -0.092  -0.033   0.044  0.00  0.00    -0.013 C 
ATOM     17  C1  <0> d          -0.144   1.496   0.066  0.00  0.00     0.010 C 
ATOM     18  C7  <0> d           0.658  -0.535   1.279  0.00  0.00     0.008 C 
ATOM     19  C8  <0> d          -0.068  -0.068   2.542  0.00  0.00     0.012 C 
ENDBRANCH   9  12
ENDBRANCH   1   8
BRANCH   6  20
ATOM     20  N3  <0> d           3.131  -6.370   2.550  0.00  0.00    -0.307 N 
ATOM     21  H19 <0> d           2.728  -6.032   1.734  0.00  0.00     0.182 HD
BRANCH  20  22
ATOM     22  N4  <0> d           3.543  -7.670   2.621  0.00  0.00    -0.248 NA
ATOM     23  H20 <0> d           3.107  -8.145   3.397  0.00  0.00     0.143 HD
ATOM     24  H21 <0> d           3.364  -8.154   1.754  0.00  0.00     0.143 HD
ENDBRANCH  20  22
ENDBRANCH   6  20
TORSDOF 4
