REMARK  6 active torsions:
REMARK  status: ('A' for Active; 'I' for Inactive)
REMARK    1  A    between atoms: C3_3  and  N1_15 
REMARK    2  A    between atoms: C4_4  and  O3_14 
REMARK    3  A    between atoms: C10_10  and  O1_11 
REMARK    4  A    between atoms: N1_15  and  C13_17 
REMARK    5  A    between atoms: C13_17  and  C14_18 
REMARK    6  A    between atoms: C14_18  and  O4_19 
ROOT
ATOM      1  C1  <0> d          -0.101   1.537  -0.136  0.00  0.00     0.048 C 
ATOM      2  C2  <0> d          -0.113   0.008  -0.189  0.00  0.00     0.092 C 
ATOM      3  C3  <0> d           0.623  -0.471  -1.446  0.00  0.00     0.255 C 
ATOM      4  C4  <0> d           0.497  -1.995  -1.526  0.00  0.00     0.190 C 
ATOM      5  C5  <0> d           0.842  -2.603  -0.190  0.00  0.00     0.039 A 
ATOM      6  C6  <0> d           0.851  -1.845   0.967  0.00  0.00     0.081 A 
ATOM      7  C7  <0> d           1.170  -2.444   2.182  0.00  0.00     0.037 A 
ATOM      8  C8  <0> d           1.481  -3.788   2.236  0.00  0.00     0.005 A 
ATOM      9  C9  <0> d           1.477  -4.546   1.081  0.00  0.00     0.037 A 
ATOM     10  C10 <0> d           1.157  -3.955  -0.133  0.00  0.00     0.079 A 
ATOM     11  O2  <0> d           0.560  -0.518   0.956  0.00  0.00    -0.338 OA
ATOM     12  C15 <0> d          -1.558  -0.495  -0.213  0.00  0.00     0.048 C 
ENDROOT
BRANCH   3  13
ATOM     13  N1  <0> d           2.041  -0.095  -1.364  0.00  0.00    -0.063 N 
ATOM     14  C12 <0> d           2.688  -0.337  -2.660  0.00  0.00     0.270 C 
ATOM     15  H24 <0> d           2.116   0.883  -1.128  0.00  0.00     0.280 HD
BRANCH  13  16
ATOM     16  C13 <0> d           2.702  -0.901  -0.329  0.00  0.00     0.261 C 
BRANCH  16  17
ATOM     17  C14 <0> d           4.197  -0.577  -0.308  0.00  0.00     0.192 C 
BRANCH  17  18
ATOM     18  O4  <0> d           4.385   0.782   0.092  0.00  0.00    -0.399 OA
ATOM     19  H20 <0> d           5.311   1.057   0.128  0.00  0.00     0.209 HD
ENDBRANCH  17  18
ENDBRANCH  16  17
ENDBRANCH  13  16
ENDBRANCH   3  13
BRANCH   4  20
ATOM     20  O3  <0> d          -0.845  -2.343  -1.873  0.00  0.00    -0.388 OA
ATOM     21  H12 <0> d          -0.999  -3.295  -1.941  0.00  0.00     0.210 HD
ENDBRANCH   4  20
BRANCH  10  22
ATOM     22  O1  <0> d           1.153  -4.701  -1.269  0.00  0.00    -0.355 OA
ATOM     23  C11 <0> d           1.486  -6.084  -1.138  0.00  0.00     0.210 C 
ENDBRANCH  10  22
TORSDOF 6
