REMARK  6 active torsions:
REMARK  status: ('A' for Active; 'I' for Inactive)
REMARK    1  A    between atoms: C2_2  and  O1_3 
REMARK    2  A    between atoms: O1_3  and  C3_4 
REMARK    3  A    between atoms: C3_4  and  C4_6 
REMARK    4  A    between atoms: C5_7  and  C17_24 
REMARK    5  A    between atoms: C15_19  and  N2_21 
REMARK    6  A    between atoms: C17_24  and  C18_26 
ROOT
ATOM      1  C4  <0> d           1.435  -2.369  -2.579  0.00  0.00     0.165 C 
ATOM      2  C5  <0> d           1.641  -3.701  -2.640  0.00  0.00     0.061 C 
ATOM      3  C6  <0> d           2.358  -4.317  -3.806  0.00  0.00     0.145 A 
ATOM      4  C7  <0> d           3.742  -4.759  -3.403  0.00  0.00    -0.003 A 
ATOM      5  C8  <0> d           4.843  -4.084  -2.925  0.00  0.00     0.011 A 
ATOM      6  C9  <0> d           6.006  -4.776  -2.636  0.00  0.00     0.001 A 
ATOM      7  C10 <0> d           6.058  -6.145  -2.828  0.00  0.00     0.002 A 
ATOM      8  C11 <0> d           4.957  -6.824  -3.307  0.00  0.00     0.030 A 
ATOM      9  C12 <0> d           3.782  -6.134  -3.600  0.00  0.00     0.043 A 
ATOM     10  N1  <0> d           2.555  -6.588  -4.085  0.00  0.00    -0.325 N 
ATOM     11  C13 <0> d           1.666  -5.590  -4.234  0.00  0.00     0.246 A 
ATOM     12  O3  <0> d           0.526  -5.692  -4.636  0.00  0.00    -0.271 OA
ATOM     13  C14 <0> d           2.428  -3.351  -4.954  0.00  0.00     0.100 C 
ATOM     14  C15 <0> d           2.177  -2.032  -4.765  0.00  0.00     0.161 C 
ATOM     15  O4  <0> d           1.855  -1.542  -3.556  0.00  0.00    -0.286 OA
ATOM     16  C16 <0> d           2.764  -3.829  -6.262  0.00  0.00     0.101 C 
ATOM     17  N3  <0> d           3.031  -4.207  -7.299  0.00  0.00    -0.191 NA
ATOM     18  H10 <0> d           2.365  -7.517  -4.292  0.00  0.00     0.169 HD
ENDROOT
BRANCH  14  19
ATOM     19  N2  <0> d           2.248  -1.176  -5.837  0.00  0.00    -0.379 N 
ATOM     20  H11 <0> d           2.476  -1.517  -6.715  0.00  0.00     0.158 HD
ATOM     21  H12 <0> d           2.071  -0.230  -5.714  0.00  0.00     0.158 HD
ENDBRANCH  14  19
BRANCH   2  22
ATOM     22  C17 <0> d           1.159  -4.559  -1.552  0.00  0.00     0.193 C 
ATOM     23  O5  <0> d           1.936  -4.964  -0.707  0.00  0.00    -0.287 OA
BRANCH  22  24
ATOM     24  C18 <0> d          -0.270  -4.931  -1.482  0.00  0.00     0.015 A 
ATOM     25  C23 <0> d          -0.748  -5.678  -0.403  0.00  0.00     0.015 A 
ATOM     26  C22 <0> d          -2.083  -6.018  -0.341  0.00  0.00     0.001 A 
ATOM     27  C21 <0> d          -2.946  -5.630  -1.351  0.00  0.00     0.000 A 
ATOM     28  C20 <0> d          -2.478  -4.894  -2.425  0.00  0.00     0.001 A 
ATOM     29  C19 <0> d          -1.147  -4.542  -2.497  0.00  0.00     0.015 A 
ENDBRANCH  22  24
ENDBRANCH   2  22
BRANCH   1  30
ATOM     30  C3  <0> d           0.723  -1.801  -1.412  0.00  0.00     0.318 C 
ATOM     31  O2  <0> d           0.263  -2.539  -0.564  0.00  0.00    -0.257 OA
BRANCH  30  32
ATOM     32  O1  <0> d           0.586  -0.467  -1.290  0.00  0.00    -0.316 OA
BRANCH  32  33
ATOM     33  C2  <0> d          -0.112   0.011  -0.138  0.00  0.00     0.175 C 
ATOM     34  C1  <0> d          -0.166   1.540  -0.172  0.00  0.00     0.034 C 
ENDBRANCH  32  33
ENDBRANCH  30  32
ENDBRANCH   1  30
TORSDOF 6
