REMARK  6 active torsions:
REMARK  status: ('A' for Active; 'I' for Inactive)
REMARK    1  A    between atoms: C2_2  and  C6_7 
REMARK       I    between atoms: C6_7  and  N2_9 
REMARK    2  A    between atoms: N2_9  and  C7_10 
REMARK    3  A    between atoms: C7_10  and  C8_11 
REMARK    4  A    between atoms: C7_10  and  C11_16 
REMARK    5  A    between atoms: C8_11  and  C9_12 
REMARK    6  A    between atoms: C9_12  and  C10_13 
REMARK       I    between atoms: C10_13  and  N3_15 
ROOT
ATOM      1  C6  <0> d           0.659  -0.510  -1.256  0.00  0.00     0.228 C 
ATOM      2  O1  <0> d           1.647  -1.211  -1.185  0.00  0.00    -0.273 OA
ATOM      3  N2  <0> d           0.149  -0.185  -2.461  0.00  0.00    -0.346 N 
ATOM      4  H12 <0> d          -0.641   0.375  -2.517  0.00  0.00     0.163 HD
ENDROOT
BRANCH   3   5
ATOM      5  C7  <0> d           0.787  -0.678  -3.684  0.00  0.00     0.186 C 
BRANCH   5   6
ATOM      6  C8  <0> d           0.462   0.266  -4.844  0.00  0.00     0.045 C 
BRANCH   6   7
ATOM      7  C9  <0> d           1.093   1.634  -4.580  0.00  0.00     0.105 C 
BRANCH   7   8
ATOM      8  C10 <0> d           0.773   2.563  -5.723  0.00  0.00     0.215 C 
ATOM      9  O2  <0> d           0.106   2.170  -6.656  0.00  0.00    -0.274 OA
ATOM     10  N3  <0> d           1.228   3.832  -5.708  0.00  0.00    -0.370 N 
ATOM     11  H17 <0> d           1.762   4.147  -4.962  0.00  0.00     0.159 HD
ATOM     12  H18 <0> d           1.022   4.430  -6.444  0.00  0.00     0.159 HD
ENDBRANCH   7   8
ENDBRANCH   6   7
ENDBRANCH   5   6
BRANCH   5  13
ATOM     13  C11 <0> d           0.271  -2.058  -3.999  0.00  0.00     0.196 C 
ATOM     14  O3  <0> d          -0.860  -2.376  -3.672  0.00  0.00    -0.646 OA
ATOM     15  O4  <0> d           0.985  -2.857  -4.581  0.00  0.00    -0.646 OA
ENDBRANCH   5  13
ENDBRANCH   3   5
BRANCH   1  16
ATOM     16  C2  <0> d           0.002  -0.004   0.002  0.00  0.00     0.062 C 
ATOM     17  C1  <0> d          -0.019   1.526   0.010  0.00  0.00     0.027 C 
ATOM     18  C5  <0> d           0.743  -0.535   1.243  0.00  0.00     0.251 C 
ATOM     19  N1  <0> d          -0.234  -1.320   2.029  0.00  0.00    -0.074 N 
ATOM     20  C4  <0> d          -1.257  -1.783   1.057  0.00  0.00     0.233 C 
ATOM     21  H9  <0> d          -0.661  -0.738   2.733  0.00  0.00     0.277 HD
ATOM     22  H19 <0> d           0.221  -2.111   2.459  0.00  0.00     0.277 HD
ATOM     23  C3  <0> d          -1.435  -0.561   0.121  0.00  0.00     0.048 C 
ENDBRANCH   1  16
TORSDOF 6
