REMARK  6 active torsions:
REMARK  status: ('A' for Active; 'I' for Inactive)
REMARK    1  A    between atoms: C2_2  and  C3_3 
REMARK    2  A    between atoms: C3_3  and  C4_4 
REMARK    3  A    between atoms: C4_4  and  N1_5 
REMARK    4  A    between atoms: N1_5  and  C5_6 
REMARK    5  A    between atoms: N1_5  and  S2_13 
REMARK    6  A    between atoms: S2_13  and  N2_16 
ROOT
ATOM      1  N1  <0> d          -2.791  -2.547  -0.103  0.00  0.00    -0.288 N 
ENDROOT
BRANCH   1   2
ATOM      2  C4  <0> d          -1.350  -2.307   0.006  0.00  0.00     0.137 C 
BRANCH   2   3
ATOM      3  C3  <0> d          -0.616  -3.647   0.093  0.00  0.00     0.020 C 
BRANCH   3   4
ATOM      4  C2  <0> d           0.892  -3.398   0.162  0.00  0.00    -0.003 C 
ATOM      5  C1  <0> d           1.627  -4.737   0.249  0.00  0.00     0.005 C 
ENDBRANCH   3   4
ENDBRANCH   2   3
ENDBRANCH   1   2
BRANCH   1   6
ATOM      6  C5  <0> d          -3.409  -2.712  -1.421  0.00  0.00     0.112 C 
ATOM      7  C8  <0> d          -3.322  -1.376  -2.213  0.00  0.00     0.166 C 
ATOM      8  S1  <0> d          -3.566  -1.988  -3.934  0.00  0.00     0.146 S 
ATOM      9  C7  <0> d          -3.084  -3.748  -3.703  0.00  0.00     0.142 C 
ATOM     10  O1  <0> d          -4.949  -1.926  -4.255  0.00  0.00    -0.228 OA
ATOM     11  O2  <0> d          -2.621  -1.358  -4.788  0.00  0.00    -0.228 OA
ATOM     12  C6  <0> d          -2.653  -3.790  -2.217  0.00  0.00     0.042 C 
ENDBRANCH   1   6
BRANCH   1  13
ATOM     13  S2  <0> d          -3.723  -2.631   1.264  0.00  0.00     0.319 S 
ATOM     14  O3  <0> d          -4.873  -3.393   0.925  0.00  0.00    -0.182 OA
ATOM     15  O4  <0> d          -2.852  -2.996   2.326  0.00  0.00    -0.182 OA
BRANCH  13  16
ATOM     16  N2  <0> d          -4.251  -1.096   1.591  0.00  0.00    -0.291 N 
ATOM     17  C12 <0> d          -5.516  -0.598   1.030  0.00  0.00     0.166 C 
ATOM     18  C11 <0> d          -6.358  -0.020   2.178  0.00  0.00     0.290 C 
ATOM     19  N3  <0> d          -5.565   0.981   2.905  0.00  0.00     0.086 N 
ATOM     20  C10 <0> d          -4.385   0.371   3.533  0.00  0.00     0.290 C 
ATOM     21  H21 <0> d          -6.130   1.463   3.588  0.00  0.00     0.316 HD
ATOM     22  C9  <0> d          -3.465  -0.193   2.445  0.00  0.00     0.166 C 
ENDBRANCH  13  16
ENDBRANCH   1  13
TORSDOF 6
