REMARK  6 active torsions:
REMARK  status: ('A' for Active; 'I' for Inactive)
REMARK    1  A    between atoms: C2_2  and  N1_5 
REMARK       I    between atoms: N1_5  and  C5_6 
REMARK    2  A    between atoms: C5_6  and  C6_8 
REMARK    3  A    between atoms: C6_8  and  C7_9 
REMARK    4  A    between atoms: C6_8  and  N2_23 
REMARK       I    between atoms: N2_23  and  C22_25 
REMARK    5  A    between atoms: C22_25  and  C23_27 
REMARK    6  A    between atoms: C26_30  and  O3_33 
ROOT
ATOM      1  C6  <0> d           2.847  -0.683  -2.564  0.00  0.00     0.213 C 
ENDROOT
BRANCH   1   2
ATOM      2  C5  <0> d           2.171  -0.258  -1.286  0.00  0.00     0.245 C 
ATOM      3  N1  <0> d           0.901  -0.637  -1.037  0.00  0.00    -0.351 N 
ATOM      4  H11 <0> d           0.399  -1.123  -1.710  0.00  0.00     0.163 HD
ATOM      5  O1  <0> d           2.768   0.425  -0.482  0.00  0.00    -0.271 OA
BRANCH   3   6
ATOM      6  C2  <0> d           0.281  -0.317   0.251  0.00  0.00     0.022 C 
ATOM      7  C1  <0> d           0.257   1.201   0.442  0.00  0.00     0.037 C 
ATOM      8  C3  <0> d           1.088  -0.961   1.381  0.00  0.00     0.037 C 
ATOM      9  C4  <0> d          -1.151  -0.856   0.276  0.00  0.00     0.037 C 
ENDBRANCH   3   6
ENDBRANCH   1   2
BRANCH   1  10
ATOM     10  C7  <0> d           2.152  -0.041  -3.737  0.00  0.00    -0.014 A 
ATOM     11  C16 <0> d           2.332  -0.585  -5.030  0.00  0.00    -0.016 A 
ATOM     12  C15 <0> d           1.681   0.003  -6.138  0.00  0.00    -0.014 A 
ATOM     13  C17 <0> d           3.145  -1.709  -5.234  0.00  0.00     0.013 A 
ATOM     14  C14 <0> d           0.839   1.181  -5.915  0.00  0.00    -0.015 A 
ATOM     15  C20 <0> d           1.856  -0.540  -7.412  0.00  0.00     0.013 A 
ATOM     16  C9  <0> d           0.703   1.681  -4.600  0.00  0.00    -0.025 A 
ATOM     17  C13 <0> d           0.173   1.813  -6.968  0.00  0.00     0.013 A 
ATOM     18  C8  <0> d           1.376   1.043  -3.532  0.00  0.00     0.023 A 
ATOM     19  C10 <0> d          -0.101   2.807  -4.377  0.00  0.00     0.012 A 
ATOM     20  C11 <0> d          -0.738   3.403  -5.426  0.00  0.00     0.001 A 
ATOM     21  C12 <0> d          -0.602   2.909  -6.718  0.00  0.00     0.001 A 
ATOM     22  C19 <0> d           2.664  -1.628  -7.579  0.00  0.00     0.001 A 
ATOM     23  C18 <0> d           3.301  -2.213  -6.491  0.00  0.00     0.001 A 
ENDBRANCH   1  10
BRANCH   1  24
ATOM     24  N2  <0> d           4.250  -0.262  -2.538  0.00  0.00    -0.335 N 
ATOM     25  C21 <0> d           4.587   1.163  -2.537  0.00  0.00     0.154 C 
ATOM     26  C22 <0> d           5.230  -1.187  -2.514  0.00  0.00     0.254 C 
ATOM     27  O2  <0> d           4.956  -2.366  -2.625  0.00  0.00    -0.267 OA
BRANCH  26  28
ATOM     28  C23 <0> d           6.636  -0.768  -2.353  0.00  0.00     0.032 A 
ATOM     29  C28 <0> d           7.654  -1.465  -3.008  0.00  0.00     0.020 A 
ATOM     30  C27 <0> d           8.964  -1.068  -2.859  0.00  0.00     0.037 A 
ATOM     31  C26 <0> d           9.275   0.019  -2.051  0.00  0.00     0.065 A 
ATOM     32  C25 <0> d           8.266   0.712  -1.393  0.00  0.00     0.037 A 
ATOM     33  C24 <0> d           6.953   0.324  -1.541  0.00  0.00     0.020 A 
BRANCH  31  34
ATOM     34  O3  <0> d          10.568   0.405  -1.903  0.00  0.00    -0.361 OA
ATOM     35  H28 <0> d          11.025  -0.023  -1.166  0.00  0.00     0.217 HD
ENDBRANCH  31  34
ENDBRANCH  26  28
ENDBRANCH   1  24
TORSDOF 6
