REMARK  6 active torsions:
REMARK  status: ('A' for Active; 'I' for Inactive)
REMARK    1  A    between atoms: C2_2  and  C4_4 
REMARK    2  A    between atoms: C4_4  and  C5_5 
REMARK    3  A    between atoms: C4_4  and  N6_26 
REMARK    4  A    between atoms: N4_12  and  C11_15 
REMARK    5  A    between atoms: C11_15  and  C12_16 
REMARK    6  A    between atoms: N6_26  and  S1_27 
ROOT
ATOM      1  C5  <0> d          -1.937  -0.280  -0.883  0.00  0.00     0.391 C 
ATOM      2  N1  <0> d          -2.325   1.140  -1.003  0.00  0.00    -0.157 NA
ATOM      3  N2  <0> d          -3.492   1.315  -0.599  0.00  0.00    -0.159 NA
ATOM      4  C6  <0> d          -4.043   0.059  -0.117  0.00  0.00     0.370 C 
ATOM      5  N3  <0> d          -3.231  -0.986  -0.855  0.00  0.00     0.145 N 
ATOM      6  C7  <0> d          -3.285  -2.170   0.012  0.00  0.00     0.306 C 
ATOM      7  C8  <0> d          -4.133  -3.235  -0.686  0.00  0.00     0.265 C 
ATOM      8  N4  <0> d          -5.490  -2.673  -1.002  0.00  0.00    -0.064 N 
ATOM      9  C9  <0> d          -5.873  -1.668  -0.030  0.00  0.00     0.239 C 
ATOM     10  C10 <0> d          -5.467  -0.243  -0.431  0.00  0.00     0.089 C 
ATOM     11  H31 <0> d          -5.471  -2.255  -1.921  0.00  0.00     0.280 HD
ENDROOT
BRANCH   8  12
ATOM     12  C11 <0> d          -6.478  -3.760  -0.988  0.00  0.00     0.291 C 
BRANCH  12  13
ATOM     13  C12 <0> d          -6.175  -4.729  -2.102  0.00  0.00     0.036 A 
ATOM     14  C13 <0> d          -5.453  -5.853  -1.970  0.00  0.00     0.040 A 
ATOM     15  C14 <0> d          -5.407  -6.489  -3.288  0.00  0.00    -0.008 A 
ATOM     16  C15 <0> d          -4.821  -7.657  -3.782  0.00  0.00     0.014 A 
ATOM     17  C19 <0> d          -6.142  -5.654  -4.149  0.00  0.00     0.042 A 
ATOM     18  C16 <0> d          -4.966  -7.982  -5.101  0.00  0.00     0.001 A 
ATOM     19  C17 <0> d          -5.691  -7.162  -5.955  0.00  0.00     0.002 A 
ATOM     20  C18 <0> d          -6.276  -6.005  -5.488  0.00  0.00     0.030 A 
ATOM     21  N5  <0> d          -6.600  -4.597  -3.395  0.00  0.00    -0.357 N 
ATOM     22  H4  <0> d          -7.141  -3.865  -3.732  0.00  0.00     0.166 HD
ENDBRANCH  12  13
ENDBRANCH   8  12
BRANCH   1  23
ATOM     23  C4  <0> d          -1.163  -0.520   0.415  0.00  0.00     0.153 C 
BRANCH  23  24
ATOM     24  C2  <0> d           0.065   0.392   0.453  0.00  0.00     0.005 C 
ATOM     25  C1  <0> d           0.887   0.192  -0.822  0.00  0.00     0.012 C 
ATOM     26  C3  <0> d          -0.386   1.851   0.545  0.00  0.00     0.012 C 
ENDBRANCH  23  24
BRANCH  23  27
ATOM     27  N6  <0> d          -0.734  -1.920   0.476  0.00  0.00    -0.311 N 
ATOM     28  H27 <0> d          -0.529  -2.400  -0.341  0.00  0.00     0.172 HD
BRANCH  27  29
ATOM     29  S1  <0> d          -0.600  -2.682   1.940  0.00  0.00     0.223 S 
ATOM     30  O1  <0> d          -0.230  -4.016   1.622  0.00  0.00    -0.206 OA
ATOM     31  O2  <0> d           0.265  -1.852   2.703  0.00  0.00    -0.206 OA
ATOM     32  C20 <0> d          -2.275  -2.648   2.638  0.00  0.00     0.185 C 
ENDBRANCH  27  29
ENDBRANCH  23  27
ENDBRANCH   1  23
TORSDOF 6
