REMARK  3 active torsions:
REMARK  status: ('A' for Active; 'I' for Inactive)
REMARK    1  A    between atoms: C7_9  and  C11_15 
REMARK    2  A    between atoms: C8_10  and  C9_11 
REMARK    3  A    between atoms: C9_11  and  C10_12 
ROOT
ATOM      1  C1  <0> d          -7.733  -5.096  -0.434  0.00  0.00     0.048 C 
ATOM      2  C2  <0> d          -6.986  -3.836  -0.078  0.00  0.00    -0.057 A 
ATOM      3  C3  <0> d          -7.500  -2.962   0.893  0.00  0.00     0.024 A 
ATOM      4  C4  <0> d          -6.833  -1.833   1.215  0.00  0.00     0.099 A 
ATOM      5  N1  <0> d          -5.653  -1.524   0.602  0.00  0.00    -0.308 N 
ATOM      6  C5  <0> d          -5.126  -2.358  -0.350  0.00  0.00     0.135 A 
ATOM      7  C6  <0> d          -5.811  -3.541  -0.697  0.00  0.00     0.057 A 
ATOM      8  N2  <0> d          -3.991  -1.829  -0.785  0.00  0.00    -0.228 NA
ATOM      9  C7  <0> d          -3.765  -0.678  -0.132  0.00  0.00     0.093 A 
ATOM     10  C8  <0> d          -4.794  -0.469   0.736  0.00  0.00     0.054 A 
ENDROOT
BRANCH   9  11
ATOM     11  C11 <0> d          -2.597   0.216  -0.326  0.00  0.00    -0.003 A 
ATOM     12  C16 <0> d          -1.969   0.794   0.774  0.00  0.00     0.053 A 
ATOM     13  C15 <0> d          -0.878   1.628   0.590  0.00  0.00     0.103 A 
ATOM     14  C14 <0> d          -0.410   1.885  -0.694  0.00  0.00     0.102 A 
ATOM     15  O1  <0> d          -0.277   2.187   1.676  0.00  0.00    -0.346 OA
ATOM     16  C13 <0> d          -1.036   1.306  -1.790  0.00  0.00     0.040 A 
ATOM     17  O2  <0> d           0.663   2.698  -0.893  0.00  0.00    -0.346 OA
ATOM     18  C12 <0> d          -2.125   0.479  -1.611  0.00  0.00     0.017 A 
ATOM     19  C18 <0> d           1.036   3.551   0.195  0.00  0.00     0.202 C 
ATOM     20  C17 <0> d           1.039   2.715   1.482  0.00  0.00     0.202 C 
ENDBRANCH   9  11
BRANCH  10  21
ATOM     21  C9  <0> d          -4.955   0.704   1.669  0.00  0.00     0.129 C 
BRANCH  21  22
ATOM     22  C10 <0> d          -4.423   0.340   3.031  0.00  0.00     0.076 C 
ATOM     23  S1  <0> d          -3.811  -1.115   3.288  0.00  0.00    -0.066 SA
ATOM     24  N3  <0> d          -4.463   1.240   4.033  0.00  0.00    -0.393 N 
ATOM     25  H9  <0> d          -4.075   0.975   5.027  0.00  0.00     0.156 HD
ATOM     26  H10 <0> d          -4.884   2.241   3.856  0.00  0.00     0.156 HD
ENDBRANCH  21  22
ENDBRANCH  10  21
TORSDOF 3
