REMARK  7 active torsions:
REMARK  status: ('A' for Active; 'I' for Inactive)
REMARK    1  A    between atoms: C5_5  and  S1_7 
REMARK    2  A    between atoms: S1_7  and  N1_10 
REMARK    3  A    between atoms: N1_10  and  C7_11 
REMARK    4  A    between atoms: C7_11  and  C8_12 
REMARK    5  A    between atoms: C8_12  and  C9_13 
REMARK    6  A    between atoms: C12_16  and  S2_19 
REMARK    7  A    between atoms: S2_19  and  N2_22 
ROOT
ATOM      1  N1  <0> d          -0.721   1.571  -1.179  0.00  0.00    -0.315 N 
ATOM      2  H4  <0> d          -1.621   1.925  -1.096  0.00  0.00     0.172 HD
ENDROOT
BRANCH   1   3
ATOM      3  S1  <0> d           0.013   1.515  -2.662  0.00  0.00     0.261 S 
ATOM      4  O1  <0> d          -0.926   2.024  -3.599  0.00  0.00    -0.200 OA
ATOM      5  O2  <0> d           1.306   2.080  -2.496  0.00  0.00    -0.200 OA
BRANCH   3   6
ATOM      6  C5  <0> d           0.253  -0.184  -3.061  0.00  0.00     0.112 A 
ATOM      7  C4  <0> d           1.125  -0.979  -2.292  0.00  0.00     0.140 A 
ATOM      8  C3  <0> d           1.296  -2.407  -2.657  0.00  0.00     0.119 A 
ATOM      9  N3  <0> d           1.901  -0.853  -1.244  0.00  0.00    -0.101 NA
ATOM     10  C2  <0> d           0.587  -2.910  -3.766  0.00  0.00     0.036 A 
ATOM     11  N4  <0> d           2.145  -2.837  -1.757  0.00  0.00    -0.103 NA
ATOM     12  C1  <0> d          -0.231  -2.084  -4.463  0.00  0.00     0.004 A 
ATOM     13  C6  <0> d          -0.396  -0.738  -4.115  0.00  0.00     0.028 A 
ATOM     14  O5  <0> d           2.432  -1.921  -1.012  0.00  0.00    -0.106 OA
ENDBRANCH   3   6
ENDBRANCH   1   3
BRANCH   1  15
ATOM     15  C7  <0> d          -0.013   1.086   0.008  0.00  0.00     0.137 C 
BRANCH  15  16
ATOM     16  C8  <0> d          -0.729   1.579   1.267  0.00  0.00     0.058 C 
BRANCH  16  17
ATOM     17  C9  <0> d           0.000   1.080   2.488  0.00  0.00    -0.057 A 
ATOM     18  C14 <0> d           1.012   1.838   3.046  0.00  0.00     0.009 A 
ATOM     19  C13 <0> d           1.681   1.380   4.166  0.00  0.00     0.026 A 
ATOM     20  C12 <0> d           1.337   0.164   4.728  0.00  0.00     0.079 A 
ATOM     21  C11 <0> d           0.324  -0.593   4.170  0.00  0.00     0.026 A 
ATOM     22  C10 <0> d          -0.347  -0.133   3.052  0.00  0.00     0.009 A 
BRANCH  20  23
ATOM     23  S2  <0> d           2.190  -0.420   6.154  0.00  0.00     0.256 S 
ATOM     24  O3  <0> d           2.048  -1.834   6.162  0.00  0.00    -0.201 OA
ATOM     25  O4  <0> d           3.459   0.218   6.158  0.00  0.00    -0.201 OA
BRANCH  23  26
ATOM     26  N2  <0> d           1.372   0.145   7.479  0.00  0.00    -0.324 N 
ATOM     27  H13 <0> d           0.579   0.690   7.363  0.00  0.00     0.169 HD
ATOM     28  H14 <0> d           1.687  -0.070   8.371  0.00  0.00     0.169 HD
ENDBRANCH  23  26
ENDBRANCH  20  23
ENDBRANCH  16  17
ENDBRANCH  15  16
ENDBRANCH   1  15
TORSDOF 7
