REMARK  4 active torsions:
REMARK  status: ('A' for Active; 'I' for Inactive)
REMARK    1  A    between atoms: C7_9  and  N2_19 
REMARK    2  A    between atoms: C8_10  and  C11_13 
REMARK    3  A    between atoms: N2_19  and  S1_20 
REMARK    4  A    between atoms: S1_20  and  C17_23 
ROOT
ATOM      1  C1  <0> d           0.084   1.752   0.653  0.00  0.00     0.048 C 
ATOM      2  C2  <0> d           0.098   0.253   0.501  0.00  0.00    -0.061 A 
ATOM      3  C3  <0> d           0.129  -0.304  -0.775  0.00  0.00     0.009 A 
ATOM      4  C4  <0> d           0.143  -1.651  -0.972  0.00  0.00     0.031 A 
ATOM      5  C5  <0> d           0.127  -2.522   0.132  0.00  0.00     0.045 A 
ATOM      6  N1  <0> d           0.141  -3.845  -0.062  0.00  0.00    -0.324 N 
ATOM      7  C6  <0> d           0.127  -4.726   0.919  0.00  0.00     0.250 A 
ATOM      8  O1  <0> d           0.142  -5.916   0.667  0.00  0.00    -0.270 OA
ATOM      9  C7  <0> d           0.094  -4.259   2.356  0.00  0.00     0.220 A 
ATOM     10  C8  <0> d           0.077  -2.763   2.602  0.00  0.00    -0.003 A 
ATOM     11  C9  <0> d           0.094  -1.934   1.476  0.00  0.00     0.001 A 
ATOM     12  C10 <0> d           0.086  -0.530   1.614  0.00  0.00     0.021 A 
ATOM     13  H19 <0> d           0.162  -4.174  -0.975  0.00  0.00     0.169 HD
ENDROOT
BRANCH   9  14
ATOM     14  N2  <0> d          -1.098  -4.831   2.987  0.00  0.00    -0.297 N 
ATOM     15  H13 <0> d          -1.956  -4.388   2.894  0.00  0.00     0.173 HD
BRANCH  14  16
ATOM     16  S1  <0> d          -0.981  -6.234   3.860  0.00  0.00     0.259 S 
ATOM     17  O2  <0> d          -2.283  -6.513   4.356  0.00  0.00    -0.201 OA
ATOM     18  O3  <0> d          -0.259  -7.154   3.054  0.00  0.00    -0.201 OA
BRANCH  16  19
ATOM     19  C17 <0> d           0.030  -5.892   5.262  0.00  0.00     0.079 A 
ATOM     20  C22 <0> d          -0.546  -5.449   6.438  0.00  0.00     0.025 A 
ATOM     21  C21 <0> d           0.246  -5.185   7.539  0.00  0.00     0.002 A 
ATOM     22  C20 <0> d           1.616  -5.355   7.462  0.00  0.00     0.000 A 
ATOM     23  C19 <0> d           2.193  -5.792   6.284  0.00  0.00     0.002 A 
ATOM     24  C18 <0> d           1.400  -6.060   5.184  0.00  0.00     0.025 A 
ENDBRANCH  16  19
ENDBRANCH  14  16
ENDBRANCH   9  14
BRANCH  10  25
ATOM     25  C11 <0> d           0.045  -2.228   3.915  0.00  0.00    -0.026 A 
ATOM     26  C16 <0> d          -1.070  -1.494   4.353  0.00  0.00     0.012 A 
ATOM     27  C15 <0> d          -1.093  -0.984   5.631  0.00  0.00     0.001 A 
ATOM     28  C14 <0> d          -0.017  -1.183   6.481  0.00  0.00     0.000 A 
ATOM     29  C13 <0> d           1.090  -1.900   6.057  0.00  0.00     0.001 A 
ATOM     30  C12 <0> d           1.131  -2.423   4.784  0.00  0.00     0.012 A 
ENDBRANCH  10  25
TORSDOF 4
