REMARK  7 active torsions:
REMARK  status: ('A' for Active; 'I' for Inactive)
REMARK    1  A    between atoms: C2_2  and  C3_3 
REMARK    2  A    between atoms: C3_3  and  N1_4 
REMARK    3  A    between atoms: C15_17  and  C18_21 
REMARK    4  A    between atoms: C22_27  and  N2_34 
REMARK    5  A    between atoms: C23_28  and  C24_29 
REMARK    6  A    between atoms: C24_29  and  O6_31 
REMARK    7  A    between atoms: O6_31  and  C25_32 
ROOT
ATOM      1  N1  <0> d          -2.602   5.873   1.150  0.00  0.00    -0.316 N 
ATOM      2  C4  <0> d          -2.907   5.900  -0.199  0.00  0.00     0.045 A 
ATOM      3  C5  <0> d          -3.218   6.988  -1.016  0.00  0.00     0.030 A 
ATOM      4  C6  <0> d          -3.486   6.723  -2.350  0.00  0.00     0.002 A 
ATOM      5  C7  <0> d          -3.451   5.442  -2.862  0.00  0.00     0.001 A 
ATOM      6  C8  <0> d          -3.142   4.350  -2.059  0.00  0.00     0.011 A 
ATOM      7  C9  <0> d          -2.873   4.605  -0.731  0.00  0.00    -0.004 A 
ATOM      8  C10 <0> d          -2.508   3.696   0.400  0.00  0.00     0.141 A 
ATOM      9  C11 <0> d          -2.355   4.622   1.589  0.00  0.00     0.247 A 
ATOM     10  O1  <0> d          -2.065   4.299   2.721  0.00  0.00    -0.271 OA
ATOM     11  C12 <0> d          -3.608   2.702   0.667  0.00  0.00     0.045 C 
ATOM     12  C13 <0> d          -3.466   1.414   0.300  0.00  0.00     0.068 C 
ATOM     13  C14 <0> d          -4.563   0.411   0.571  0.00  0.00     0.077 C 
ATOM     14  C15 <0> d          -5.316   0.803   1.844  0.00  0.00     0.056 C 
ATOM     15  C16 <0> d          -5.896   2.208   1.651  0.00  0.00     0.095 C 
ATOM     16  C17 <0> d          -4.775   3.154   1.313  0.00  0.00     0.160 C 
ATOM     17  O2  <0> d          -4.879   4.329   1.603  0.00  0.00    -0.293 OA
ATOM     18  O4  <0> d          -2.352   0.980  -0.318  0.00  0.00    -0.297 OA
ATOM     19  C22 <0> d          -1.210   1.674  -0.212  0.00  0.00     0.155 C 
ATOM     20  C23 <0> d          -1.211   2.989   0.133  0.00  0.00     0.095 C 
ENDROOT
BRANCH  20  21
ATOM     21  C24 <0> d           0.002   3.688   0.235  0.00  0.00     0.295 C 
ATOM     22  O5  <0> d           1.059   3.092   0.128  0.00  0.00    -0.259 OA
BRANCH  21  23
ATOM     23  O6  <0> d          -0.003   5.021   0.451  0.00  0.00    -0.318 OA
BRANCH  23  24
ATOM     24  C25 <0> d           1.268   5.668   0.544  0.00  0.00     0.174 C 
ATOM     25  C26 <0> d           1.061   7.164   0.789  0.00  0.00     0.034 C 
ENDBRANCH  23  24
ENDBRANCH  21  23
ENDBRANCH  20  21
BRANCH  19  26
ATOM     26  N2  <0> d          -0.018   1.044  -0.450  0.00  0.00    -0.379 N 
ATOM     27  H25 <0> d           0.926   1.602  -0.366  0.00  0.00     0.158 HD
ATOM     28  H26 <0> d          -0.004  -0.021  -0.725  0.00  0.00     0.158 HD
ENDBRANCH  19  26
BRANCH   1  29
ATOM     29  C3  <0> d          -2.553   7.064   2.002  0.00  0.00     0.132 C 
BRANCH  29  30
ATOM     30  C2  <0> d          -3.934   7.312   2.612  0.00  0.00     0.016 C 
ATOM     31  C1  <0> d          -3.884   8.556   3.501  0.00  0.00     0.006 C 
ENDBRANCH  29  30
ENDBRANCH   1  29
BRANCH  14  32
ATOM     32  C18 <0> d          -6.434  -0.177   2.093  0.00  0.00     0.057 A 
ATOM     33  O3  <0> d          -7.463  -0.420   1.266  0.00  0.00    -0.327 OA
ATOM     34  C21 <0> d          -8.263  -1.353   1.809  0.00  0.00     0.142 A 
ATOM     35  C20 <0> d          -7.752  -1.709   3.001  0.00  0.00     0.027 A 
ATOM     36  C19 <0> d          -6.573  -0.951   3.184  0.00  0.00     0.035 A 
ENDBRANCH  14  32
TORSDOF 7
