REMARK  6 active torsions:
REMARK  status: ('A' for Active; 'I' for Inactive)
REMARK    1  A    between atoms: C7_8  and  N2_13 
REMARK    2  A    between atoms: C8_9  and  C9_10 
REMARK       I    between atoms: C9_10  and  N1_12 
REMARK       I    between atoms: N2_13  and  C10_14 
REMARK    3  A    between atoms: C10_14  and  C11_16 
REMARK    4  A    between atoms: C11_16  and  C12_17 
REMARK    5  A    between atoms: C12_17  and  C13_18 
REMARK    6  A    between atoms: C13_18  and  C14_19 
ROOT
ATOM      1  N2  <0> d           1.942  -5.826   1.699  0.00  0.00    -0.320 N 
ATOM      2  C10 <0> d           2.253  -6.086   2.984  0.00  0.00     0.222 C 
ATOM      3  O2  <0> d           2.232  -5.193   3.805  0.00  0.00    -0.273 OA
ATOM      4  H11 <0> d           1.959  -6.540   1.042  0.00  0.00     0.169 HD
ENDROOT
BRANCH   1   5
ATOM      5  C7  <0> d           1.599  -4.539   1.315  0.00  0.00     0.093 A 
ATOM      6  S1  <0> d           1.508  -3.164   2.276  0.00  0.00    -0.075 SA
ATOM      7  C6  <0> d           1.019  -1.977   1.059  0.00  0.00    -0.008 A 
ATOM      8  C5  <0> d           0.935  -2.680  -0.091  0.00  0.00    -0.026 A 
ATOM      9  C22 <0> d           0.750  -0.515   1.242  0.00  0.00     0.051 C 
ATOM     10  C4  <0> d           0.537  -2.012  -1.399  0.00  0.00     0.041 C 
ATOM     11  C8  <0> d           1.254  -4.090   0.050  0.00  0.00     0.072 A 
ATOM     12  C3  <0> d           0.724  -0.500  -1.254  0.00  0.00     0.009 C 
ATOM     13  C2  <0> d           0.002  -0.004   0.002  0.00  0.00    -0.014 C 
ATOM     14  C1  <0> d          -0.019   1.526   0.010  0.00  0.00     0.010 C 
BRANCH  11  15
ATOM     15  C9  <0> d           1.212  -5.001  -1.099  0.00  0.00     0.252 C 
ATOM     16  O1  <0> d           2.208  -5.170  -1.778  0.00  0.00    -0.268 OA
ATOM     17  N1  <0> d           0.071  -5.651  -1.402  0.00  0.00    -0.366 N 
ATOM     18  H9  <0> d          -0.722  -5.516  -0.860  0.00  0.00     0.159 HD
ATOM     19  H10 <0> d           0.043  -6.254  -2.161  0.00  0.00     0.159 HD
ENDBRANCH  11  15
ENDBRANCH   1   5
BRANCH   2  20
ATOM     20  C11 <0> d           2.626  -7.485   3.402  0.00  0.00     0.103 C 
BRANCH  20  21
ATOM     21  C12 <0> d           2.930  -7.506   4.901  0.00  0.00     0.013 C 
BRANCH  21  22
ATOM     22  C13 <0> d           3.308  -8.927   5.325  0.00  0.00     0.037 C 
BRANCH  22  23
ATOM     23  C14 <0> d           3.607  -8.947   6.802  0.00  0.00    -0.050 A 
ATOM     24  C21 <0> d           4.925  -8.618   7.467  0.00  0.00     0.155 A 
ATOM     25  N3  <0> d           4.701  -8.783   8.908  0.00  0.00    -0.385 N 
ATOM     26  C20 <0> d           3.459  -9.159   9.097  0.00  0.00     0.038 A 
ATOM     27  H26 <0> d           5.362  -8.641   9.603  0.00  0.00     0.160 HD
ATOM     28  C15 <0> d           2.754  -9.270   7.800  0.00  0.00    -0.006 A 
ATOM     29  C19 <0> d           2.731  -9.458  10.281  0.00  0.00     0.030 A 
ATOM     30  C16 <0> d           1.345  -9.681   7.810  0.00  0.00     0.014 A 
ATOM     31  C17 <0> d           0.746  -9.943   8.994  0.00  0.00     0.001 A 
ATOM     32  C18 <0> d           1.435  -9.830  10.209  0.00  0.00     0.002 A 
ENDBRANCH  22  23
ENDBRANCH  21  22
ENDBRANCH  20  21
ENDBRANCH   2  20
TORSDOF 6
