REMARK  5 active torsions:
REMARK  status: ('A' for Active; 'I' for Inactive)
REMARK    1  A    between atoms: C2_2  and  C3_3 
REMARK    2  A    between atoms: C3_3  and  C4_4 
REMARK    3  A    between atoms: C3_3  and  N3_18 
REMARK    4  A    between atoms: C4_4  and  C5_5 
REMARK    5  A    between atoms: C4_4  and  N1_10 
ROOT
ATOM      1  C4  <0> d           0.630  -2.023  -1.329  0.00  0.00     0.197 C 
ENDROOT
BRANCH   1   2
ATOM      2  C3  <0> d           0.718  -0.497  -1.257  0.00  0.00     0.214 C 
BRANCH   2   3
ATOM      3  C2  <0> d           0.002  -0.004   0.002  0.00  0.00     0.031 C 
ATOM      4  C1  <0> d          -0.019   1.526   0.010  0.00  0.00     0.007 C 
ENDBRANCH   2   3
BRANCH   2   5
ATOM      5  N3  <0> d           2.129  -0.090  -1.209  0.00  0.00    -0.073 N 
ATOM      6  H17 <0> d           2.567  -0.491  -0.394  0.00  0.00     0.274 HD
ATOM      7  H18 <0> d           2.601  -0.415  -2.039  0.00  0.00     0.274 HD
ATOM      8  H19 <0> d           2.187   0.916  -1.162  0.00  0.00     0.274 HD
ENDBRANCH   2   5
ENDBRANCH   1   2
BRANCH   1   9
ATOM      9  C5  <0> d           1.336  -2.509  -2.568  0.00  0.00     0.079 A 
ATOM     10  O1  <0> d           1.020  -2.180  -3.832  0.00  0.00    -0.325 OA
ATOM     11  C8  <0> d           1.863  -2.794  -4.678  0.00  0.00     0.142 A 
ATOM     12  C7  <0> d           2.724  -3.535  -3.958  0.00  0.00     0.027 A 
ATOM     13  C6  <0> d           2.384  -3.351  -2.598  0.00  0.00     0.037 A 
ENDBRANCH   1   9
BRANCH   1  14
ATOM     14  N1  <0> d          -0.776  -2.430  -1.376  0.00  0.00    -0.260 N 
ATOM     15  N2  <0> d          -1.706  -2.069  -2.361  0.00  0.00    -0.175 NA
ATOM     16  C11 <0> d          -2.852  -2.625  -2.064  0.00  0.00     0.070 A 
ATOM     17  C10 <0> d          -2.693  -3.350  -0.877  0.00  0.00     0.060 A 
ATOM     18  C12 <0> d          -4.126  -2.502  -2.860  0.00  0.00     0.074 C 
ATOM     19  C9  <0> d          -1.408  -3.213  -0.475  0.00  0.00     0.047 A 
ATOM     20 Br1  <0> d          -4.036  -4.345   0.008  0.00  0.00    -0.047 Br
ATOM     21  C13 <0> d          -0.792  -3.826   0.756  0.00  0.00     0.071 C 
ENDBRANCH   1  14
TORSDOF 5
