REMARK  8 active torsions:
REMARK  status: ('A' for Active; 'I' for Inactive)
REMARK    1  A    between atoms: C2_2  and  C3_3 
REMARK    2  A    between atoms: C3_3  and  C4_4 
REMARK    3  A    between atoms: C4_4  and  N1_5 
REMARK       I    between atoms: N1_5  and  C5_6 
REMARK       I    between atoms: C5_6  and  N2_8 
REMARK       I    between atoms: N2_8  and  C6_9 
REMARK    4  A    between atoms: C6_9  and  C7_11 
REMARK    5  A    between atoms: C7_11  and  S1_12 
REMARK    6  A    between atoms: S1_12  and  C8_13 
REMARK    7  A    between atoms: N4_23  and  C16_24 
REMARK    8  A    between atoms: C16_24  and  C18_26 
ROOT
ATOM      1  C8  <0> d           0.174   0.961   2.735  0.00  0.00     0.173 A 
ATOM      2  N3  <0> d           1.207   0.251   2.354  0.00  0.00    -0.224 NA
ATOM      3  C9  <0> d           2.040  -0.321   3.248  0.00  0.00     0.075 A 
ATOM      4  C10 <0> d           3.142  -1.079   2.841  0.00  0.00     0.032 A 
ATOM      5  C11 <0> d           3.960  -1.640   3.781  0.00  0.00     0.002 A 
ATOM      6  C12 <0> d           3.714  -1.469   5.137  0.00  0.00     0.001 A 
ATOM      7  C13 <0> d           2.644  -0.733   5.566  0.00  0.00     0.019 A 
ATOM      8  C14 <0> d           1.793  -0.149   4.629  0.00  0.00     0.061 A 
ATOM      9  C15 <0> d           0.628   0.652   5.031  0.00  0.00     0.263 A 
ATOM     10  O3  <0> d           0.363   0.836   6.204  0.00  0.00    -0.267 OA
ATOM     11  N4  <0> d          -0.136   1.182   4.047  0.00  0.00    -0.278 N 
ENDROOT
BRANCH   1  12
ATOM     12  S1  <0> d          -0.860   1.669   1.497  0.00  0.00    -0.082 SA
BRANCH  12  13
ATOM     13  C7  <0> d          -0.013   1.086   0.008  0.00  0.00     0.185 C 
BRANCH  13  14
ATOM     14  C6  <0> d          -0.742   1.585  -1.213  0.00  0.00     0.235 C 
ATOM     15  N2  <0> d          -0.288   1.272  -2.443  0.00  0.00    -0.279 N 
ATOM     16  C5  <0> d          -0.940   1.719  -3.535  0.00  0.00     0.322 C 
ATOM     17  H12 <0> d           0.507   0.726  -2.543  0.00  0.00     0.173 HD
ATOM     18  N1  <0> d          -0.487   1.406  -4.765  0.00  0.00    -0.343 N 
ATOM     19  O1  <0> d          -1.937   2.403  -3.410  0.00  0.00    -0.247 OA
ATOM     20  H11 <0> d           0.308   0.860  -4.865  0.00  0.00     0.164 HD
ATOM     21  O2  <0> d          -1.736   2.268  -1.089  0.00  0.00    -0.272 OA
BRANCH  18  22
ATOM     22  C4  <0> d          -1.196   1.891  -5.952  0.00  0.00     0.124 C 
BRANCH  22  23
ATOM     23  C3  <0> d          -0.480   1.398  -7.211  0.00  0.00     0.019 C 
BRANCH  23  24
ATOM     24  C2  <0> d          -1.220   1.905  -8.450  0.00  0.00    -0.003 C 
ATOM     25  C1  <0> d          -0.503   1.411  -9.709  0.00  0.00     0.005 C 
ENDBRANCH  23  24
ENDBRANCH  22  23
ENDBRANCH  18  22
ENDBRANCH  13  14
ENDBRANCH  12  13
ENDBRANCH   1  12
BRANCH  11  26
ATOM     26  C16 <0> d          -1.306   1.993   4.391  0.00  0.00     0.192 C 
ATOM     27  C17 <0> d          -0.861   3.209   5.207  0.00  0.00     0.044 C 
BRANCH  26  28
ATOM     28  C18 <0> d          -2.268   1.167   5.205  0.00  0.00     0.197 C 
ATOM     29  O4  <0> d          -2.003   0.018   5.470  0.00  0.00    -0.646 OA
ATOM     30  O5  <0> d          -3.419   1.707   5.636  0.00  0.00    -0.646 OA
ENDBRANCH  26  28
ENDBRANCH  11  26
TORSDOF 8
