REMARK  7 active torsions:
REMARK  status: ('A' for Active; 'I' for Inactive)
REMARK       I    between atoms: C2_2  and  N1_4 
REMARK    1  A    between atoms: N1_4  and  C3_5 
REMARK    2  A    between atoms: C3_5  and  C4_6 
REMARK    3  A    between atoms: C4_6  and  C5_7 
REMARK    4  A    between atoms: C5_7  and  C6_8 
REMARK    5  A    between atoms: C6_8  and  N2_9 
REMARK       I    between atoms: N2_9  and  C7_10 
REMARK    6  A    between atoms: C7_10  and  C8_12 
REMARK    7  A    between atoms: C12_16  and  N3_18 
ROOT
ATOM      1  C8  <0> d           0.065  -8.281  -5.263  0.00  0.00     0.034 A 
ATOM      2  C9  <0> d           0.080  -8.988  -4.059  0.00  0.00     0.017 A 
ATOM      3  C10 <0> d           0.099 -10.368  -4.069  0.00  0.00     0.003 A 
ATOM      4  C11 <0> d           0.103 -11.055  -5.269  0.00  0.00     0.031 A 
ATOM      5  C12 <0> d           0.087 -10.361  -6.473  0.00  0.00     0.054 A 
ATOM      6  C13 <0> d           0.063  -8.975  -6.473  0.00  0.00     0.048 A 
ENDROOT
BRANCH   1   7
ATOM      7  C7  <0> d           0.045  -6.803  -5.255  0.00  0.00     0.251 C 
ATOM      8  N2  <0> d           0.047  -6.136  -4.084  0.00  0.00    -0.357 N 
ATOM      9  H13 <0> d           0.061  -6.625  -3.246  0.00  0.00     0.162 HD
ATOM     10  O2  <0> d           0.026  -6.190  -6.304  0.00  0.00    -0.268 OA
BRANCH   8  11
ATOM     11  C6  <0> d           0.027  -4.671  -4.076  0.00  0.00     0.123 C 
BRANCH  11  12
ATOM     12  C5  <0> d           0.034  -4.168  -2.631  0.00  0.00     0.021 C 
BRANCH  12  13
ATOM     13  C4  <0> d           0.013  -2.639  -2.622  0.00  0.00     0.021 C 
BRANCH  13  14
ATOM     14  C3  <0> d           0.020  -2.136  -1.177  0.00  0.00     0.122 C 
BRANCH  14  15
ATOM     15  N1  <0> d           0.000  -0.672  -1.169  0.00  0.00    -0.361 N 
ATOM     16  C2  <0> d           0.002  -0.004   0.002  0.00  0.00     0.213 C 
ATOM     17  C1  <0> d          -0.018   1.503   0.010  0.00  0.00     0.117 C 
ATOM     18  O1  <0> d           0.020  -0.616   1.049  0.00  0.00    -0.274 OA
ATOM     19  H4  <0> d          -0.015  -0.182  -2.006  0.00  0.00     0.162 HD
ENDBRANCH  14  15
ENDBRANCH  13  14
ENDBRANCH  12  13
ENDBRANCH  11  12
ENDBRANCH   8  11
ENDBRANCH   1   7
BRANCH   5  20
ATOM     20  N3  <0> d           0.091 -11.061  -7.684  0.00  0.00    -0.209 N 
ATOM     21  S1  <0> d          -0.461 -12.624  -7.921  0.00  0.00     0.240 S 
ATOM     22  C16 <0> d           0.236 -12.949  -9.590  0.00  0.00     0.173 C 
ATOM     23  O4  <0> d           0.190 -13.415  -6.935  0.00  0.00    -0.205 OA
ATOM     24  O5  <0> d          -1.877 -12.527  -7.975  0.00  0.00    -0.205 OA
ATOM     25  C15 <0> d           0.430 -11.485 -10.066  0.00  0.00     0.121 C 
ATOM     26  C14 <0> d           0.543 -10.600  -8.861  0.00  0.00     0.238 C 
ATOM     27  O3  <0> d           1.033  -9.494  -8.947  0.00  0.00    -0.272 OA
ENDBRANCH   5  20
TORSDOF 7
