REMARK  4 active torsions:
REMARK  status: ('A' for Active; 'I' for Inactive)
REMARK    1  A    between atoms: C2_2  and  C3_3 
REMARK    2  A    between atoms: C2_2  and  S1_9 
REMARK       I    between atoms: C3_3  and  N1_5 
REMARK       I    between atoms: N1_5  and  C4_6 
REMARK       I    between atoms: C4_6  and  N2_8 
REMARK    3  A    between atoms: S1_9  and  C5_10 
REMARK    4  A    between atoms: C6_12  and  C7_16 
ROOT
ATOM      1  C5  <0> d           2.533  -0.042   1.241  0.00  0.00     0.185 A 
ATOM      2  N3  <0> d           2.977   0.653   0.216  0.00  0.00    -0.201 NA
ATOM      3  C6  <0> d           4.284   0.906   0.375  0.00  0.00     0.183 A 
ATOM      4  N4  <0> d           4.686   0.372   1.506  0.00  0.00    -0.152 NA
ATOM      5  H2  <0> d           3.540  -0.723   2.932  0.00  0.00     0.191 HD
ATOM      6  N5  <0> d           3.566  -0.244   2.088  0.00  0.00    -0.253 N 
ENDROOT
BRANCH   1   7
ATOM      7  S1  <0> d           0.879  -0.605   1.472  0.00  0.00    -0.076 SA
BRANCH   7   8
ATOM      8  C2  <0> d           0.002  -0.004   0.002  0.00  0.00     0.143 C 
ATOM      9  C1  <0> d          -0.019   1.526   0.010  0.00  0.00     0.031 C 
BRANCH   8  10
ATOM     10  C3  <0> d          -1.412  -0.526   0.013  0.00  0.00     0.239 C 
ATOM     11  O1  <0> d          -1.939  -0.827   1.062  0.00  0.00    -0.272 OA
ATOM     12  N1  <0> d          -2.090  -0.657  -1.144  0.00  0.00    -0.279 N 
ATOM     13  C4  <0> d          -3.355  -1.124  -1.135  0.00  0.00     0.320 C 
ATOM     14  H6  <0> d          -1.669  -0.416  -1.984  0.00  0.00     0.173 HD
ATOM     15  O2  <0> d          -3.883  -1.426  -0.083  0.00  0.00    -0.247 OA
ATOM     16  N2  <0> d          -4.033  -1.255  -2.292  0.00  0.00    -0.352 N 
ATOM     17  H7  <0> d          -3.611  -1.014  -3.131  0.00  0.00     0.160 HD
ATOM     18  H8  <0> d          -4.943  -1.591  -2.285  0.00  0.00     0.160 HD
ENDBRANCH   8  10
ENDBRANCH   7   8
ENDBRANCH   1   7
BRANCH   3  19
ATOM     19  C7  <0> d           5.137   1.665  -0.572  0.00  0.00     0.031 A 
ATOM     20  C12 <0> d           6.489   1.861  -0.293  0.00  0.00     0.025 A 
ATOM     21  C11 <0> d           7.280   2.564  -1.181  0.00  0.00     0.020 A 
ATOM     22 Br1  <0> d           7.240   1.161   1.295  0.00  0.00    -0.050 Br
ATOM     23  C10 <0> d           6.730   3.081  -2.340  0.00  0.00     0.001 A 
ATOM     24  C9  <0> d           5.388   2.894  -2.619  0.00  0.00     0.001 A 
ATOM     25  C8  <0> d           4.590   2.188  -1.741  0.00  0.00     0.017 A 
ENDBRANCH   3  19
TORSDOF 4
