REMARK  2 active torsions:
REMARK  status: ('A' for Active; 'I' for Inactive)
REMARK    1  A    between atoms: C2_3  and  C11_18 
REMARK    2  A    between atoms: C3_4  and  C5_7 
ROOT
ATOM      1  C5  <0> d          -0.406  -3.286  -1.520  0.00  0.00     0.069 C 
ATOM      2  C6  <0> d          -1.679  -4.001  -1.061  0.00  0.00     0.117 C 
ATOM      3  C7  <0> d          -1.463  -4.769   0.210  0.00  0.00     0.224 C 
ATOM      4  O1  <0> d          -2.353  -4.793   1.032  0.00  0.00    -0.273 OA
ATOM      5  N3  <0> d          -0.319  -5.434   0.477  0.00  0.00    -0.310 N 
ATOM      6  C8  <0> d           0.756  -5.271  -0.411  0.00  0.00     0.158 A 
ATOM      7  C9  <0> d           0.750  -4.244  -1.385  0.00  0.00     0.016 A 
ATOM      8  C10 <0> d           1.894  -4.323  -2.079  0.00  0.00     0.121 A 
ATOM      9  N4  <0> d           2.608  -5.358  -1.579  0.00  0.00    -0.287 N 
ATOM     10  H2  <0> d           3.479  -5.651  -1.888  0.00  0.00     0.188 HD
ATOM     11  N5  <0> d           1.866  -5.936  -0.532  0.00  0.00    -0.156 NA
ATOM     12  H9  <0> d          -0.242  -6.006   1.256  0.00  0.00     0.170 HD
ENDROOT
BRANCH   1  13
ATOM     13  C3  <0> d          -0.165  -2.074  -0.658  0.00  0.00    -0.005 A 
ATOM     14  C2  <0> d          -0.087  -0.793  -1.089  0.00  0.00     0.042 A 
ATOM     15  N1  <0> d           0.136  -0.010  -0.013  0.00  0.00    -0.278 N 
ATOM     16  C1  <0> d           0.287   1.447  -0.024  0.00  0.00     0.179 C 
ATOM     17  N2  <0> d           0.203  -0.837   1.116  0.00  0.00    -0.185 NA
ATOM     18  C4  <0> d           0.017  -2.073   0.729  0.00  0.00     0.148 A 
BRANCH  14  19
ATOM     19  C11 <0> d          -0.226  -0.326  -2.515  0.00  0.00     0.038 A 
ATOM     20  C13 <0> d           0.986   0.353  -3.156  0.00  0.00     0.011 A 
ATOM     21  C12 <0> d           0.588  -1.062  -3.582  0.00  0.00     0.011 A 
ENDBRANCH  14  19
ENDBRANCH   1  13
TORSDOF 2
