REMARK  6 active torsions:
REMARK  status: ('A' for Active; 'I' for Inactive)
REMARK    1  A    between atoms: C3_3  and  C11_13 
REMARK    2  A    between atoms: C4_4  and  C5_7 
REMARK       I    between atoms: C11_13  and  N2_15 
REMARK    3  A    between atoms: C13_17  and  C20_25 
REMARK       I    between atoms: C20_25  and  N4_27 
REMARK    4  A    between atoms: N4_27  and  C21_28 
REMARK    5  A    between atoms: C21_28  and  C22_29 
REMARK    6  A    between atoms: C22_29  and  N5_30 
ROOT
ATOM      1  C11 <0> d          -2.664  -0.382  -0.023  0.00  0.00     0.258 C 
ATOM      2  O2  <0> d          -3.260  -0.141  -1.056  0.00  0.00    -0.267 OA
ATOM      3  N2  <0> d          -3.262  -0.169   1.166  0.00  0.00    -0.346 N 
ATOM      4  C12 <0> d          -2.701  -0.394   2.519  0.00  0.00     0.141 C 
ATOM      5  C13 <0> d          -3.211   0.801   3.356  0.00  0.00     0.106 C 
ATOM      6  C14 <0> d          -4.479   1.278   2.628  0.00  0.00    -0.007 C 
ATOM      7  C15 <0> d          -4.629   0.348   1.415  0.00  0.00     0.136 C 
ATOM      8  C16 <0> d          -4.309   2.720   2.161  0.00  0.00     0.039 C 
ATOM      9  C17 <0> d          -5.603   3.191   1.491  0.00  0.00     0.233 C 
ATOM     10  N3  <0> d          -6.714   3.091   2.445  0.00  0.00    -0.075 N 
ATOM     11  C18 <0> d          -6.930   1.688   2.817  0.00  0.00     0.233 C 
ATOM     12  C19 <0> d          -5.692   1.154   3.544  0.00  0.00     0.039 C 
ATOM     13  H18 <0> d          -6.495   3.627   3.271  0.00  0.00     0.277 HD
ATOM     14  H36 <0> d          -7.553   3.458   2.021  0.00  0.00     0.277 HD
ENDROOT
BRANCH   1  15
ATOM     15  C3  <0> d          -1.288  -0.905  -0.071  0.00  0.00     0.095 A 
ATOM     16  C2  <0> d          -0.138  -0.171  -0.084  0.00  0.00     0.093 A 
ATOM     17  C1  <0> d          -0.051   1.333  -0.051  0.00  0.00     0.080 C 
ATOM     18  O1  <0> d           0.896  -1.014  -0.137  0.00  0.00    -0.217 OA
ATOM     19  N1  <0> d           0.420  -2.344  -0.150  0.00  0.00    -0.127 NA
ATOM     20  C4  <0> d          -0.888  -2.319  -0.115  0.00  0.00     0.113 A 
BRANCH  20  21
ATOM     21  C5  <0> d          -1.795  -3.494  -0.119  0.00  0.00    -0.004 A 
ATOM     22  C10 <0> d          -1.459  -4.634  -0.846  0.00  0.00     0.014 A 
ATOM     23  C9  <0> d          -2.303  -5.726  -0.842  0.00  0.00     0.001 A 
ATOM     24  C8  <0> d          -3.486  -5.685  -0.126  0.00  0.00     0.000 A 
ATOM     25  C7  <0> d          -3.828  -4.554   0.593  0.00  0.00     0.001 A 
ATOM     26  C6  <0> d          -2.988  -3.458   0.600  0.00  0.00     0.014 A 
ENDBRANCH  20  21
ENDBRANCH   1  15
BRANCH   5  27
ATOM     27  C20 <0> d          -3.543   0.355   4.757  0.00  0.00     0.224 C 
ATOM     28  O3  <0> d          -3.934  -0.775   4.957  0.00  0.00    -0.273 OA
ATOM     29  N4  <0> d          -3.406   1.214   5.787  0.00  0.00    -0.359 N 
ATOM     30  H23 <0> d          -3.094   2.118   5.627  0.00  0.00     0.162 HD
BRANCH  29  31
ATOM     31  C21 <0> d          -3.730   0.781   7.149  0.00  0.00     0.152 C 
BRANCH  31  32
ATOM     32  C22 <0> d          -3.489   1.937   8.122  0.00  0.00     0.292 C 
BRANCH  32  33
ATOM     33  N5  <0> d          -3.814   1.502   9.487  0.00  0.00     0.094 N 
ATOM     34  C26 <0> d          -3.374   2.499  10.475  0.00  0.00     0.298 C 
ATOM     35  C25 <0> d          -3.677   1.981  11.884  0.00  0.00     0.198 C 
ATOM     36  O4  <0> d          -5.074   1.692  11.990  0.00  0.00    -0.388 OA
ATOM     37  C24 <0> d          -5.536   0.725  11.043  0.00  0.00     0.198 C 
ATOM     38  C23 <0> d          -5.252   1.230   9.626  0.00  0.00     0.298 C 
ENDBRANCH  32  33
ENDBRANCH  31  32
ENDBRANCH  29  31
ENDBRANCH   5  27
TORSDOF 6
