REMARK  4 active torsions:
REMARK  status: ('A' for Active; 'I' for Inactive)
REMARK    1  A    between atoms: C2_2  and  O2_4 
REMARK    2  A    between atoms: O2_4  and  C3_5 
REMARK    3  A    between atoms: C3_5  and  C4_6 
REMARK    4  A    between atoms: C7_9  and  N1_11 
ROOT
ATOM      1  C4  <0> d           1.968  -1.420  -0.150  0.00  0.00     0.180 C 
ATOM      2  C5  <0> d           1.190  -0.398   0.707  0.00  0.00     0.189 C 
ATOM      3  C6  <0> d           2.099   0.860   0.705  0.00  0.00     0.206 C 
ATOM      4  C7  <0> d           3.312   0.441  -0.153  0.00  0.00     0.264 C 
ATOM      5  O3  <0> d           2.818  -0.620  -1.000  0.00  0.00    -0.353 OA
ATOM      6  O5  <0> d           1.351   1.863  -0.001  0.00  0.00    -0.344 OA
ATOM      7  C12 <0> d          -0.017   1.431   0.010  0.00  0.00     0.158 C 
ATOM      8  O6  <0> d           0.002  -0.004   0.002  0.00  0.00    -0.345 OA
ATOM      9  C13 <0> d          -0.740   1.952  -1.234  0.00  0.00     0.078 C 
ATOM     10  C14 <0> d          -0.716   1.938   1.273  0.00  0.00     0.078 C 
ENDROOT
BRANCH   4  11
ATOM     11  N1  <0> d           3.777   1.569  -0.964  0.00  0.00    -0.280 N 
ATOM     12  C11 <0> d           4.998   2.090  -0.745  0.00  0.00     0.329 A 
ATOM     13  N2  <0> d           5.449   3.126  -1.476  0.00  0.00    -0.299 N 
ATOM     14  O4  <0> d           5.703   1.618   0.127  0.00  0.00    -0.246 OA
ATOM     15  C10 <0> d           4.680   3.660  -2.445  0.00  0.00     0.105 A 
ATOM     16  H5  <0> d           6.359   3.501  -1.299  0.00  0.00     0.171 HD
ATOM     17  C9  <0> d           3.394   3.123  -2.688  0.00  0.00     0.059 A 
ATOM     18  S1  <0> d           5.254   4.979  -3.374  0.00  0.00    -0.060 SA
ATOM     19  C8  <0> d           2.967   2.080  -1.944  0.00  0.00     0.101 A 
ENDBRANCH   4  11
BRANCH   1  20
ATOM     20  C3  <0> d           1.001  -2.251  -0.996  0.00  0.00     0.213 C 
BRANCH  20  21
ATOM     21  O2  <0> d           1.739  -3.281  -1.703  0.00  0.00    -0.319 OA
BRANCH  21  22
ATOM     22  C2  <0> d           1.032  -4.103  -2.495  0.00  0.00     0.254 C 
ATOM     23  C1  <0> d           1.730  -5.197  -3.261  0.00  0.00     0.126 C 
ATOM     24  O1  <0> d          -0.164  -3.965  -2.594  0.00  0.00    -0.266 OA
ENDBRANCH  21  22
ENDBRANCH  20  21
ENDBRANCH   1  20
TORSDOF 4
