REMARK  4 active torsions:
REMARK  status: ('A' for Active; 'I' for Inactive)
REMARK    1  A    between atoms: C2_2  and  S1_4 
REMARK    2  A    between atoms: S1_4  and  N1_7 
REMARK       I    between atoms: N1_7  and  C4_8 
REMARK    3  A    between atoms: C4_8  and  C5_10 
REMARK    4  A    between atoms: C7_12  and  O4_23 
ROOT
ATOM      1  C5  <0> d          -3.086  -0.497  -3.413  0.00  0.00     0.297 A 
ATOM      2  C6  <0> d          -4.581  -0.132  -3.488  0.00  0.00     0.112 A 
ATOM      3  C7  <0> d          -5.161  -1.147  -4.447  0.00  0.00     0.100 A 
ATOM      4  C8  <0> d          -4.209  -1.945  -4.865  0.00  0.00     0.236 A 
ATOM      5  N2  <0> d          -4.367  -3.046  -5.741  0.00  0.00    -0.334 N 
ATOM      6  C9  <0> d          -3.550  -4.151  -5.452  0.00  0.00     0.041 A 
ATOM      7  C10 <0> d          -3.701  -5.327  -6.173  0.00  0.00     0.030 A 
ATOM      8  C11 <0> d          -2.892  -6.412  -5.896  0.00  0.00     0.002 A 
ATOM      9  C12 <0> d          -1.935  -6.319  -4.901  0.00  0.00     0.001 A 
ATOM     10  C13 <0> d          -1.788  -5.149  -4.181  0.00  0.00     0.011 A 
ATOM     11  C14 <0> d          -2.598  -4.058  -4.447  0.00  0.00    -0.005 A 
ATOM     12  C15 <0> d          -2.431  -2.808  -3.624  0.00  0.00     0.285 C 
ATOM     13  N3  <0> d          -2.944  -1.633  -4.337  0.00  0.00    -0.006 N 
ATOM     14  H20 <0> d          -4.992  -3.037  -6.483  0.00  0.00     0.167 HD
ATOM     15  H21 <0> d          -2.313  -1.386  -5.085  0.00  0.00     0.290 HD
ENDROOT
BRANCH   1  16
ATOM     16  C4  <0> d          -2.713  -0.907  -2.011  0.00  0.00     0.294 C 
ATOM     17  N1  <0> d          -1.607  -0.399  -1.433  0.00  0.00    -0.065 N 
ATOM     18  F1  <0> d          -0.862   0.444  -2.084  0.00  0.00    -0.080 F 
ATOM     19  O3  <0> d          -3.408  -1.694  -1.404  0.00  0.00    -0.267 OA
BRANCH  17  20
ATOM     20  S1  <0> d          -1.197  -0.849   0.107  0.00  0.00     0.265 S 
ATOM     21  O1  <0> d          -2.405  -1.333   0.677  0.00  0.00    -0.203 OA
ATOM     22  O2  <0> d          -0.541   0.286   0.655  0.00  0.00    -0.203 OA
BRANCH  20  23
ATOM     23  C2  <0> d          -0.016  -2.211  -0.104  0.00  0.00     0.124 C 
ATOM     24  C1  <0> d           1.198  -1.715  -0.891  0.00  0.00     0.028 C 
ATOM     25  C3  <0> d           0.436  -2.711   1.269  0.00  0.00     0.028 C 
ENDBRANCH  20  23
ENDBRANCH  17  20
ENDBRANCH   1  16
BRANCH   3  26
ATOM     26  O4  <0> d          -6.468  -1.221  -4.818  0.00  0.00    -0.356 OA
ATOM     27  C16 <0> d          -6.815  -2.225  -5.774  0.00  0.00     0.209 C 
ENDBRANCH   3  26
TORSDOF 4
