REMARK  2 active torsions:
REMARK  status: ('A' for Active; 'I' for Inactive)
REMARK    1  A    between atoms: C2_2  and  C3_3 
REMARK    2  A    between atoms: N3_7  and  C5_8 
ROOT
ATOM      1  C3  <0> d          -2.123  -1.300  -0.487  0.00  0.00     0.128 A 
ATOM      2  N1  <0> d          -3.231  -1.522   0.161  0.00  0.00    -0.159 NA
ATOM      3  N2  <0> d          -3.205  -0.923   1.297  0.00  0.00    -0.254 N 
ATOM      4  C4  <0> d          -2.067  -0.286   1.440  0.00  0.00     0.176 A 
ATOM      5  N3  <0> d          -1.339  -0.510   0.307  0.00  0.00    -0.307 N 
ATOM      6  S2  <0> d          -1.571   0.676   2.830  0.00  0.00    -0.011 SA
ATOM      7  H13 <0> d          -4.066  -0.998   1.978  0.00  0.00     0.191 HD
ENDROOT
BRANCH   5   8
ATOM      8  C5  <0> d           0.002  -0.004   0.002  0.00  0.00     0.108 C 
ATOM      9  C8  <0> d           1.001  -0.524   1.063  0.00  0.00     0.166 C 
ATOM     10  S1  <0> d           2.228   0.842   1.167  0.00  0.00     0.146 S 
ATOM     11  C7  <0> d           1.453   2.038  -0.001  0.00  0.00     0.142 C 
ATOM     12  O1  <0> d           2.198   1.391   2.478  0.00  0.00    -0.228 OA
ATOM     13  O2  <0> d           3.463   0.398   0.623  0.00  0.00    -0.228 OA
ATOM     14  C6  <0> d          -0.019   1.534   0.011  0.00  0.00     0.041 C 
ENDBRANCH   5   8
BRANCH   1  15
ATOM     15  C2  <0> d          -1.770  -1.819  -1.858  0.00  0.00     0.076 C 
ATOM     16  C1  <0> d          -1.071  -3.173  -1.727  0.00  0.00     0.013 C 
ENDBRANCH   1  15
TORSDOF 2
