REMARK  5 active torsions:
REMARK  status: ('A' for Active; 'I' for Inactive)
REMARK    1  A    between atoms: C10_11  and  N2_12 
REMARK    2  A    between atoms: N2_12  and  C11_13 
REMARK    3  A    between atoms: C12_14  and  N6_27 
REMARK    4  A    between atoms: C13_15  and  N5_19 
REMARK    5  A    between atoms: N5_19  and  C15_20 
ROOT
ATOM      1  C11 <0> d           0.534  -6.260  -1.066  0.00  0.00     0.166 A 
ATOM      2  C12 <0> d           0.472  -7.009  -2.238  0.00  0.00     0.194 A 
ATOM      3  C13 <0> d           0.601  -8.391  -2.144  0.00  0.00     0.166 A 
ATOM      4  N3  <0> d           0.777  -8.944  -0.946  0.00  0.00    -0.222 NA
ATOM      5  C14 <0> d           0.830  -8.201   0.141  0.00  0.00     0.237 A 
ATOM      6  N4  <0> d           0.719  -6.889   0.093  0.00  0.00    -0.222 NA
ENDROOT
BRANCH   1   7
ATOM      7  N2  <0> d           0.412  -4.879  -1.106  0.00  0.00    -0.338 N 
ATOM      8  H9  <0> d           0.199  -4.435  -1.942  0.00  0.00     0.167 HD
BRANCH   7   9
ATOM      9  C10 <0> d           0.594  -4.130   0.054  0.00  0.00     0.046 A 
ATOM     10  C5  <0> d           0.037  -2.838   0.163  0.00  0.00     0.017 A 
ATOM     11  C4  <0> d          -0.711  -2.274  -0.884  0.00  0.00     0.018 A 
ATOM     12  C6  <0> d           0.232  -2.090   1.350  0.00  0.00     0.044 A 
ATOM     13  C3  <0> d          -1.220  -1.017  -0.709  0.00  0.00     0.025 A 
ATOM     14  C2  <0> d          -0.992  -0.335   0.483  0.00  0.00     0.005 A 
ATOM     15  C1  <0> d          -1.561   1.049   0.657  0.00  0.00     0.068 C 
ATOM     16  N1  <0> d          -0.289  -0.863   1.456  0.00  0.00    -0.359 N 
ATOM     17  H16 <0> d          -0.148  -0.355   2.270  0.00  0.00     0.166 HD
ATOM     18  C7  <0> d           0.979  -2.652   2.399  0.00  0.00     0.030 A 
ATOM     19  C8  <0> d           1.507  -3.901   2.269  0.00  0.00     0.005 A 
ATOM     20  C9  <0> d           1.321  -4.643   1.108  0.00  0.00     0.030 A 
ENDBRANCH   7   9
ENDBRANCH   1   7
BRANCH   2  21
ATOM     21  N6  <0> d           0.274  -6.352  -3.550  0.00  0.00    -0.108 N 
ATOM     22  O1  <0> d           1.231  -5.994  -4.197  0.00  0.00    -0.532 OA
ATOM     23  O2  <0> d          -0.844  -6.172  -3.973  0.00  0.00    -0.532 OA
ENDBRANCH   2  21
BRANCH   3  24
ATOM     24  N5  <0> d           0.545  -9.182  -3.283  0.00  0.00    -0.339 N 
ATOM     25  H11 <0> d           0.495  -8.768  -4.159  0.00  0.00     0.167 HD
BRANCH  24  26
ATOM     26  C15 <0> d           0.563 -10.575  -3.168  0.00  0.00     0.033 A 
ATOM     27  C20 <0> d          -0.034 -11.191  -2.075  0.00  0.00     0.031 A 
ATOM     28  C19 <0> d          -0.021 -12.568  -1.967  0.00  0.00     0.021 A 
ATOM     29  C18 <0> d           0.597 -13.333  -2.941  0.00  0.00     0.011 A 
ATOM     30  C17 <0> d           1.197 -12.723  -4.028  0.00  0.00     0.021 A 
ATOM     31 Br1  <0> d           0.620 -15.218  -2.785  0.00  0.00    -0.051 Br
ATOM     32  C16 <0> d           1.181 -11.347  -4.144  0.00  0.00     0.031 A 
ENDBRANCH  24  26
ENDBRANCH   3  24
TORSDOF 5
