REMARK  6 active torsions:
REMARK  status: ('A' for Active; 'I' for Inactive)
REMARK    1  A    between atoms: C6_7  and  C9_10 
REMARK    2  A    between atoms: N2_11  and  N3_12 
REMARK       I    between atoms: N3_12  and  C10_13 
REMARK    3  A    between atoms: C10_13  and  C11_15 
REMARK    4  A    between atoms: C11_15  and  S1_16 
REMARK    5  A    between atoms: S1_16  and  C12_17 
REMARK    6  A    between atoms: N5_27  and  C20_28 
ROOT
ATOM      1  C12 <0> d          -1.171 -11.173  -0.162  0.00  0.00     0.257 C 
ATOM      2  N4  <0> d          -2.207 -10.704  -1.090  0.00  0.00    -0.359 N 
ATOM      3  C13 <0> d          -2.551  -9.357  -1.085  0.00  0.00     0.046 A 
ATOM      4  C14 <0> d          -3.025  -8.721  -2.220  0.00  0.00     0.030 A 
ATOM      5  C15 <0> d          -3.364  -7.383  -2.163  0.00  0.00     0.002 A 
ATOM      6  C16 <0> d          -3.235  -6.673  -0.979  0.00  0.00     0.001 A 
ATOM      7  C17 <0> d          -2.761  -7.291   0.160  0.00  0.00     0.019 A 
ATOM      8  C18 <0> d          -2.410  -8.638   0.115  0.00  0.00     0.059 A 
ATOM      9  C19 <0> d          -1.876  -9.336   1.298  0.00  0.00     0.263 C 
ATOM     10  O2  <0> d          -1.895  -8.798   2.388  0.00  0.00    -0.267 OA
ATOM     11  N5  <0> d          -1.369 -10.574   1.158  0.00  0.00    -0.283 N 
ATOM     12  H12 <0> d          -2.643 -11.323  -1.697  0.00  0.00     0.162 HD
ENDROOT
BRANCH   1  13
ATOM     13  S1  <0> d           0.462 -10.702  -0.797  0.00  0.00    -0.113 SA
BRANCH  13  14
ATOM     14  C11 <0> d           0.396  -8.891  -0.878  0.00  0.00     0.182 C 
BRANCH  14  15
ATOM     15  C10 <0> d           1.708  -8.364  -1.397  0.00  0.00     0.247 C 
ATOM     16  N3  <0> d           1.891  -7.036  -1.543  0.00  0.00    -0.247 N 
ATOM     17  H9  <0> d           1.177  -6.420  -1.314  0.00  0.00     0.192 HD
ATOM     18  O1  <0> d           2.600  -9.133  -1.683  0.00  0.00    -0.271 OA
BRANCH  16  19
ATOM     19  N2  <0> d           3.111  -6.545  -2.025  0.00  0.00    -0.184 NA
ATOM     20  C9  <0> d           3.288  -5.256  -2.167  0.00  0.00     0.148 C 
BRANCH  20  21
ATOM     21  C6  <0> d           4.510  -4.765  -2.649  0.00  0.00    -0.009 A 
ATOM     22  C5  <0> d           5.724  -5.572  -3.054  0.00  0.00     0.161 A 
ATOM     23  N1  <0> d           6.732  -4.598  -3.485  0.00  0.00    -0.385 N 
ATOM     24  C4  <0> d           6.238  -3.383  -3.373  0.00  0.00     0.039 A 
ATOM     25  H21 <0> d           7.622  -4.815  -3.804  0.00  0.00     0.160 HD
ATOM     26  C3  <0> d           6.801  -2.110  -3.656  0.00  0.00     0.030 A 
ATOM     27  C7  <0> d           4.859  -3.433  -2.857  0.00  0.00    -0.000 A 
ATOM     28  C2  <0> d           6.069  -0.989  -3.450  0.00  0.00     0.002 A 
ATOM     29  C1  <0> d           4.760  -1.042  -2.960  0.00  0.00     0.001 A 
ATOM     30  C8  <0> d           4.157  -2.221  -2.667  0.00  0.00     0.014 A 
ENDBRANCH  20  21
ENDBRANCH  16  19
ENDBRANCH  14  15
ENDBRANCH  13  14
ENDBRANCH   1  13
BRANCH  11  31
ATOM     31  C20 <0> d          -1.023 -11.302   2.302  0.00  0.00     0.040 A 
ATOM     32  C25 <0> d          -1.955 -12.136   2.904  0.00  0.00     0.031 A 
ATOM     33  C24 <0> d          -1.609 -12.859   4.029  0.00  0.00     0.026 A 
ATOM     34  C23 <0> d          -0.338 -12.742   4.563  0.00  0.00     0.034 A 
ATOM     35  C22 <0> d           0.591 -11.906   3.969  0.00  0.00     0.026 A 
ATOM     36 Cl1  <0> d           0.092 -13.645   5.982  0.00  0.00    -0.084 Cl
ATOM     37  C21 <0> d           0.252 -11.186   2.840  0.00  0.00     0.031 A 
ENDBRANCH  11  31
TORSDOF 6
