REMARK  8 active torsions:
REMARK  status: ('A' for Active; 'I' for Inactive)
REMARK    1  A    between atoms: C2_2  and  C4_4 
REMARK    2  A    between atoms: C4_4  and  C5_5 
REMARK    3  A    between atoms: C5_5  and  C6_6 
REMARK    4  A    between atoms: C5_5  and  N2_10 
REMARK       I    between atoms: C6_6  and  N1_8 
REMARK    5  A    between atoms: N2_10  and  C8_11 
REMARK    6  A    between atoms: C8_11  and  C9_12 
REMARK    7  A    between atoms: C11_14  and  O3_20 
REMARK    8  A    between atoms: C12_15  and  O2_19 
ROOT
ATOM      1  N2  <0> d          -1.636  -0.689  -2.423  0.00  0.00    -0.059 N 
ATOM      2  H15 <0> d          -0.629  -0.623  -2.424  0.00  0.00     0.278 HD
ATOM      3  H24 <0> d          -1.909  -1.660  -2.417  0.00  0.00     0.278 HD
ENDROOT
BRANCH   1   4
ATOM      4  C5  <0> d          -2.168  -0.023  -1.227  0.00  0.00     0.277 C 
BRANCH   4   5
ATOM      5  C4  <0> d          -1.485  -0.589   0.019  0.00  0.00     0.046 C 
BRANCH   5   6
ATOM      6  C2  <0> d           0.005  -0.242  -0.014  0.00  0.00    -0.020 C 
ATOM      7  C1  <0> d           0.178   1.273   0.106  0.00  0.00     0.009 C 
ATOM      8  C3  <0> d           0.715  -0.931   1.153  0.00  0.00     0.009 C 
ENDBRANCH   5   6
ENDBRANCH   4   5
BRANCH   4   9
ATOM      9  C6  <0> d          -3.654  -0.263  -1.137  0.00  0.00     0.248 C 
ATOM     10  O1  <0> d          -4.213  -0.923  -1.987  0.00  0.00    -0.271 OA
ATOM     11  N1  <0> d          -4.360   0.258  -0.114  0.00  0.00    -0.364 N 
ATOM     12  C7  <0> d          -5.804   0.025  -0.027  0.00  0.00     0.149 C 
ATOM     13  H11 <0> d          -3.912   0.786   0.565  0.00  0.00     0.161 HD
ENDBRANCH   4   9
ENDBRANCH   1   4
BRANCH   1  14
ATOM     14  C8  <0> d          -2.171  -0.037  -3.626  0.00  0.00     0.272 C 
BRANCH  14  15
ATOM     15  C9  <0> d          -1.526  -0.635  -4.850  0.00  0.00    -0.029 A 
ATOM     16  C14 <0> d          -2.102  -1.729  -5.467  0.00  0.00     0.030 A 
ATOM     17  C13 <0> d          -1.517  -2.278  -6.594  0.00  0.00     0.047 A 
ATOM     18  C12 <0> d          -0.345  -1.737  -7.100  0.00  0.00     0.116 A 
ATOM     19 Br1  <0> d          -2.312  -3.771  -7.441  0.00  0.00    -0.048 Br
ATOM     20  C11 <0> d           0.237  -0.639  -6.474  0.00  0.00     0.103 A 
ATOM     21  C10 <0> d          -0.357  -0.091  -5.349  0.00  0.00     0.048 A 
BRANCH  18  22
ATOM     22  O2  <0> d           0.234  -2.279  -8.205  0.00  0.00    -0.357 OA
ATOM     23  H20 <0> d           0.874  -2.977  -8.011  0.00  0.00     0.218 HD
ENDBRANCH  18  22
BRANCH  20  24
ATOM     24  O3  <0> d           1.386  -0.104  -6.967  0.00  0.00    -0.353 OA
ATOM     25  C15 <0> d           1.926   1.022  -6.274  0.00  0.00     0.210 C 
ENDBRANCH  20  24
ENDBRANCH  14  15
ENDBRANCH   1  14
TORSDOF 8
