REMARK  6 active torsions:
REMARK  status: ('A' for Active; 'I' for Inactive)
REMARK    1  A    between atoms: C4_4  and  C7_8 
REMARK       I    between atoms: C7_8  and  N1_10 
REMARK    2  A    between atoms: N1_10  and  N2_11 
REMARK       I    between atoms: N2_11  and  C8_12 
REMARK       I    between atoms: C8_12  and  N3_14 
REMARK    3  A    between atoms: N3_14  and  C9_15 
REMARK    4  A    between atoms: C9_15  and  C10_16 
REMARK    5  A    between atoms: C10_16  and  C11_17 
REMARK    6  A    between atoms: C11_17  and  N4_18 
ROOT
ATOM      1  N2  <0> d          -3.464  -4.540  -0.007  0.00  0.00    -0.249 N 
ATOM      2  C8  <0> d          -4.811  -4.480  -0.001  0.00  0.00     0.334 C 
ATOM      3  O3  <0> d          -5.465  -5.505  -0.003  0.00  0.00    -0.246 OA
ATOM      4  N3  <0> d          -5.432  -3.284   0.008  0.00  0.00    -0.342 N 
ATOM      5  H11 <0> d          -3.017  -5.400  -0.013  0.00  0.00     0.192 HD
ATOM      6  H12 <0> d          -4.910  -2.466   0.010  0.00  0.00     0.164 HD
ENDROOT
BRANCH   1   7
ATOM      7  N1  <0> d          -2.711  -3.358  -0.004  0.00  0.00    -0.262 N 
ATOM      8  C7  <0> d          -1.364  -3.418  -0.010  0.00  0.00     0.272 C 
ATOM      9  O2  <0> d          -0.804  -4.497  -0.018  0.00  0.00    -0.266 OA
ATOM     10  H10 <0> d          -3.158  -2.498   0.002  0.00  0.00     0.190 HD
BRANCH   8  11
ATOM     11  C4  <0> d          -0.571  -2.176  -0.007  0.00  0.00     0.065 A 
ATOM     12  C3  <0> d          -1.081  -0.797   0.003  0.00  0.00     0.052 A 
ATOM     13  C2  <0> d           0.002  -0.004   0.002  0.00  0.00     0.050 A 
ATOM     14  C1  <0> d          -0.018   1.503   0.010  0.00  0.00     0.076 C 
ATOM     15  O1  <0> d           1.106  -0.767  -0.013  0.00  0.00    -0.319 OA
ATOM     16  C5  <0> d           0.788  -2.066  -0.013  0.00  0.00     0.065 A 
ATOM     17  C6  <0> d           1.766  -3.212  -0.024  0.00  0.00     0.077 C 
ENDBRANCH   8  11
ENDBRANCH   1   7
BRANCH   4  18
ATOM     18  C9  <0> d          -6.896  -3.219   0.015  0.00  0.00     0.126 C 
BRANCH  18  19
ATOM     19  C10 <0> d          -7.341  -1.755   0.024  0.00  0.00     0.047 C 
BRANCH  19  20
ATOM     20  C11 <0> d          -8.870  -1.687   0.031  0.00  0.00     0.236 C 
BRANCH  20  21
ATOM     21  N4  <0> d          -9.297  -0.281   0.040  0.00  0.00    -0.070 N 
ATOM     22  C16 <0> d         -10.759  -0.216  -0.074  0.00  0.00     0.239 C 
ATOM     23  C15 <0> d         -11.204   1.247  -0.146  0.00  0.00     0.008 C 
ATOM     24  C14 <0> d         -10.756   1.974   1.125  0.00  0.00     0.011 C 
ATOM     25  C17 <0> d         -12.728   1.313  -0.263  0.00  0.00     0.011 C 
ATOM     26  C13 <0> d          -9.238   1.836   1.272  0.00  0.00     0.008 C 
ATOM     27  C12 <0> d          -8.866   0.351   1.292  0.00  0.00     0.239 C 
ATOM     28  C18 <0> d          -8.789   2.492   2.579  0.00  0.00     0.011 C 
ATOM     29  H31 <0> d          -8.878   0.202  -0.740  0.00  0.00     0.279 HD
ENDBRANCH  20  21
ENDBRANCH  19  20
ENDBRANCH  18  19
ENDBRANCH   4  18
TORSDOF 6
