REMARK  3 active torsions:
REMARK  status: ('A' for Active; 'I' for Inactive)
REMARK    1  A    between atoms: C5_8  and  C6_10 
REMARK    2  A    between atoms: C6_10  and  N3_11 
REMARK       I    between atoms: N3_11  and  C7_12 
REMARK    3  A    between atoms: C7_12  and  C8_14 
ROOT
ATOM      1  N3  <0> d           3.258  -2.340  -1.278  0.00  0.00    -0.355 N 
ATOM      2  C7  <0> d           4.484  -2.848  -1.510  0.00  0.00     0.231 C 
ATOM      3  O2  <0> d           5.013  -3.557  -0.681  0.00  0.00    -0.273 OA
ATOM      4  H9  <0> d           2.834  -1.772  -1.941  0.00  0.00     0.162 HD
ENDROOT
BRANCH   2   5
ATOM      5  C8  <0> d           5.198  -2.534  -2.800  0.00  0.00     0.170 C 
ATOM      6  C18 <0> d           5.378  -1.030  -2.919  0.00  0.00     0.176 C 
ATOM      7  C14 <0> d           6.341  -0.406  -2.011  0.00  0.00     0.038 A 
ATOM      8  O3  <0> d           4.753  -0.378  -3.727  0.00  0.00    -0.291 OA
ATOM      9  C13 <0> d           7.349  -1.268  -1.513  0.00  0.00     0.050 A 
ATOM     10  C15 <0> d           6.369   0.914  -1.583  0.00  0.00     0.017 A 
ATOM     11  N4  <0> d           7.464  -2.599  -1.854  0.00  0.00    -0.378 N 
ATOM     12  C12 <0> d           8.313  -0.832  -0.618  0.00  0.00    -0.029 A 
ATOM     13  C9  <0> d           6.557  -3.245  -2.811  0.00  0.00     0.145 C 
ATOM     14  C10 <0> d           8.596  -3.172  -1.125  0.00  0.00     0.128 A 
ATOM     15  C11 <0> d           9.188  -2.006  -0.297  0.00  0.00     0.060 A 
ATOM     16  C17 <0> d           8.328   0.483  -0.198  0.00  0.00     0.009 A 
ATOM     17  C16 <0> d           7.343   1.338  -0.699  0.00  0.00     0.002 A 
ENDBRANCH   2   5
BRANCH   1  18
ATOM     18  C6  <0> d           2.563  -2.645  -0.025  0.00  0.00     0.182 C 
BRANCH  18  19
ATOM     19  C5  <0> d           1.221  -1.960  -0.015  0.00  0.00     0.059 A 
ATOM     20  C4  <0> d           0.078  -2.701  -0.013  0.00  0.00     0.103 A 
ATOM     21  C3  <0> d          -1.162  -2.029  -0.003  0.00  0.00     0.248 A 
ATOM     22  N1  <0> d          -1.165  -0.678   0.004  0.00  0.00    -0.312 N 
ATOM     23  O1  <0> d          -2.209  -2.654  -0.002  0.00  0.00    -0.268 OA
ATOM     24  C2  <0> d           0.002  -0.004   0.002  0.00  0.00     0.103 A 
ATOM     25  H1  <0> d          -2.005  -0.195   0.010  0.00  0.00     0.170 HD
ATOM     26  C1  <0> d          -0.018   1.503   0.010  0.00  0.00     0.091 C 
ATOM     27  N2  <0> d           1.150  -0.627  -0.012  0.00  0.00    -0.238 NA
ENDBRANCH  18  19
ENDBRANCH   1  18
TORSDOF 3
