REMARK  3 active torsions:
REMARK  status: ('A' for Active; 'I' for Inactive)
REMARK    1  A    between atoms: C9_10  and  C10_11 
REMARK       I    between atoms: C10_11  and  N1_13 
REMARK    2  A    between atoms: N1_13  and  C11_14 
REMARK    3  A    between atoms: C14_17  and  C17_20 
REMARK       I    between atoms: C17_20  and  N2_22 
ROOT
ATOM      1  C11 <0> d          -0.069  -0.851   4.796  0.00  0.00     0.035 A 
ATOM      2  C12 <0> d           0.031   0.515   5.039  0.00  0.00     0.030 A 
ATOM      3  C13 <0> d          -0.037   0.994   6.328  0.00  0.00     0.019 A 
ATOM      4  C14 <0> d          -0.209   0.105   7.393  0.00  0.00     0.032 A 
ATOM      5  C15 <0> d          -0.310  -1.266   7.145  0.00  0.00     0.019 A 
ATOM      6  C16 <0> d          -0.245  -1.738   5.854  0.00  0.00     0.030 A 
ENDROOT
BRANCH   1   7
ATOM      7  N1  <0> d           0.001  -1.332   3.490  0.00  0.00    -0.321 N 
ATOM      8  C10 <0> d          -0.748  -2.389   3.120  0.00  0.00     0.280 C 
ATOM      9  O2  <0> d          -1.421  -2.976   3.946  0.00  0.00    -0.265 OA
ATOM     10  H8  <0> d           0.590  -0.906   2.847  0.00  0.00     0.169 HD
BRANCH   8  11
ATOM     11  C9  <0> d          -0.752  -2.833   1.719  0.00  0.00     0.150 A 
ATOM     12  C2  <0> d          -1.465  -3.881   1.233  0.00  0.00    -0.009 A 
ATOM     13  C1  <0> d          -2.383  -4.791   2.009  0.00  0.00     0.052 C 
ATOM     14  C3  <0> d          -1.168  -3.945  -0.197  0.00  0.00     0.007 A 
ATOM     15  C8  <0> d          -0.266  -2.894  -0.447  0.00  0.00     0.087 A 
ATOM     16  C4  <0> d          -1.579  -4.778  -1.241  0.00  0.00     0.015 A 
ATOM     17  C7  <0> d           0.206  -2.699  -1.740  0.00  0.00     0.038 A 
ATOM     18  O1  <0> d          -0.045  -2.261   0.722  0.00  0.00    -0.304 OA
ATOM     19  C6  <0> d          -0.212  -3.531  -2.756  0.00  0.00     0.003 A 
ATOM     20  C5  <0> d          -1.102  -4.566  -2.504  0.00  0.00     0.001 A 
ENDBRANCH   8  11
ENDBRANCH   1   7
BRANCH   4  21
ATOM     21  C17 <0> d          -0.282   0.615   8.776  0.00  0.00     0.253 C 
ATOM     22  O3  <0> d          -0.963   1.590   9.030  0.00  0.00    -0.267 OA
ATOM     23  N2  <0> d           0.405  -0.001   9.758  0.00  0.00    -0.345 N 
ATOM     24  C21 <0> d           0.420   0.541  11.126  0.00  0.00     0.154 C 
ATOM     25  C18 <0> d           1.165  -1.232   9.492  0.00  0.00     0.154 C 
ATOM     26  C20 <0> d           1.870   0.632  11.601  0.00  0.00     0.254 C 
ATOM     27  N3  <0> d           2.514  -0.680  11.461  0.00  0.00    -0.072 N 
ATOM     28  C19 <0> d           2.584  -1.055  10.043  0.00  0.00     0.254 C 
ATOM     29  C22 <0> d           3.873  -0.617  12.017  0.00  0.00     0.269 C 
ATOM     30  H24 <0> d           1.980  -1.371  11.965  0.00  0.00     0.279 HD
ENDBRANCH   4  21
TORSDOF 3
