REMARK  6 active torsions:
REMARK  status: ('A' for Active; 'I' for Inactive)
REMARK    1  A    between atoms: N1_2  and  C3_4 
REMARK    2  A    between atoms: C3_4  and  C4_5 
REMARK    3  A    between atoms: C3_4  and  C14_20 
REMARK    4  A    between atoms: C4_5  and  N2_6 
REMARK       I    between atoms: N2_6  and  C5_7 
REMARK    5  A    between atoms: C5_7  and  C6_9 
REMARK    6  A    between atoms: C17_23  and  O4_26 
ROOT
ATOM      1  N2  <0> d           4.180   5.669  -1.653  0.00  0.00    -0.355 N 
ATOM      2  C5  <0> d           3.024   4.979  -1.711  0.00  0.00     0.251 C 
ATOM      3  O1  <0> d           2.001   5.536  -2.060  0.00  0.00    -0.268 OA
ATOM      4  H10 <0> d           5.106   5.165  -1.337  0.00  0.00     0.162 HD
ENDROOT
BRANCH   1   5
ATOM      5  C4  <0> d           4.204   7.089  -2.010  0.00  0.00     0.161 C 
BRANCH   5   6
ATOM      6  C3  <0> d           5.585   7.670  -1.699  0.00  0.00     0.237 C 
BRANCH   6   7
ATOM      7  N1  <0> d           5.839   7.583  -0.255  0.00  0.00    -0.069 N 
ATOM      8  C1  <0> d           4.581   7.602   0.503  0.00  0.00     0.270 C 
ATOM      9  C2  <0> d           6.630   6.388   0.069  0.00  0.00     0.270 C 
ATOM     10  H24 <0> d           6.425   8.466   0.040  0.00  0.00     0.279 HD
ENDBRANCH   6   7
BRANCH   6  11
ATOM     11  C14 <0> d           5.633   9.113  -2.131  0.00  0.00    -0.026 A 
ATOM     12  C19 <0> d           6.307   9.466  -3.285  0.00  0.00     0.012 A 
ATOM     13  C18 <0> d           6.351  10.788  -3.684  0.00  0.00     0.037 A 
ATOM     14  C17 <0> d           5.719  11.762  -2.924  0.00  0.00     0.068 A 
ATOM     15  C16 <0> d           5.043  11.405  -1.766  0.00  0.00     0.037 A 
ATOM     16  C15 <0> d           4.997  10.081  -1.375  0.00  0.00     0.012 A 
BRANCH  14  17
ATOM     17  O4  <0> d           5.761  13.063  -3.314  0.00  0.00    -0.356 OA
ATOM     18  C20 <0> d           5.088  14.011  -2.484  0.00  0.00     0.210 C 
ENDBRANCH  14  17
ENDBRANCH   6  11
ENDBRANCH   5   6
ENDBRANCH   1   5
BRANCH   2  19
ATOM     19  C6  <0> d           2.999   3.548  -1.351  0.00  0.00     0.034 A 
ATOM     20  C11 <0> d           1.800   2.832  -1.412  0.00  0.00     0.056 A 
ATOM     21  C10 <0> d           1.784   1.494  -1.075  0.00  0.00     0.097 A 
ATOM     22  C9  <0> d           2.962   0.860  -0.674  0.00  0.00     0.068 A 
ATOM     23  O2  <0> d           0.626   0.781  -1.129  0.00  0.00    -0.340 OA
ATOM     24  C8  <0> d           4.152   1.571  -0.614  0.00  0.00     0.033 A 
ATOM     25  N3  <0> d           2.926  -0.495  -0.334  0.00  0.00    -0.323 N 
ATOM     26  C7  <0> d           4.174   2.907  -0.950  0.00  0.00     0.019 A 
ATOM     27  C13 <0> d           1.854  -1.234  -0.693  0.00  0.00     0.246 C 
ATOM     28  H16 <0> d           3.763  -0.946   0.219  0.00  0.00     0.169 HD
ATOM     29  C12 <0> d           0.738  -0.600  -1.482  0.00  0.00     0.278 C 
ATOM     30  O3  <0> d           1.790  -2.405  -0.381  0.00  0.00    -0.271 OA
ENDBRANCH   2  19
TORSDOF 6
