REMARK  4 active torsions:
REMARK  status: ('A' for Active; 'I' for Inactive)
REMARK    1  A    between atoms: C3_3  and  N3_11 
REMARK    2  A    between atoms: N1_5  and  C5_7 
REMARK       I    between atoms: N3_11  and  C9_12 
REMARK    3  A    between atoms: C9_12  and  C10_14 
REMARK    4  A    between atoms: C10_14  and  C11_15 
ROOT
ATOM      1  N3  <0> d          -0.220  -0.378  -2.465  0.00  0.00    -0.324 N 
ATOM      2  C9  <0> d           0.133   0.881  -2.793  0.00  0.00     0.222 C 
ATOM      3  O1  <0> d           0.646   1.603  -1.964  0.00  0.00    -0.273 OA
ATOM      4  H15 <0> d          -0.572  -0.975  -3.143  0.00  0.00     0.169 HD
ENDROOT
BRANCH   1   5
ATOM      5  C3  <0> d          -0.079  -0.824  -1.137  0.00  0.00     0.085 A 
ATOM      6  C2  <0> d          -0.863  -0.427  -0.044  0.00  0.00     0.079 A 
ATOM      7  C1  <0> d          -2.006   0.554  -0.088  0.00  0.00     0.075 C 
ATOM      8  N2  <0> d          -0.429  -1.051   1.021  0.00  0.00    -0.175 NA
ATOM      9  N1  <0> d           0.640  -1.874   0.646  0.00  0.00    -0.268 N 
ATOM     10  C4  <0> d           0.841  -1.716  -0.688  0.00  0.00     0.056 A 
ATOM     11  C8  <0> d           1.893  -2.405  -1.518  0.00  0.00     0.072 C 
BRANCH   9  12
ATOM     12  C5  <0> d           1.409  -2.747   1.536  0.00  0.00     0.102 C 
ATOM     13  C6  <0> d           2.065  -1.907   2.634  0.00  0.00     0.034 C 
ATOM     14  C7  <0> d           0.474  -3.777   2.173  0.00  0.00     0.034 C 
ENDBRANCH   9  12
ENDBRANCH   1   5
BRANCH   2  15
ATOM     15  C10 <0> d          -0.110   1.391  -4.190  0.00  0.00     0.109 C 
BRANCH  15  16
ATOM     16  C11 <0> d           0.378   2.837  -4.297  0.00  0.00     0.020 C 
ATOM     17  C15 <0> d           0.022   3.396  -5.676  0.00  0.00     0.237 C 
ATOM     18  N4  <0> d           0.493   4.783  -5.783  0.00  0.00    -0.075 N 
ATOM     19  C14 <0> d           1.956   4.822  -5.677  0.00  0.00     0.232 C 
ATOM     20  H24 <0> d           0.088   5.332  -5.039  0.00  0.00     0.277 HD
ATOM     21  H27 <0> d           0.210   5.165  -6.673  0.00  0.00     0.277 HD
ATOM     22  C13 <0> d           2.386   4.319  -4.298  0.00  0.00     0.028 C 
ATOM     23  C12 <0> d           1.898   2.879  -4.112  0.00  0.00     0.008 C 
ENDBRANCH  15  16
ENDBRANCH   2  15
TORSDOF 4
