REMARK  6 active torsions:
REMARK  status: ('A' for Active; 'I' for Inactive)
REMARK    1  A    between atoms: C2_2  and  O1_3 
REMARK    2  A    between atoms: O1_3  and  C3_4 
REMARK    3  A    between atoms: C6_7  and  N1_10 
REMARK    4  A    between atoms: C10_12  and  C18_22 
REMARK    5  A    between atoms: C15_17  and  O3_21 
REMARK       I    between atoms: C18_22  and  N2_24 
REMARK    6  A    between atoms: N2_24  and  C19_25 
ROOT
ATOM      1  N1  <0> d           0.452  -6.436  -1.478  0.00  0.00    -0.336 N 
ATOM      2  C9  <0> d           0.581  -6.569  -2.780  0.00  0.00     0.164 C 
ATOM      3  C10 <0> d           1.242  -7.753  -3.365  0.00  0.00     0.084 C 
ATOM      4  C11 <0> d           0.890  -8.105  -4.660  0.00  0.00     0.035 C 
ATOM      5  C12 <0> d          -0.050  -7.292  -5.343  0.00  0.00    -0.001 A 
ATOM      6  C13 <0> d          -0.590  -7.709  -6.569  0.00  0.00     0.017 A 
ATOM      7  C14 <0> d          -1.525  -6.939  -7.197  0.00  0.00     0.037 A 
ATOM      8  C15 <0> d          -1.943  -5.735  -6.635  0.00  0.00     0.068 A 
ATOM      9  C16 <0> d          -1.406  -5.297  -5.433  0.00  0.00     0.074 A 
ATOM     10  C17 <0> d          -0.451  -6.062  -4.786  0.00  0.00     0.090 A 
ATOM     11  O2  <0> d           0.107  -5.625  -3.634  0.00  0.00    -0.292 OA
ATOM     12  H22 <0> d           0.694  -7.168  -0.889  0.00  0.00     0.168 HD
ENDROOT
BRANCH   1  13
ATOM     13  C6  <0> d          -0.025  -5.265  -0.954  0.00  0.00     0.034 A 
ATOM     14  C5  <0> d          -0.992  -5.291   0.054  0.00  0.00     0.032 A 
ATOM     15  C4  <0> d          -1.469  -4.108   0.579  0.00  0.00     0.039 A 
ATOM     16  C3  <0> d          -0.990  -2.894   0.108  0.00  0.00     0.068 A 
ATOM     17  C8  <0> d          -0.033  -2.863  -0.897  0.00  0.00     0.039 A 
ATOM     18  C7  <0> d           0.454  -4.040  -1.425  0.00  0.00     0.032 A 
BRANCH  16  19
ATOM     19  O1  <0> d          -1.463  -1.730   0.629  0.00  0.00    -0.352 OA
BRANCH  19  20
ATOM     20  C2  <0> d          -2.446  -1.834   1.661  0.00  0.00     0.171 C 
ATOM     21  C1  <0> d          -2.854  -0.433   2.119  0.00  0.00     0.034 C 
ENDBRANCH  19  20
ENDBRANCH  16  19
ENDBRANCH   1  13
BRANCH   3  22
ATOM     22  C18 <0> d           2.235  -8.528  -2.605  0.00  0.00     0.261 C 
ATOM     23  O4  <0> d           2.670  -9.569  -3.058  0.00  0.00    -0.267 OA
ATOM     24  N2  <0> d           2.662  -8.084  -1.406  0.00  0.00    -0.307 N 
ATOM     25  H15 <0> d           2.280  -7.279  -1.023  0.00  0.00     0.170 HD
BRANCH  24  26
ATOM     26  C19 <0> d           3.651  -8.783  -0.717  0.00  0.00     0.130 A 
ATOM     27  N3  <0> d           4.347  -8.172   0.229  0.00  0.00    -0.236 NA
ATOM     28  C23 <0> d           5.289  -8.797   0.908  0.00  0.00     0.033 A 
ATOM     29  C22 <0> d           5.591 -10.119   0.647  0.00  0.00     0.027 A 
ATOM     30  C24 <0> d           6.049  -8.059   1.979  0.00  0.00     0.070 C 
ATOM     31  C21 <0> d           4.887 -10.795  -0.341  0.00  0.00     0.006 A 
ATOM     32  C20 <0> d           3.902 -10.113  -1.033  0.00  0.00     0.050 A 
ENDBRANCH  24  26
ENDBRANCH   3  22
BRANCH   8  33
ATOM     33  O3  <0> d          -2.882  -4.986  -7.266  0.00  0.00    -0.361 OA
ATOM     34  H14 <0> d          -3.790  -5.195  -7.009  0.00  0.00     0.217 HD
ENDBRANCH   8  33
TORSDOF 6
