REMARK  5 active torsions:
REMARK  status: ('A' for Active; 'I' for Inactive)
REMARK    1  A    between atoms: C8_12  and  S2_13 
REMARK    2  A    between atoms: S2_13  and  C9_14 
REMARK    3  A    between atoms: C9_14  and  C10_15 
REMARK       I    between atoms: C10_15  and  N4_17 
REMARK    4  A    between atoms: N4_17  and  C11_18 
REMARK    5  A    between atoms: C12_19  and  C15_23 
REMARK       I    between atoms: C15_23  and  N5_25 
ROOT
ATOM      1  C9  <0> d          -6.349   2.500   0.073  0.00  0.00     0.185 C 
ENDROOT
BRANCH   1   2
ATOM      2  S2  <0> d          -4.575   2.118   0.055  0.00  0.00    -0.080 SA
BRANCH   2   3
ATOM      3  C8  <0> d          -3.799   3.700   0.056  0.00  0.00     0.197 A 
ATOM      4  N1  <0> d          -2.432   3.929   0.044  0.00  0.00    -0.265 N 
ATOM      5  C5  <0> d          -1.273   3.137   0.030  0.00  0.00     0.061 A 
ATOM      6  C7  <0> d          -2.282   5.290   0.050  0.00  0.00     0.202 A 
ATOM      7  C4  <0> d          -0.048   3.812   0.022  0.00  0.00     0.035 A 
ATOM      8  C6  <0> d          -1.220   1.734   0.017  0.00  0.00     0.031 A 
ATOM      9  C3  <0> d           1.161   3.155   0.007  0.00  0.00     0.021 A 
ATOM     10  S1  <0> d          -0.521   5.524   0.035  0.00  0.00    -0.048 SA
ATOM     11  C2  <0> d           1.185   1.772   0.000  0.00  0.00     0.002 A 
ATOM     12  C1  <0> d          -0.013   1.076   0.008  0.00  0.00     0.002 A 
ATOM     13  N2  <0> d          -3.448   5.864   0.063  0.00  0.00    -0.121 NA
ATOM     14  N3  <0> d          -4.417   4.852   0.067  0.00  0.00    -0.121 NA
ENDBRANCH   2   3
ENDBRANCH   1   2
BRANCH   1  15
ATOM     15  C10 <0> d          -7.139   1.216   0.074  0.00  0.00     0.232 C 
ATOM     16  O1  <0> d          -6.562   0.149   0.063  0.00  0.00    -0.272 OA
ATOM     17  N4  <0> d          -8.486   1.254   0.087  0.00  0.00    -0.320 N 
ATOM     18  H7  <0> d          -9.009   2.222   0.096  0.00  0.00     0.169 HD
BRANCH  17  19
ATOM     19  C11 <0> d          -9.213   0.073   0.087  0.00  0.00     0.092 A 
ATOM     20  S3  <0> d          -8.621  -1.554   0.074  0.00  0.00    -0.083 SA
ATOM     21  C14 <0> d         -10.170  -2.433   0.084  0.00  0.00     0.053 A 
ATOM     22  C13 <0> d         -11.085  -1.448   0.097  0.00  0.00     0.027 A 
ATOM     23  C12 <0> d         -10.593  -0.091   0.105  0.00  0.00     0.066 A 
BRANCH  23  24
ATOM     24  C15 <0> d         -11.504   1.058   0.126  0.00  0.00     0.252 C 
ATOM     25  O2  <0> d         -11.056   2.189   0.129  0.00  0.00    -0.268 OA
ATOM     26  N5  <0> d         -12.837   0.860   0.143  0.00  0.00    -0.366 N 
ATOM     27  H10 <0> d         -13.521   1.722   0.159  0.00  0.00     0.159 HD
ATOM     28  H11 <0> d         -13.242  -0.163   0.141  0.00  0.00     0.159 HD
ENDBRANCH  23  24
ENDBRANCH  17  19
ENDBRANCH   1  15
TORSDOF 5
