REMARK  5 active torsions:
REMARK  status: ('A' for Active; 'I' for Inactive)
REMARK    1  A    between atoms: C3_4  and  C4_7 
REMARK    2  A    between atoms: C4_7  and  N3_8 
REMARK    3  A    between atoms: N3_8  and  C5_9 
REMARK    4  A    between atoms: C5_9  and  C7_11 
REMARK    5  A    between atoms: C5_9  and  C13_18 
ROOT
ATOM      1  C5  <0> d           1.441  -4.782  -2.838  0.00  0.00     0.237 C 
ATOM      2  C6  <0> d           0.723  -5.748  -1.894  0.00  0.00     0.064 C 
ENDROOT
BRANCH   1   3
ATOM      3  N3  <0> d           1.533  -3.459  -2.208  0.00  0.00    -0.045 N 
ATOM      4  H6  <0> d           2.012  -2.823  -2.828  0.00  0.00     0.279 HD
ATOM      5  H14 <0> d           2.046  -3.534  -1.342  0.00  0.00     0.279 HD
BRANCH   3   6
ATOM      6  C4  <0> d           0.182  -2.951  -1.935  0.00  0.00     0.322 C 
BRANCH   6   7
ATOM      7  C3  <0> d           0.277  -1.610  -1.254  0.00  0.00     0.198 A 
ATOM      8  N1  <0> d           0.315  -0.451  -1.851  0.00  0.00    -0.208 NA
ATOM      9  C2  <0> d           0.400   0.529  -0.945  0.00  0.00     0.152 A 
ATOM     10  C1  <0> d           0.465   2.003  -1.252  0.00  0.00     0.096 C 
ATOM     11  N2  <0> d           0.423   0.003   0.246  0.00  0.00    -0.112 NA
ATOM     12  O1  <0> d           0.337  -1.403   0.067  0.00  0.00    -0.194 OA
ENDBRANCH   6   7
ENDBRANCH   3   6
ENDBRANCH   1   3
BRANCH   1  13
ATOM     13  C7  <0> d           2.827  -5.299  -3.127  0.00  0.00     0.005 A 
ATOM     14  C12 <0> d           2.993  -6.501  -3.791  0.00  0.00     0.020 A 
ATOM     15  C11 <0> d           4.265  -6.972  -4.060  0.00  0.00     0.020 A 
ATOM     16 Br1  <0> d           1.480  -7.495  -4.339  0.00  0.00    -0.050 Br
ATOM     17  C10 <0> d           5.370  -6.248  -3.655  0.00  0.00     0.001 A 
ATOM     18  C9  <0> d           5.204  -5.049  -2.986  0.00  0.00     0.001 A 
ATOM     19  C8  <0> d           3.933  -4.575  -2.722  0.00  0.00     0.011 A 
ENDBRANCH   1  13
BRANCH   1  20
ATOM     20  C13 <0> d           0.668  -4.672  -4.127  0.00  0.00     0.215 C 
ATOM     21  O2  <0> d           0.940  -3.793  -4.928  0.00  0.00    -0.646 OA
ATOM     22  O3  <0> d          -0.230  -5.461  -4.369  0.00  0.00    -0.646 OA
ENDBRANCH   1  20
TORSDOF 5
