REMARK  5 active torsions:
REMARK  status: ('A' for Active; 'I' for Inactive)
REMARK    1  A    between atoms: C5_6  and  S1_10 
REMARK    2  A    between atoms: S1_10  and  C8_11 
REMARK    3  A    between atoms: C8_11  and  C9_12 
REMARK    4  A    between atoms: C12_19  and  N6_31 
REMARK    5  A    between atoms: C14_21  and  C15_22 
ROOT
ATOM      1  C1  <0> d          -0.018   1.503   0.010  0.00  0.00     0.050 C 
ATOM      2  C2  <0> d           0.002  -0.004   0.002  0.00  0.00    -0.036 A 
ATOM      3  C3  <0> d           0.006  -0.707  -1.191  0.00  0.00     0.035 A 
ATOM      4  C4  <0> d           0.025  -2.089  -1.167  0.00  0.00     0.032 A 
ATOM      5  N1  <0> d           0.040  -2.754  -0.028  0.00  0.00    -0.245 NA
ATOM      6  C5  <0> d           0.037  -2.133   1.142  0.00  0.00     0.115 A 
ATOM      7  C6  <0> d           0.023  -0.727   1.200  0.00  0.00     0.086 A 
ATOM      8  C7  <0> d           0.026  -0.049   2.461  0.00  0.00     0.103 C 
ATOM      9  N2  <0> d           0.028   0.489   3.462  0.00  0.00    -0.191 NA
ATOM     10  C22 <0> d           0.029  -2.851  -2.467  0.00  0.00     0.070 C 
ENDROOT
BRANCH   6  11
ATOM     11  S1  <0> d           0.057  -3.071   2.633  0.00  0.00    -0.103 SA
BRANCH  11  12
ATOM     12  C8  <0> d           0.078  -4.794   2.067  0.00  0.00     0.142 C 
BRANCH  12  13
ATOM     13  C9  <0> d           0.096  -5.715   3.259  0.00  0.00     0.076 A 
ATOM     14  N4  <0> d          -0.957  -6.200   3.874  0.00  0.00    -0.176 NA
ATOM     15  N3  <0> d          -0.518  -7.015   4.930  0.00  0.00    -0.256 N 
ATOM     16  C11 <0> d           0.824  -6.995   4.934  0.00  0.00     0.175 A 
ATOM     17  H1  <0> d          -1.084  -7.502   5.548  0.00  0.00     0.191 HD
ATOM     18  C10 <0> d           1.229  -6.193   3.903  0.00  0.00     0.035 A 
ATOM     19  O1  <0> d           1.698  -7.617   5.764  0.00  0.00    -0.274 OA
ATOM     20  C14 <0> d           2.681  -5.934   3.596  0.00  0.00     0.106 C 
ATOM     21  C13 <0> d           3.504  -6.436   4.756  0.00  0.00     0.086 C 
ATOM     22  C12 <0> d           2.985  -7.217   5.729  0.00  0.00     0.161 C 
ATOM     23  C21 <0> d           4.887  -6.071   4.830  0.00  0.00     0.100 C 
ATOM     24  N5  <0> d           5.984  -5.782   4.888  0.00  0.00    -0.191 NA
BRANCH  20  25
ATOM     25  C15 <0> d           3.074  -6.667   2.339  0.00  0.00    -0.044 A 
ATOM     26  C20 <0> d           3.544  -5.962   1.247  0.00  0.00     0.011 A 
ATOM     27  C19 <0> d           3.909  -6.633   0.096  0.00  0.00     0.043 A 
ATOM     28  C18 <0> d           3.794  -8.011   0.032  0.00  0.00     0.116 A 
ATOM     29  C17 <0> d           3.318  -8.716   1.125  0.00  0.00     0.043 A 
ATOM     30  F1  <0> d           4.146  -8.668  -1.095  0.00  0.00    -0.206 F 
ATOM     31  C16 <0> d           2.959  -8.043   2.277  0.00  0.00     0.011 A 
ENDBRANCH  20  25
BRANCH  22  32
ATOM     32  N6  <0> d           3.817  -7.627   6.742  0.00  0.00    -0.379 N 
ATOM     33  H13 <0> d           3.473  -8.189   7.454  0.00  0.00     0.158 HD
ATOM     34  H14 <0> d           4.748  -7.356   6.744  0.00  0.00     0.158 HD
ENDBRANCH  22  32
ENDBRANCH  12  13
ENDBRANCH  11  12
ENDBRANCH   6  11
TORSDOF 5
