REMARK  8 active torsions:
REMARK  status: ('A' for Active; 'I' for Inactive)
REMARK    1  A    between atoms: C2_2  and  C3_3 
REMARK    2  A    between atoms: C6_6  and  N1_9 
REMARK    3  A    between atoms: C11_13  and  C23_30 
REMARK    4  A    between atoms: C12_15  and  C15_19 
REMARK    5  A    between atoms: C12_15  and  C22_27 
REMARK    6  A    between atoms: C15_19  and  C16_20 
REMARK    7  A    between atoms: C19_23  and  O3_26 
REMARK    8  A    between atoms: C24_31  and  C25_32 
ROOT
ATOM      1  N1  <0> d           2.659  -1.835  -4.668  0.00  0.00    -0.252 N 
ATOM      2  C9  <0> d           2.021  -2.080  -5.859  0.00  0.00     0.238 C 
ATOM      3  O1  <0> d           0.897  -1.755  -6.177  0.00  0.00    -0.272 OA
ATOM      4  C10 <0> d           2.982  -2.811  -6.646  0.00  0.00     0.129 C 
ATOM      5  C11 <0> d           3.282  -3.148  -8.049  0.00  0.00     0.224 C 
ATOM      6  N2  <0> d           4.652  -3.760  -7.940  0.00  0.00    -0.047 N 
ATOM      7  C12 <0> d           5.280  -3.252  -6.684  0.00  0.00     0.229 C 
ATOM      8  C13 <0> d           4.340  -2.141  -6.193  0.00  0.00     0.141 C 
ATOM      9  C14 <0> d           4.002  -2.073  -4.729  0.00  0.00     0.239 C 
ATOM     10  O2  <0> d           4.766  -2.205  -3.797  0.00  0.00    -0.272 OA
ATOM     11  H13 <0> d           4.574  -4.765  -7.901  0.00  0.00     0.279 HD
ATOM     12  H28 <0> d           5.211  -3.490  -8.735  0.00  0.00     0.279 HD
ENDROOT
BRANCH   7  13
ATOM     13  C15 <0> d           5.392  -4.378  -5.654  0.00  0.00     0.090 C 
BRANCH  13  14
ATOM     14  C16 <0> d           6.271  -5.473  -6.202  0.00  0.00    -0.055 A 
ATOM     15  C21 <0> d           7.634  -5.443  -5.975  0.00  0.00     0.010 A 
ATOM     16  C20 <0> d           8.441  -6.449  -6.471  0.00  0.00     0.037 A 
ATOM     17  C19 <0> d           7.883  -7.484  -7.206  0.00  0.00     0.065 A 
ATOM     18  C18 <0> d           6.516  -7.510  -7.437  0.00  0.00     0.037 A 
ATOM     19  C17 <0> d           5.713  -6.504  -6.935  0.00  0.00     0.010 A 
BRANCH  17  20
ATOM     20  O3  <0> d           8.676  -8.472  -7.699  0.00  0.00    -0.361 OA
ATOM     21  H20 <0> d           9.022  -8.294  -8.584  0.00  0.00     0.217 HD
ENDBRANCH  17  20
ENDBRANCH  13  14
ENDBRANCH   7  13
BRANCH   7  22
ATOM     22  C22 <0> d           6.641  -2.675  -6.978  0.00  0.00     0.212 C 
ATOM     23  O4  <0> d           7.081  -2.700  -8.115  0.00  0.00    -0.646 OA
ATOM     24  O5  <0> d           7.302  -2.184  -6.079  0.00  0.00    -0.646 OA
ENDBRANCH   7  22
BRANCH   5  25
ATOM     25  C23 <0> d           2.288  -4.144  -8.588  0.00  0.00     0.008 C 
ATOM     26  C24 <0> d           1.609  -3.872  -9.693  0.00  0.00     0.009 C 
BRANCH  26  27
ATOM     27  C25 <0> d           0.634  -4.849 -10.221  0.00  0.00    -0.036 A 
ATOM     28  C30 <0> d          -0.082  -4.566 -11.384  0.00  0.00     0.011 A 
ATOM     29  C29 <0> d          -0.986  -5.485 -11.876  0.00  0.00     0.001 A 
ATOM     30  C28 <0> d          -1.192  -6.681 -11.211  0.00  0.00     0.000 A 
ATOM     31  C27 <0> d          -0.489  -6.965 -10.054  0.00  0.00     0.001 A 
ATOM     32  C26 <0> d           0.422  -6.057  -9.556  0.00  0.00     0.011 A 
ENDBRANCH  26  27
ENDBRANCH   5  25
BRANCH   1  33
ATOM     33  C6  <0> d           2.002  -1.382  -3.514  0.00  0.00     0.045 A 
ATOM     34  C5  <0> d           0.632  -1.163  -3.534  0.00  0.00     0.031 A 
ATOM     35  C4  <0> d          -0.012  -0.718  -2.397  0.00  0.00     0.009 A 
ATOM     36  C3  <0> d           0.707  -0.490  -1.238  0.00  0.00    -0.058 A 
ATOM     37  C8  <0> d           2.074  -0.702  -1.216  0.00  0.00     0.009 A 
ATOM     38  C7  <0> d           2.722  -1.152  -2.350  0.00  0.00     0.031 A 
BRANCH  36  39
ATOM     39  C2  <0> d           0.002  -0.004   0.002  0.00  0.00     0.034 C 
ATOM     40  C1  <0> d          -0.019   1.526   0.010  0.00  0.00     0.010 C 
ENDBRANCH  36  39
ENDBRANCH   1  33
TORSDOF 8
