REMARK  2 active torsions:
REMARK  status: ('A' for Active; 'I' for Inactive)
REMARK    1  A    between atoms: C9_9  and  N2_13 
REMARK    2  A    between atoms: C14_18  and  C15_20 
ROOT
ATOM      1  N2  <0> d           4.248  -4.074   0.731  0.00  0.00    -0.220 N 
ATOM      2  C11 <0> d           4.660  -5.153   0.039  0.00  0.00     0.264 A 
ATOM      3  O2  <0> d           4.351  -5.285  -1.134  0.00  0.00    -0.267 OA
ATOM      4  C12 <0> d           5.454  -6.130   0.680  0.00  0.00     0.078 A 
ATOM      5  C13 <0> d           5.772  -5.934   1.992  0.00  0.00     0.040 A 
ATOM      6  C14 <0> d           5.290  -4.768   2.630  0.00  0.00     0.087 A 
ATOM      7  N3  <0> d           4.561  -3.903   1.965  0.00  0.00    -0.168 NA
ENDROOT
BRANCH   1   8
ATOM      8  C9  <0> d           3.426  -3.066   0.057  0.00  0.00     0.206 C 
ATOM      9  C8  <0> d           2.104  -2.950   0.776  0.00  0.00     0.042 C 
ATOM     10  C7  <0> d           1.065  -2.205  -0.003  0.00  0.00     0.043 C 
ATOM     11  C5  <0> d           1.202  -0.717  -0.011  0.00  0.00    -0.031 A 
ATOM     12  C4  <0> d           2.396  -0.029  -0.024  0.00  0.00     0.041 A 
ATOM     13  C6  <0> d           0.002  -0.004   0.002  0.00  0.00     0.009 A 
ATOM     14  C3  <0> d           2.365   1.376  -0.017  0.00  0.00     0.030 A 
ATOM     15  N1  <0> d           3.656  -0.580  -0.060  0.00  0.00    -0.325 N 
ATOM     16  C2  <0> d           1.179   2.068   0.002  0.00  0.00     0.002 A 
ATOM     17  C1  <0> d          -0.017   1.371   0.010  0.00  0.00     0.001 A 
ATOM     18  C10 <0> d           4.164  -1.776   0.040  0.00  0.00     0.247 C 
ATOM     19  H10 <0> d           4.340   0.093  -0.196  0.00  0.00     0.169 HD
ATOM     20  O1  <0> d           5.372  -1.843   0.129  0.00  0.00    -0.271 OA
ENDBRANCH   1   8
BRANCH   6  21
ATOM     21  C15 <0> d           5.614  -4.518   4.056  0.00  0.00    -0.006 A 
ATOM     22  C20 <0> d           6.391  -5.431   4.766  0.00  0.00     0.015 A 
ATOM     23  C19 <0> d           6.694  -5.192   6.091  0.00  0.00     0.024 A 
ATOM     24  C18 <0> d           6.218  -4.054   6.718  0.00  0.00     0.034 A 
ATOM     25  C17 <0> d           5.440  -3.147   6.019  0.00  0.00     0.024 A 
ATOM     26 Cl1  <0> d           6.597  -3.762   8.387  0.00  0.00    -0.084 Cl
ATOM     27  C16 <0> d           5.136  -3.374   4.692  0.00  0.00     0.015 A 
ENDBRANCH   6  21
TORSDOF 2
