REMARK  4 active torsions:
REMARK  status: ('A' for Active; 'I' for Inactive)
REMARK    1  A    between atoms: C4_4  and  N3_29 
REMARK    2  A    between atoms: C5_5  and  N1_7 
REMARK       I    between atoms: N1_7  and  C7_8 
REMARK    3  A    between atoms: C7_8  and  C8_10 
REMARK    4  A    between atoms: C11_13  and  N2_16 
ROOT
ATOM      1  C8  <0> d          -0.078  -4.170   0.077  0.00  0.00     0.032 A 
ATOM      2  C9  <0> d           1.104  -4.893   0.264  0.00  0.00     0.019 A 
ATOM      3  C10 <0> d           1.059  -6.264   0.381  0.00  0.00     0.031 A 
ATOM      4  C11 <0> d          -0.160  -6.930   0.312  0.00  0.00     0.045 A 
ATOM      5  C12 <0> d          -1.337  -6.215   0.124  0.00  0.00     0.031 A 
ATOM      6  C13 <0> d          -1.301  -4.842   0.013  0.00  0.00     0.019 A 
ENDROOT
BRANCH   1   7
ATOM      7  C7  <0> d          -0.034  -2.700  -0.049  0.00  0.00     0.256 C 
ATOM      8  N1  <0> d           1.147  -2.053   0.013  0.00  0.00    -0.321 N 
ATOM      9  H9  <0> d           1.974  -2.558   0.059  0.00  0.00     0.169 HD
ATOM     10  O1  <0> d          -1.063  -2.072  -0.207  0.00  0.00    -0.267 OA
BRANCH   8  11
ATOM     11  C5  <0> d           1.180  -0.655   0.009  0.00  0.00     0.068 A 
ATOM     12  C4  <0> d           2.216   0.015  -0.628  0.00  0.00     0.129 A 
ATOM     13  C3  <0> d           2.245   1.396  -0.630  0.00  0.00     0.038 A 
ATOM     14  C2  <0> d           1.244   2.111   0.001  0.00  0.00     0.003 A 
ATOM     15  C1  <0> d           0.210   1.446   0.636  0.00  0.00     0.002 A 
ATOM     16  C6  <0> d           0.175   0.066   0.641  0.00  0.00     0.032 A 
BRANCH  12  17
ATOM     17  N3  <0> d           3.288  -0.750  -1.304  0.00  0.00    -0.113 N 
ATOM     18  O4  <0> d           4.141  -0.168  -1.933  0.00  0.00    -0.532 OA
ATOM     19  O5  <0> d           3.311  -1.956  -1.226  0.00  0.00    -0.532 OA
ENDBRANCH  12  17
ENDBRANCH   8  11
ENDBRANCH   1   7
BRANCH   4  20
ATOM     20  N2  <0> d          -0.201  -8.322   0.430  0.00  0.00    -0.252 N 
ATOM     21  C21 <0> d           0.315  -8.976   1.478  0.00  0.00     0.236 A 
ATOM     22  C20 <0> d           0.098 -10.462   1.294  0.00  0.00     0.100 A 
ATOM     23  O3  <0> d           0.867  -8.459   2.426  0.00  0.00    -0.272 OA
ATOM     24  C15 <0> d          -0.630 -10.556  -0.062  0.00  0.00     0.100 A 
ATOM     25  C19 <0> d           1.462 -11.190   1.170  0.00  0.00     0.022 C 
ATOM     26  C14 <0> d          -0.755  -9.112  -0.498  0.00  0.00     0.236 A 
ATOM     27  C16 <0> d           0.238 -11.316  -1.072  0.00  0.00     0.022 C 
ATOM     28  O2  <0> d          -1.274  -8.732  -1.525  0.00  0.00    -0.272 OA
ATOM     29  C23 <0> d           1.581 -10.608  -1.161  0.00  0.00    -0.025 C 
ATOM     30  C17 <0> d           0.475 -12.734  -0.536  0.00  0.00     0.010 C 
ATOM     31  C22 <0> d           2.225 -10.552   0.018  0.00  0.00    -0.025 C 
ATOM     32  C18 <0> d           1.207 -12.658   0.806  0.00  0.00     0.010 C 
ENDBRANCH   4  20
TORSDOF 4
