REMARK  7 active torsions:
REMARK  status: ('A' for Active; 'I' for Inactive)
REMARK    1  A    between atoms: C5_5  and  C8_8 
REMARK    2  A    between atoms: C8_8  and  C9_10 
REMARK    3  A    between atoms: C9_10  and  N1_11 
REMARK    4  A    between atoms: C11_13  and  N3_20 
REMARK    5  A    between atoms: N2_14  and  C14_17 
REMARK    6  A    between atoms: C14_17  and  C15_18 
REMARK    7  A    between atoms: C15_18  and  O2_19 
ROOT
ATOM      1  N1  <0> d          -2.701   4.097   0.037  0.00  0.00    -0.336 N 
ATOM      2  C10 <0> d          -3.409   4.450  -1.047  0.00  0.00     0.147 A 
ATOM      3  C11 <0> d          -4.636   4.825  -0.639  0.00  0.00     0.193 A 
ATOM      4  N2  <0> d          -4.656   4.701   0.724  0.00  0.00    -0.315 N 
ATOM      5  C12 <0> d          -3.441   4.248   1.101  0.00  0.00     0.083 A 
ATOM      6  C13 <0> d          -3.011   3.964   2.518  0.00  0.00     0.089 C 
ENDROOT
BRANCH   1   7
ATOM      7  C9  <0> d          -1.315   3.623   0.028  0.00  0.00     0.213 C 
BRANCH   7   8
ATOM      8  C8  <0> d          -1.299   2.117   0.020  0.00  0.00     0.177 C 
ATOM      9  O1  <0> d          -2.343   1.499   0.021  0.00  0.00    -0.291 OA
BRANCH   8  10
ATOM     10  C5  <0> d          -0.017   1.394   0.010  0.00  0.00     0.011 A 
ATOM     11  C4  <0> d           0.002  -0.004   0.002  0.00  0.00     0.016 A 
ATOM     12  C3  <0> d           1.208  -0.673  -0.013  0.00  0.00     0.007 A 
ATOM     13  C2  <0> d           2.397   0.035  -0.021  0.00  0.00    -0.062 A 
ATOM     14  C1  <0> d           3.709  -0.705  -0.037  0.00  0.00     0.048 C 
ATOM     15  C7  <0> d           2.386   1.419  -0.013  0.00  0.00     0.007 A 
ATOM     16  C6  <0> d           1.189   2.103   0.002  0.00  0.00     0.016 A 
ENDBRANCH   8  10
ENDBRANCH   7   8
ENDBRANCH   1   7
BRANCH   4  17
ATOM     17  C14 <0> d          -5.785   5.002   1.608  0.00  0.00     0.158 C 
BRANCH  17  18
ATOM     18  C15 <0> d          -5.712   6.465   2.047  0.00  0.00     0.184 C 
BRANCH  18  19
ATOM     19  O2  <0> d          -6.814   6.759   2.909  0.00  0.00    -0.399 OA
ATOM     20  H18 <0> d          -6.832   7.672   3.227  0.00  0.00     0.209 HD
ENDBRANCH  18  19
ENDBRANCH  17  18
ENDBRANCH   4  17
BRANCH   3  21
ATOM     21  N3  <0> d          -5.748   5.289  -1.499  0.00  0.00    -0.096 N 
ATOM     22  O3  <0> d          -6.813   5.605  -1.000  0.00  0.00    -0.530 OA
ATOM     23  O4  <0> d          -5.598   5.354  -2.706  0.00  0.00    -0.530 OA
ENDBRANCH   3  21
TORSDOF 7
