REMARK  5 active torsions:
REMARK  status: ('A' for Active; 'I' for Inactive)
REMARK    1  A    between atoms: C10_13  and  C17_23 
REMARK    2  A    between atoms: C11_14  and  N3_15 
REMARK    3  A    between atoms: N4_16  and  C12_17 
REMARK    4  A    between atoms: C12_17  and  C13_18 
REMARK       I    between atoms: C17_23  and  N5_25 
REMARK    5  A    between atoms: N5_25  and  C18_26 
ROOT
ATOM      1  C1  <0> d          -0.352   0.774   1.383  0.00  0.00     0.005 A 
ATOM      2  C2  <0> d           0.579   1.635   0.782  0.00  0.00     0.018 A 
ATOM      3  C3  <0> d           1.738   1.143   0.293  0.00  0.00     0.102 A 
ATOM      4  N1  <0> d           2.022  -0.189   0.374  0.00  0.00    -0.273 N 
ATOM      5  C4  <0> d           1.135  -1.056   0.955  0.00  0.00     0.139 A 
ATOM      6  C5  <0> d          -0.080  -0.557   1.470  0.00  0.00     0.051 A 
ATOM      7  N2  <0> d           1.377  -2.359   1.051  0.00  0.00    -0.212 NA
ATOM      8  C6  <0> d           2.502  -2.911   0.587  0.00  0.00     0.149 A 
ATOM      9  C7  <0> d           3.473  -2.076  -0.029  0.00  0.00     0.080 A 
ATOM     10  C8  <0> d           3.195  -0.642  -0.129  0.00  0.00     0.267 A 
ATOM     11  O1  <0> d           3.991   0.118  -0.648  0.00  0.00    -0.267 OA
ATOM     12  C9  <0> d           4.653  -2.630  -0.519  0.00  0.00     0.042 A 
ATOM     13  C10 <0> d           4.836  -4.008  -0.382  0.00  0.00     0.077 A 
ATOM     14  C11 <0> d           3.829  -4.779   0.241  0.00  0.00     0.119 A 
ATOM     15  N4  <0> d           2.722  -4.223   0.695  0.00  0.00    -0.310 N 
ENDROOT
BRANCH  13  16
ATOM     16  C17 <0> d           6.062  -4.650  -0.881  0.00  0.00     0.260 C 
ATOM     17  O3  <0> d           6.257  -5.833  -0.675  0.00  0.00    -0.267 OA
ATOM     18  N5  <0> d           6.969  -3.927  -1.567  0.00  0.00    -0.323 N 
ATOM     19  H12 <0> d           6.852  -2.969  -1.666  0.00  0.00     0.169 HD
BRANCH  18  20
ATOM     20  C18 <0> d           8.081  -4.558  -2.137  0.00  0.00     0.035 A 
ATOM     21  C23 <0> d           9.292  -3.885  -2.228  0.00  0.00     0.032 A 
ATOM     22  C22 <0> d          10.389  -4.512  -2.785  0.00  0.00     0.044 A 
ATOM     23  C21 <0> d          10.279  -5.806  -3.264  0.00  0.00     0.116 A 
ATOM     24  C20 <0> d           9.071  -6.477  -3.181  0.00  0.00     0.044 A 
ATOM     25  F1  <0> d          11.352  -6.416  -3.814  0.00  0.00    -0.206 F 
ATOM     26  C19 <0> d           7.973  -5.856  -2.619  0.00  0.00     0.032 A 
ENDBRANCH  18  20
ENDBRANCH  13  16
BRANCH  14  27
ATOM     27  N3  <0> d           4.007  -6.140   0.377  0.00  0.00    -0.384 N 
ATOM     28  H6  <0> d           4.902  -6.508   0.436  0.00  0.00     0.157 HD
ATOM     29  H17 <0> d           3.236  -6.728   0.414  0.00  0.00     0.157 HD
ENDBRANCH  14  27
BRANCH  15  30
ATOM     30  C12 <0> d           1.708  -5.066   1.333  0.00  0.00     0.197 C 
BRANCH  30  31
ATOM     31  C13 <0> d           0.739  -5.563   0.291  0.00  0.00     0.070 A 
ATOM     32  O2  <0> d          -0.392  -4.946  -0.087  0.00  0.00    -0.325 OA
ATOM     33  C16 <0> d          -1.002  -5.673  -1.038  0.00  0.00     0.142 A 
ATOM     34  C15 <0> d          -0.264  -6.773  -1.270  0.00  0.00     0.027 A 
ATOM     35  C14 <0> d           0.858  -6.703  -0.413  0.00  0.00     0.036 A 
ENDBRANCH  30  31
ENDBRANCH  15  30
TORSDOF 5
