REMARK  4 active torsions:
REMARK  status: ('A' for Active; 'I' for Inactive)
REMARK    1  A    between atoms: C2_2  and  C3_3 
REMARK    2  A    between atoms: C2_2  and  N1_10 
REMARK    3  A    between atoms: N1_10  and  C9_11 
REMARK    4  A    between atoms: C9_11  and  C10_12 
ROOT
ATOM      1  N1  <0> d          -1.376  -0.512   0.012  0.00  0.00    -0.063 N 
ATOM      2  H10 <0> d          -1.888  -0.113  -0.760  0.00  0.00     0.278 HD
ATOM      3  H15 <0> d          -1.364  -1.518  -0.076  0.00  0.00     0.278 HD
ENDROOT
BRANCH   1   4
ATOM      4  C2  <0> d           0.002  -0.004   0.002  0.00  0.00     0.215 C 
ATOM      5  C1  <0> d          -0.019   1.526   0.010  0.00  0.00     0.045 C 
BRANCH   4   6
ATOM      6  C3  <0> d           0.707  -0.490  -1.238  0.00  0.00    -0.028 A 
ATOM      7  C8  <0> d           2.026  -0.899  -1.167  0.00  0.00     0.010 A 
ATOM      8  C7  <0> d           2.672  -1.350  -2.303  0.00  0.00     0.019 A 
ATOM      9  C6  <0> d           2.002  -1.382  -3.513  0.00  0.00     0.006 A 
ATOM     10  C5  <0> d           0.684  -0.967  -3.584  0.00  0.00     0.019 A 
ATOM     11  I1  <0> d           2.982  -2.058  -5.236  0.00  0.00    -0.045 I 
ATOM     12  C4  <0> d           0.037  -0.522  -2.447  0.00  0.00     0.010 A 
ENDBRANCH   4   6
ENDBRANCH   1   4
BRANCH   1  13
ATOM     13  C9  <0> d          -2.026  -0.140   1.276  0.00  0.00     0.274 C 
BRANCH  13  14
ATOM     14  C10 <0> d          -3.440  -0.661   1.287  0.00  0.00     0.003 A 
ATOM     15  C12 <0> d          -3.853  -1.911   1.762  0.00  0.00     0.148 A 
ATOM     16  N3  <0> d          -5.149  -1.998   1.608  0.00  0.00    -0.187 NA
ATOM     17  N2  <0> d          -5.601  -0.810   1.020  0.00  0.00    -0.289 N 
ATOM     18  C11 <0> d          -4.534  -0.006   0.833  0.00  0.00     0.119 A 
ATOM     19  H2  <0> d          -6.520  -0.602   0.788  0.00  0.00     0.188 HD
ENDBRANCH  13  14
ENDBRANCH   1  13
TORSDOF 4
