REMARK  7 active torsions:
REMARK  status: ('A' for Active; 'I' for Inactive)
REMARK    1  A    between atoms: C3_4  and  C6_9 
REMARK    2  A    between atoms: C4_5  and  O1_7 
REMARK       I    between atoms: C6_9  and  N3_11 
REMARK    3  A    between atoms: C9_14  and  C12_17 
REMARK    4  A    between atoms: C12_17  and  N4_18 
REMARK       I    between atoms: N4_18  and  C13_19 
REMARK    5  A    between atoms: C13_19  and  C14_21 
REMARK    6  A    between atoms: C14_21  and  C15_22 
REMARK    7  A    between atoms: C15_22  and  C16_23 
ROOT
ATOM      1  C6  <0> d           0.039  -3.291  -1.527  0.00  0.00     0.259 C 
ATOM      2  O2  <0> d          -0.071  -2.307  -0.822  0.00  0.00    -0.267 OA
ATOM      3  N3  <0> d           0.133  -3.155  -2.865  0.00  0.00    -0.348 N 
ATOM      4  C7  <0> d           0.230  -1.822  -3.476  0.00  0.00     0.126 C 
ATOM      5  C8  <0> d          -0.865  -1.686  -4.539  0.00  0.00     0.026 C 
ATOM      6  C9  <0> d          -0.751  -2.844  -5.533  0.00  0.00     0.006 C 
ATOM      7  C10 <0> d          -0.953  -4.171  -4.799  0.00  0.00     0.026 C 
ATOM      8  C11 <0> d           0.146  -4.335  -3.739  0.00  0.00     0.126 C 
ENDROOT
BRANCH   6   9
ATOM      9  C12 <0> d          -1.822  -2.692  -6.616  0.00  0.00     0.127 C 
BRANCH   9  10
ATOM     10  N4  <0> d          -1.639  -3.731  -7.632  0.00  0.00    -0.361 N 
ATOM     11  C13 <0> d          -2.473  -3.794  -8.690  0.00  0.00     0.217 C 
ATOM     12  O3  <0> d          -3.374  -2.990  -8.799  0.00  0.00    -0.274 OA
ATOM     13  H19 <0> d          -0.918  -4.374  -7.545  0.00  0.00     0.162 HD
BRANCH  11  14
ATOM     14  C14 <0> d          -2.284  -4.862  -9.735  0.00  0.00     0.103 C 
BRANCH  14  15
ATOM     15  C15 <0> d          -3.355  -4.711 -10.818  0.00  0.00     0.014 C 
BRANCH  15  16
ATOM     16  C16 <0> d          -3.163  -5.796 -11.880  0.00  0.00    -0.014 C 
ATOM     17  C20 <0> d          -4.152  -5.590 -13.046  0.00  0.00     0.004 C 
ATOM     18  C19 <0> d          -4.604  -6.992 -13.492  0.00  0.00     0.000 C 
ATOM     19  C18 <0> d          -3.875  -8.001 -12.580  0.00  0.00     0.000 C 
ATOM     20  C17 <0> d          -3.536  -7.186 -11.307  0.00  0.00     0.004 C 
ENDBRANCH  15  16
ENDBRANCH  14  15
ENDBRANCH  11  14
ENDBRANCH   9  10
ENDBRANCH   6   9
BRANCH   1  21
ATOM     21  C3  <0> d           0.071  -4.632  -0.920  0.00  0.00     0.103 A 
ATOM     22  C2  <0> d           0.877  -5.687  -1.302  0.00  0.00     0.133 A 
ATOM     23  N1  <0> d           0.595  -6.723  -0.496  0.00  0.00    -0.282 N 
ATOM     24  C1  <0> d           1.223  -8.045  -0.554  0.00  0.00     0.179 C 
ATOM     25  N2  <0> d          -0.401  -6.330   0.404  0.00  0.00    -0.147 NA
ATOM     26  C4  <0> d          -0.719  -5.083   0.166  0.00  0.00     0.200 A 
BRANCH  26  27
ATOM     27  O1  <0> d          -1.646  -4.353   0.839  0.00  0.00    -0.337 OA
ATOM     28  C5  <0> d          -2.334  -5.004   1.908  0.00  0.00     0.211 C 
ENDBRANCH  26  27
ENDBRANCH   1  21
TORSDOF 7
