REMARK  5 active torsions:
REMARK  status: ('A' for Active; 'I' for Inactive)
REMARK    1  A    between atoms: C3_3  and  S2_15 
REMARK    2  A    between atoms: N1_5  and  C5_7 
REMARK    3  A    between atoms: S2_15  and  N3_18 
REMARK    4  A    between atoms: N3_18  and  C10_19 
REMARK    5  A    between atoms: C13_22  and  O5_26 
ROOT
ATOM      1  C1  <0> d           4.188   6.007   1.063  0.00  0.00     0.074 C 
ATOM      2  C2  <0> d           2.822   5.689   0.512  0.00  0.00     0.076 A 
ATOM      3  C3  <0> d           2.513   4.639  -0.359  0.00  0.00     0.129 A 
ATOM      4  C4  <0> d           1.187   4.694  -0.624  0.00  0.00     0.052 A 
ATOM      5  N1  <0> d           0.673   5.737   0.063  0.00  0.00    -0.267 N 
ATOM      6  N2  <0> d           1.720   6.348   0.766  0.00  0.00    -0.175 NA
ATOM      7  C9  <0> d           0.420   3.758  -1.521  0.00  0.00     0.072 C 
ENDROOT
BRANCH   3   8
ATOM      8  S2  <0> d           3.650   3.458  -1.004  0.00  0.00     0.267 S 
ATOM      9  O3  <0> d           4.951   3.982  -0.779  0.00  0.00    -0.200 OA
ATOM     10  O4  <0> d           3.182   3.110  -2.300  0.00  0.00    -0.200 OA
BRANCH   8  11
ATOM     11  N3  <0> d           3.521   2.095  -0.072  0.00  0.00    -0.280 N 
ATOM     12  H14 <0> d           3.223   1.262  -0.470  0.00  0.00     0.179 HD
BRANCH  11  13
ATOM     13  C10 <0> d           3.844   2.145   1.288  0.00  0.00     0.044 A 
ATOM     14  C15 <0> d           5.014   2.767   1.702  0.00  0.00     0.056 A 
ATOM     15  C14 <0> d           5.332   2.815   3.047  0.00  0.00     0.069 A 
ATOM     16  C13 <0> d           4.481   2.243   3.982  0.00  0.00     0.090 A 
ATOM     17 Cl1  <0> d           6.792   3.598   3.566  0.00  0.00    -0.081 Cl
ATOM     18  C12 <0> d           3.312   1.622   3.568  0.00  0.00     0.041 A 
ATOM     19  C11 <0> d           2.993   1.573   2.225  0.00  0.00     0.033 A 
BRANCH  16  20
ATOM     20  O5  <0> d           4.793   2.291   5.305  0.00  0.00    -0.354 OA
ATOM     21  C16 <0> d           3.872   1.682   6.212  0.00  0.00     0.210 C 
ENDBRANCH  16  20
ENDBRANCH  11  13
ENDBRANCH   8  11
ENDBRANCH   3   8
BRANCH   5  22
ATOM     22  C5  <0> d          -0.729   6.159   0.068  0.00  0.00     0.125 C 
ATOM     23  C8  <0> d          -1.290   6.101   1.518  0.00  0.00     0.167 C 
ATOM     24  S1  <0> d          -2.754   7.209   1.357  0.00  0.00     0.146 S 
ATOM     25  C7  <0> d          -2.249   8.167  -0.130  0.00  0.00     0.142 C 
ATOM     26  O1  <0> d          -3.894   6.424   1.036  0.00  0.00    -0.228 OA
ATOM     27  O2  <0> d          -2.799   8.082   2.477  0.00  0.00    -0.228 OA
ATOM     28  C6  <0> d          -0.837   7.609  -0.430  0.00  0.00     0.043 C 
ENDBRANCH   5  22
TORSDOF 5
