REMARK  5 active torsions:
REMARK  status: ('A' for Active; 'I' for Inactive)
REMARK    1  A    between atoms: C2_2  and  C3_3 
REMARK    2  A    between atoms: C2_2  and  N2_13 
REMARK       I    between atoms: C3_3  and  N1_5 
REMARK    3  A    between atoms: N1_5  and  C4_6 
REMARK    4  A    between atoms: C10_17  and  C11_18 
REMARK    5  A    between atoms: C14_21  and  O5_24 
ROOT
ATOM      1  N2  <0> d           0.964  -1.433  -0.806  0.00  0.00    -0.285 N 
ATOM      2  C8  <0> d           0.216  -1.879  -1.802  0.00  0.00     0.267 A 
ATOM      3  O4  <0> d          -0.960  -2.153  -1.645  0.00  0.00    -0.266 OA
ATOM      4  C9  <0> d           0.879  -2.025  -3.113  0.00  0.00     0.076 A 
ATOM      5  C10 <0> d           0.370  -2.453  -4.296  0.00  0.00     0.036 C 
ATOM      6  S2  <0> d           2.535  -1.485  -2.713  0.00  0.00    -0.055 SA
ATOM      7  C18 <0> d           2.264  -1.125  -0.985  0.00  0.00     0.149 A 
ATOM      8  S3  <0> d           3.385  -0.535   0.166  0.00  0.00    -0.052 SA
ENDROOT
BRANCH   1   9
ATOM      9  C2  <0> d           0.364  -1.266   0.520  0.00  0.00     0.182 C 
ATOM     10  C1  <0> d           0.470   0.200   0.946  0.00  0.00     0.043 C 
BRANCH   9  11
ATOM     11  C3  <0> d           1.094  -2.131   1.515  0.00  0.00     0.241 C 
ATOM     12  O1  <0> d           2.023  -2.821   1.151  0.00  0.00    -0.271 OA
ATOM     13  N1  <0> d           0.714  -2.140   2.808  0.00  0.00    -0.354 N 
ATOM     14  H6  <0> d          -0.030  -1.588   3.098  0.00  0.00     0.162 HD
BRANCH  13  15
ATOM     15  C4  <0> d           1.423  -2.981   3.774  0.00  0.00     0.099 C 
ATOM     16  C7  <0> d           1.266  -2.387   5.203  0.00  0.00     0.165 C 
ATOM     17  S1  <0> d           1.669  -3.864   6.229  0.00  0.00     0.146 S 
ATOM     18  C6  <0> d           1.333  -5.189   4.999  0.00  0.00     0.142 C 
ATOM     19  O2  <0> d           3.058  -3.853   6.530  0.00  0.00    -0.228 OA
ATOM     20  O3  <0> d           0.725  -3.964   7.286  0.00  0.00    -0.228 OA
ATOM     21  C5  <0> d           0.817  -4.395   3.775  0.00  0.00     0.041 C 
ENDBRANCH  13  15
ENDBRANCH   9  11
ENDBRANCH   1   9
BRANCH   5  22
ATOM     22  C11 <0> d           1.262  -2.677  -5.441  0.00  0.00    -0.035 A 
ATOM     23  C16 <0> d           0.734  -2.789  -6.733  0.00  0.00     0.014 A 
ATOM     24  C15 <0> d           1.575  -2.992  -7.803  0.00  0.00     0.037 A 
ATOM     25  C14 <0> d           2.947  -3.098  -7.602  0.00  0.00     0.068 A 
ATOM     26  C13 <0> d           3.477  -2.993  -6.321  0.00  0.00     0.037 A 
ATOM     27  C12 <0> d           2.645  -2.784  -5.244  0.00  0.00     0.014 A 
BRANCH  25  28
ATOM     28  O5  <0> d           3.772  -3.304  -8.660  0.00  0.00    -0.356 OA
ATOM     29  C17 <0> d           3.162  -3.402  -9.949  0.00  0.00     0.210 C 
ENDBRANCH  25  28
ENDBRANCH   5  22
TORSDOF 5
