REMARK  3 active torsions:
REMARK  status: ('A' for Active; 'I' for Inactive)
REMARK    1  A    between atoms: C2_2  and  C3_3 
REMARK    2  A    between atoms: C6_6  and  N1_9 
REMARK    3  A    between atoms: C10_12  and  C13_19 
ROOT
ATOM      1  N1  <0> d           2.733  -1.947   4.584  0.00  0.00    -0.230 N 
ATOM      2  C9  <0> d           2.067  -2.101   5.745  0.00  0.00     0.269 A 
ATOM      3  O1  <0> d           0.867  -1.892   5.795  0.00  0.00    -0.267 OA
ATOM      4  C10 <0> d           2.764  -2.503   6.897  0.00  0.00     0.100 A 
ATOM      5  C11 <0> d           4.106  -2.731   6.814  0.00  0.00     0.197 A 
ATOM      6  N2  <0> d           4.746  -2.562   5.612  0.00  0.00    -0.285 N 
ATOM      7  H1  <0> d           5.700  -2.723   5.548  0.00  0.00     0.172 HD
ATOM      8  C12 <0> d           4.057  -2.181   4.521  0.00  0.00     0.336 A 
ATOM      9  O2  <0> d           4.640  -2.042   3.463  0.00  0.00    -0.246 OA
ATOM     10  O3  <0> d           4.800  -3.118   7.905  0.00  0.00    -0.171 OA
ENDROOT
BRANCH   4  11
ATOM     11  C13 <0> d           2.039  -2.681   8.206  0.00  0.00     0.289 C 
ATOM     12  N4  <0> d           2.119  -4.088   8.630  0.00  0.00     0.095 N 
ATOM     13  C23 <0> d           3.491  -4.604   8.665  0.00  0.00     0.275 C 
ATOM     14  H21 <0> d           1.659  -4.224   9.518  0.00  0.00     0.316 HD
ATOM     15  C22 <0> d           4.308  -3.867   9.743  0.00  0.00     0.067 C 
ATOM     16  C15 <0> d           4.091  -2.393   9.501  0.00  0.00    -0.041 A 
ATOM     17  C14 <0> d           2.698  -1.815   9.282  0.00  0.00     0.150 A 
ATOM     18  C16 <0> d           4.943  -1.390   9.341  0.00  0.00    -0.005 A 
ATOM     19  N3  <0> d           2.890  -0.431   8.851  0.00  0.00    -0.378 N 
ATOM     20  C21 <0> d           4.183  -0.176   8.912  0.00  0.00     0.039 A 
ATOM     21  H22 <0> d           2.190   0.178   8.569  0.00  0.00     0.160 HD
ATOM     22  C20 <0> d           4.891   1.034   8.656  0.00  0.00     0.030 A 
ATOM     23  C19 <0> d           6.237   1.020   8.829  0.00  0.00     0.002 A 
ATOM     24  C18 <0> d           6.968  -0.099   9.240  0.00  0.00     0.001 A 
ATOM     25  C17 <0> d           6.403  -1.306   9.507  0.00  0.00     0.014 A 
ENDBRANCH   4  11
BRANCH   1  26
ATOM     26  C6  <0> d           2.042  -1.546   3.433  0.00  0.00     0.047 A 
ATOM     27  C5  <0> d           1.485  -2.498   2.589  0.00  0.00     0.031 A 
ATOM     28  C4  <0> d           0.804  -2.100   1.455  0.00  0.00     0.009 A 
ATOM     29  C3  <0> d           0.677  -0.755   1.160  0.00  0.00    -0.058 A 
ATOM     30  C8  <0> d           1.235   0.195   1.995  0.00  0.00     0.009 A 
ATOM     31  C7  <0> d           1.913  -0.197   3.133  0.00  0.00     0.031 A 
BRANCH  29  32
ATOM     32  C2  <0> d          -0.067  -0.324  -0.078  0.00  0.00     0.034 C 
ATOM     33  C1  <0> d           0.908  -0.234  -1.253  0.00  0.00     0.010 C 
ENDBRANCH  29  32
ENDBRANCH   1  26
TORSDOF 3
