REMARK  6 active torsions:
REMARK  status: ('A' for Active; 'I' for Inactive)
REMARK    1  A    between atoms: C5_5  and  N1_9 
REMARK       I    between atoms: N1_9  and  C9_10 
REMARK       I    between atoms: C9_10  and  N2_12 
REMARK       I    between atoms: N2_12  and  C10_13 
REMARK    2  A    between atoms: C10_13  and  C11_15 
REMARK    3  A    between atoms: C11_15  and  S1_17 
REMARK    4  A    between atoms: S1_17  and  C13_18 
REMARK    5  A    between atoms: C14_21  and  C18_26 
REMARK    6  A    between atoms: N5_22  and  C15_23 
ROOT
ATOM      1  C13 <0> d          -1.228 -10.713  -3.707  0.00  0.00     0.268 A 
ATOM      2  N3  <0> d           0.076 -11.317  -3.387  0.00  0.00    -0.279 N 
ATOM      3  N4  <0> d          -0.056 -11.900  -2.121  0.00  0.00    -0.158 NA
ATOM      4  C14 <0> d          -1.260 -11.727  -1.642  0.00  0.00     0.157 A 
ATOM      5  N5  <0> d          -2.067 -11.011  -2.535  0.00  0.00    -0.328 N 
ATOM      6  H17 <0> d           0.870 -11.312  -3.943  0.00  0.00     0.185 HD
ENDROOT
BRANCH   1   7
ATOM      7  S1  <0> d          -1.060  -8.921  -3.928  0.00  0.00    -0.107 SA
BRANCH   7   8
ATOM      8  C11 <0> d          -0.335  -8.352  -2.366  0.00  0.00     0.139 C 
ATOM      9  C12 <0> d           1.070  -8.938  -2.213  0.00  0.00     0.031 C 
BRANCH   8  10
ATOM     10  C10 <0> d          -0.254  -6.847  -2.369  0.00  0.00     0.239 C 
ATOM     11  N2  <0> d          -0.137  -6.177  -1.205  0.00  0.00    -0.278 N 
ATOM     12  C9  <0> d          -0.064  -4.831  -1.208  0.00  0.00     0.327 C 
ATOM     13  H13 <0> d          -0.105  -6.663  -0.366  0.00  0.00     0.173 HD
ATOM     14  N1  <0> d           0.052  -4.160  -0.044  0.00  0.00    -0.308 N 
ATOM     15  O1  <0> d          -0.104  -4.222  -2.259  0.00  0.00    -0.247 OA
ATOM     16  H12 <0> d           0.148  -4.648   0.789  0.00  0.00     0.170 HD
ATOM     17  O2  <0> d          -0.293  -6.239  -3.417  0.00  0.00    -0.272 OA
BRANCH  14  18
ATOM     18  C5  <0> d           0.035  -2.761  -0.038  0.00  0.00     0.042 A 
ATOM     19  C4  <0> d           0.600  -2.054  -1.091  0.00  0.00     0.030 A 
ATOM     20  C3  <0> d           0.581  -0.673  -1.083  0.00  0.00     0.009 A 
ATOM     21  C2  <0> d          -0.000   0.005  -0.027  0.00  0.00    -0.061 A 
ATOM     22  C1  <0> d          -0.019   1.512  -0.021  0.00  0.00     0.048 C 
ATOM     23  C7  <0> d          -0.559  -0.696   1.025  0.00  0.00     0.015 A 
ATOM     24  C6  <0> d          -0.547  -2.077   1.020  0.00  0.00    -0.035 A 
ATOM     25  C8  <0> d          -1.162  -2.841   2.165  0.00  0.00     0.050 C 
ENDBRANCH  14  18
ENDBRANCH   8  10
ENDBRANCH   7   8
ENDBRANCH   1   7
BRANCH   5  26
ATOM     26  C15 <0> d          -3.468 -10.632  -2.341  0.00  0.00     0.089 A 
ATOM     27  C17 <0> d          -3.787  -9.140  -2.228  0.00  0.00     0.027 A 
ATOM     28  C16 <0> d          -4.170  -9.910  -3.493  0.00  0.00     0.027 A 
ENDBRANCH   5  26
BRANCH   4  29
ATOM     29  C18 <0> d          -1.690 -12.201  -0.393  0.00  0.00     0.019 A 
ATOM     30  C25 <0> d          -3.087 -12.128   0.181  0.00  0.00     0.163 A 
ATOM     31  N6  <0> d          -3.016 -12.761   1.502  0.00  0.00    -0.385 N 
ATOM     32  C24 <0> d          -1.780 -13.159   1.728  0.00  0.00     0.039 A 
ATOM     33  H29 <0> d          -3.761 -12.867   2.114  0.00  0.00     0.160 HD
ATOM     34  C19 <0> d          -0.916 -12.834   0.581  0.00  0.00     0.002 A 
ATOM     35  C23 <0> d          -1.193 -13.811   2.843  0.00  0.00     0.030 A 
ATOM     36  C20 <0> d           0.450 -13.182   0.635  0.00  0.00     0.014 A 
ATOM     37  C21 <0> d           0.943 -13.806   1.736  0.00  0.00     0.001 A 
ATOM     38  C22 <0> d           0.128 -14.116   2.827  0.00  0.00     0.002 A 
ENDBRANCH   4  29
TORSDOF 6
