REMARK  2 active torsions:
REMARK  status: ('A' for Active; 'I' for Inactive)
REMARK    1  A    between atoms: C2_2  and  N1_3 
REMARK    2  A    between atoms: C9_13  and  N4_15 
ROOT
ATOM      1  N1  <0> d          -1.372  -0.511   0.012  0.00  0.00    -0.297 N 
ATOM      2  C3  <0> d          -1.997  -0.746   1.210  0.00  0.00     0.163 A 
ATOM      3  C4  <0> d          -3.321  -1.235   1.221  0.00  0.00     0.030 A 
ATOM      4  C5  <0> d          -4.001  -1.481  -0.047  0.00  0.00     0.041 A 
ATOM      5  C6  <0> d          -3.326  -1.227  -1.199  0.00  0.00     0.080 A 
ATOM      6  C7  <0> d          -2.005  -0.734  -1.153  0.00  0.00     0.266 A 
ATOM      7  O1  <0> d          -1.420  -0.509  -2.198  0.00  0.00    -0.266 OA
ATOM      8 Br1  <0> d          -4.162  -1.529  -2.868  0.00  0.00    -0.045 Br
ATOM      9  C8  <0> d          -3.943  -1.469   2.453  0.00  0.00     0.151 A 
ATOM     10  N2  <0> d          -3.263  -1.221   3.558  0.00  0.00    -0.074 NA
ATOM     11  C9  <0> d          -2.018  -0.762   3.511  0.00  0.00     0.721 A 
ATOM     12  N3  <0> d          -1.389  -0.526   2.369  0.00  0.00    -0.044 NA
ENDROOT
BRANCH  11  13
ATOM     13  N4  <0> d          -1.353  -0.521   4.697  0.00  0.00    -0.231 N 
ATOM     14  H8  <0> d          -1.796  -0.687   5.543  0.00  0.00     0.174 HD
ATOM     15  H9  <0> d          -0.443  -0.185   4.684  0.00  0.00     0.174 HD
ENDBRANCH  11  13
BRANCH   1  16
ATOM     16  C2  <0> d           0.002  -0.004   0.002  0.00  0.00     0.129 C 
ATOM     17  C1  <0> d          -0.019   1.526   0.010  0.00  0.00     0.027 C 
ENDBRANCH   1  16
TORSDOF 2
