REMARK  3 active torsions:
REMARK  status: ('A' for Active; 'I' for Inactive)
REMARK    1  A    between atoms: C6_6  and  C7_7 
REMARK    2  A    between atoms: C8_8  and  C14_17 
REMARK    3  A    between atoms: C14_17  and  N3_18 
ROOT
ATOM      1  C7  <0> d          -1.371  -0.645  -0.158  0.00  0.00     0.094 A 
ATOM      2  C8  <0> d          -2.386  -0.447   0.729  0.00  0.00     0.076 A 
ATOM      3  N1  <0> d          -3.228  -1.518   0.622  0.00  0.00    -0.303 N 
ATOM      4  C9  <0> d          -4.391  -1.843   1.262  0.00  0.00     0.141 A 
ATOM      5  C10 <0> d          -5.043  -2.988   0.964  0.00  0.00     0.132 A 
ATOM      6  C11 <0> d          -4.531  -3.862  -0.011  0.00  0.00     0.047 A 
ATOM      7  C12 <0> d          -3.375  -3.550  -0.656  0.00  0.00     0.054 A 
ATOM      8  C13 <0> d          -2.706  -2.351  -0.334  0.00  0.00     0.135 A 
ATOM      9  N2  <0> d          -1.590  -1.805  -0.796  0.00  0.00    -0.228 NA
ATOM     10  F1  <0> d          -6.192  -3.295   1.606  0.00  0.00    -0.205 F 
ENDROOT
BRANCH   1  11
ATOM     11  C6  <0> d          -0.224   0.268  -0.384  0.00  0.00    -0.003 A 
ATOM     12  C1  <0> d           1.063  -0.249  -0.521  0.00  0.00     0.017 A 
ATOM     13  C2  <0> d           2.132   0.600  -0.732  0.00  0.00     0.040 A 
ATOM     14  C3  <0> d           1.928   1.967  -0.809  0.00  0.00     0.096 A 
ATOM     15  O2  <0> d           2.974   2.812  -1.017  0.00  0.00    -0.340 OA
ATOM     16  C4  <0> d           0.641   2.490  -0.672  0.00  0.00     0.069 A 
ATOM     17  C20 <0> d           2.703   3.995  -1.773  0.00  0.00     0.278 C 
ATOM     18  C19 <0> d           1.441   4.644  -1.263  0.00  0.00     0.246 C 
ATOM     19  N5  <0> d           0.454   3.878  -0.751  0.00  0.00    -0.323 N 
ATOM     20  O1  <0> d           1.313   5.849  -1.313  0.00  0.00    -0.271 OA
ATOM     21  H18 <0> d          -0.372   4.281  -0.442  0.00  0.00     0.169 HD
ATOM     22  C5  <0> d          -0.432   1.645  -0.461  0.00  0.00     0.046 A 
ENDBRANCH   1  11
BRANCH   2  23
ATOM     23  C14 <0> d          -2.549   0.731   1.655  0.00  0.00     0.332 C 
BRANCH  23  24
ATOM     24  N3  <0> d          -2.026   0.385   2.984  0.00  0.00     0.097 N 
ATOM     25  C18 <0> d          -2.379   1.413   3.973  0.00  0.00     0.300 C 
ATOM     26  C17 <0> d          -1.869   0.987   5.351  0.00  0.00     0.262 C 
ATOM     27  N4  <0> d          -0.412   0.811   5.302  0.00  0.00    -0.072 N 
ATOM     28  C16 <0> d          -0.077  -0.237   4.328  0.00  0.00     0.262 C 
ATOM     29  H13 <0> d          -0.075   0.542   6.214  0.00  0.00     0.277 HD
ATOM     30  H21 <0> d           0.022   1.678   5.025  0.00  0.00     0.277 HD
ATOM     31  C15 <0> d          -0.572   0.179   2.941  0.00  0.00     0.300 C 
ENDBRANCH  23  24
ENDBRANCH   2  23
TORSDOF 3
