REMARK  6 active torsions:
REMARK  status: ('A' for Active; 'I' for Inactive)
REMARK    1  A    between atoms: C3_3  and  N1_9 
REMARK    2  A    between atoms: N1_9  and  C8_10 
REMARK    3  A    between atoms: C9_12  and  C11_17 
REMARK    4  A    between atoms: C10_14  and  N5_16 
REMARK    5  A    between atoms: C11_17  and  N7_32 
REMARK    6  A    between atoms: N6_20  and  C16_23 
ROOT
ATOM      1  C8  <0> d          -2.719   0.782  -4.993  0.00  0.00     0.744 A 
ATOM      2  N2  <0> d          -1.940   0.515  -3.946  0.00  0.00    -0.044 NA
ATOM      3  C9  <0> d          -1.013   1.379  -3.573  0.00  0.00     0.190 A 
ATOM      4  N3  <0> d          -0.848   2.507  -4.242  0.00  0.00    -0.045 NA
ATOM      5  C10 <0> d          -1.619   2.778  -5.293  0.00  0.00     0.737 A 
ATOM      6  N4  <0> d          -2.556   1.914  -5.668  0.00  0.00     0.130 NA
ENDROOT
BRANCH   3   7
ATOM      7  C11 <0> d          -0.137   1.075  -2.385  0.00  0.00     0.316 C 
BRANCH   7   8
ATOM      8  N7  <0> d          -0.791   1.595  -1.165  0.00  0.00    -0.062 N 
ATOM      9  C12 <0> d          -0.067   1.126   0.035  0.00  0.00     0.250 C 
ATOM     10  C13 <0> d          -0.796   1.634   1.282  0.00  0.00     0.123 C 
ATOM     11  N6  <0> d          -0.846   3.102   1.254  0.00  0.00    -0.280 NA
ATOM     12  C14 <0> d          -1.544   3.580   0.052  0.00  0.00     0.123 C 
ATOM     13  C15 <0> d          -0.814   3.073  -1.194  0.00  0.00     0.250 C 
ATOM     14  H25 <0> d          -1.756   1.247  -1.129  0.00  0.00     0.280 HD
BRANCH  11  15
ATOM     15  C16 <0> d          -1.442   3.605   2.412  0.00  0.00     0.010 A 
ATOM     16  C21 <0> d          -0.931   3.271   3.660  0.00  0.00     0.024 A 
ATOM     17  C20 <0> d          -1.523   3.770   4.803  0.00  0.00     0.002 A 
ATOM     18  C19 <0> d          -2.623   4.602   4.707  0.00  0.00     0.000 A 
ATOM     19  C18 <0> d          -3.135   4.937   3.467  0.00  0.00     0.002 A 
ATOM     20  C17 <0> d          -2.544   4.445   2.319  0.00  0.00     0.024 A 
ENDBRANCH  11  15
ENDBRANCH   7   8
ENDBRANCH   3   7
BRANCH   1  21
ATOM     21  N1  <0> d          -3.691  -0.120  -5.379  0.00  0.00    -0.187 N 
ATOM     22  H7  <0> d          -3.754  -0.983  -4.940  0.00  0.00     0.184 HD
BRANCH  21  23
ATOM     23  C3  <0> d          -4.585   0.211  -6.402  0.00  0.00     0.057 A 
ATOM     24  C2  <0> d          -5.192  -0.792  -7.147  0.00  0.00    -0.013 A 
ATOM     25  C1  <0> d          -4.889  -2.239  -6.854  0.00  0.00     0.052 C 
ATOM     26  C7  <0> d          -6.080  -0.461  -8.154  0.00  0.00     0.042 A 
ATOM     27  C6  <0> d          -6.354   0.868  -8.427  0.00  0.00     0.024 A 
ATOM     28 Cl1  <0> d          -6.845  -1.713  -9.081  0.00  0.00    -0.084 Cl
ATOM     29  C5  <0> d          -5.746   1.867  -7.691  0.00  0.00     0.004 A 
ATOM     30  C4  <0> d          -4.863   1.543  -6.679  0.00  0.00     0.030 A 
ENDBRANCH  21  23
ENDBRANCH   1  21
BRANCH   5  31
ATOM     31  N5  <0> d          -1.446   3.956  -5.991  0.00  0.00    -0.230 N 
ATOM     32  H8  <0> d          -0.762   4.587  -5.716  0.00  0.00     0.174 HD
ATOM     33  H9  <0> d          -2.008   4.153  -6.756  0.00  0.00     0.174 HD
ENDBRANCH   5  31
TORSDOF 6
