REMARK  7 active torsions:
REMARK  status: ('A' for Active; 'I' for Inactive)
REMARK    1  A    between atoms: C3_3  and  C5_6 
REMARK    2  A    between atoms: C5_6  and  N1_7 
REMARK    3  A    between atoms: N1_7  and  C6_8 
REMARK    4  A    between atoms: N2_10  and  C7_11 
REMARK    5  A    between atoms: C7_11  and  C8_12 
REMARK    6  A    between atoms: C14_18  and  C15_19 
REMARK    7  A    between atoms: C15_19  and  N4_29 
ROOT
ATOM      1  C8  <0> d           0.073   5.195   5.162  0.00  0.00     0.206 C 
ATOM      2  C9  <0> d          -1.424   4.857   5.079  0.00  0.00     0.040 C 
ATOM      3  C10 <0> d          -1.581   3.338   4.938  0.00  0.00    -0.004 C 
ATOM      4  C11 <0> d          -0.928   2.667   6.154  0.00  0.00     0.032 C 
ATOM      5  C12 <0> d           0.550   3.063   6.207  0.00  0.00     0.236 C 
ATOM      6  C13 <0> d           0.636   3.275   3.796  0.00  0.00     0.242 C 
ATOM      7  C14 <0> d          -0.840   2.885   3.674  0.00  0.00     0.041 C 
ATOM      8  N3  <0> d           0.884   3.961   5.082  0.00  0.00    -0.065 N 
ATOM      9  H31 <0> d           1.878   4.212   5.139  0.00  0.00     0.280 HD
ENDROOT
BRANCH   1  10
ATOM     10  C7  <0> d           0.455   6.117   4.002  0.00  0.00     0.155 C 
BRANCH  10  11
ATOM     11  N2  <0> d           1.903   6.339   4.011  0.00  0.00    -0.365 N 
ATOM     12  C6  <0> d           2.470   7.125   3.075  0.00  0.00     0.167 C 
ATOM     13  S1  <0> d           1.498   7.864   1.874  0.00  0.00    -0.041 SA
ATOM     14  H10 <0> d           2.453   5.920   4.691  0.00  0.00     0.161 HD
BRANCH  12  15
ATOM     15  N1  <0> d           3.802   7.329   3.083  0.00  0.00    -0.361 N 
ATOM     16  H9  <0> d           4.353   6.911   3.763  0.00  0.00     0.162 HD
BRANCH  15  17
ATOM     17  C5  <0> d           4.418   8.184   2.065  0.00  0.00     0.187 C 
BRANCH  17  18
ATOM     18  C3  <0> d           5.906   8.247   2.296  0.00  0.00     0.070 A 
ATOM     19  C2  <0> d           6.820   7.408   1.775  0.00  0.00     0.036 A 
ATOM     20  C1  <0> d           8.082   7.832   2.248  0.00  0.00     0.027 A 
ATOM     21  C4  <0> d           7.865   8.900   3.037  0.00  0.00     0.142 A 
ATOM     22  O1  <0> d           6.545   9.147   3.062  0.00  0.00    -0.325 OA
ENDBRANCH  17  18
ENDBRANCH  15  17
ENDBRANCH  12  15
ENDBRANCH  10  11
ENDBRANCH   1  10
BRANCH   7  23
ATOM     23  C15 <0> d          -1.451   3.568   2.449  0.00  0.00     0.241 C 
BRANCH  23  24
ATOM     24  N4  <0> d          -0.791   3.057   1.228  0.00  0.00    -0.067 N 
ATOM     25  C16 <0> d          -0.731   1.580   1.266  0.00  0.00     0.261 C 
ATOM     26  C17 <0> d          -0.013   1.086   0.008  0.00  0.00     0.195 C 
ATOM     27  O2  <0> d          -0.706   1.560  -1.149  0.00  0.00    -0.388 OA
ATOM     28  C18 <0> d          -0.807   2.985  -1.216  0.00  0.00     0.195 C 
ATOM     29  C19 <0> d          -1.534   3.499   0.029  0.00  0.00     0.261 C 
ATOM     30  H32 <0> d           0.165   3.429   1.185  0.00  0.00     0.280 HD
ENDBRANCH  23  24
ENDBRANCH   7  23
TORSDOF 7
