REMARK  4 active torsions:
REMARK  status: ('A' for Active; 'I' for Inactive)
REMARK    1  A    between atoms: C7_7  and  N1_8 
REMARK       I    between atoms: N1_8  and  C8_9 
REMARK    2  A    between atoms: C8_9  and  C9_11 
REMARK       I    between atoms: C9_11  and  N2_13 
REMARK    3  A    between atoms: N2_13  and  C10_14 
REMARK    4  A    between atoms: C10_14  and  C12_16 
ROOT
ATOM      1  N1  <0> d          -0.045   0.024   2.404  0.00  0.00    -0.318 N 
ATOM      2  C8  <0> d          -0.217  -0.641   3.563  0.00  0.00     0.314 C 
ATOM      3  O1  <0> d          -0.251  -1.855   3.567  0.00  0.00    -0.262 OA
ATOM      4  H7  <0> d           0.048   0.990   2.409  0.00  0.00     0.169 HD
ENDROOT
BRANCH   1   5
ATOM      5  C7  <0> d          -0.002  -0.677   1.196  0.00  0.00     0.047 A 
ATOM      6  C2  <0> d           1.209  -0.863   0.542  0.00  0.00    -0.033 A 
ATOM      7  C1  <0> d           2.479  -0.308   1.135  0.00  0.00     0.050 C 
ATOM      8  C3  <0> d           1.250  -1.560  -0.649  0.00  0.00     0.028 A 
ATOM      9  C4  <0> d           0.084  -2.069  -1.194  0.00  0.00     0.012 A 
ATOM     10  C5  <0> d          -1.125  -1.881  -0.548  0.00  0.00     0.028 A 
ATOM     11 Br1  <0> d           0.143  -3.023  -2.826  0.00  0.00    -0.051 Br
ATOM     12  C6  <0> d          -1.171  -1.184   0.643  0.00  0.00    -0.033 A 
ATOM     13  C15 <0> d          -2.489  -0.979   1.346  0.00  0.00     0.050 C 
ENDBRANCH   1   5
BRANCH   2  14
ATOM     14  C9  <0> d          -0.367   0.114   4.843  0.00  0.00     0.310 C 
ATOM     15  O2  <0> d          -0.333   1.327   4.839  0.00  0.00    -0.262 OA
ATOM     16  N2  <0> d          -0.538  -0.552   6.002  0.00  0.00    -0.348 N 
ATOM     17  H8  <0> d          -0.565  -1.521   6.006  0.00  0.00     0.163 HD
BRANCH  16  18
ATOM     18  C10 <0> d          -0.685   0.189   7.258  0.00  0.00     0.084 C 
ATOM     19  C11 <0> d           0.699   0.517   7.821  0.00  0.00     0.032 C 
BRANCH  18  20
ATOM     20  C12 <0> d          -1.457  -0.664   8.266  0.00  0.00    -0.000 C 
ATOM     21  C13 <0> d          -1.610   0.110   9.577  0.00  0.00     0.011 C 
ATOM     22  C14 <0> d          -2.841  -0.992   7.703  0.00  0.00     0.011 C 
ENDBRANCH  18  20
ENDBRANCH  16  18
ENDBRANCH   2  14
TORSDOF 4
