REMARK  3 active torsions:
REMARK  status: ('A' for Active; 'I' for Inactive)
REMARK    1  A    between atoms: N1_5  and  C5_7 
REMARK    2  A    between atoms: C15_18  and  N5_29 
REMARK    3  A    between atoms: C17_20  and  C18_21 
ROOT
ATOM      1  C1  <0> d          -1.806   1.248  -3.044  0.00  0.00     0.073 C 
ATOM      2  C2  <0> d          -1.621   2.651  -2.529  0.00  0.00     0.063 A 
ATOM      3  C3  <0> d          -1.413   3.011  -1.204  0.00  0.00     0.035 A 
ATOM      4  C4  <0> d          -1.292   4.372  -1.147  0.00  0.00     0.182 A 
ATOM      5  N1  <0> d          -1.421   4.843  -2.406  0.00  0.00    -0.210 N 
ATOM      6  N2  <0> d          -1.626   3.744  -3.255  0.00  0.00    -0.170 NA
ATOM      7  O1  <0> d          -1.083   5.042   0.013  0.00  0.00    -0.274 OA
ATOM      8  C15 <0> d          -1.268   4.366   1.166  0.00  0.00     0.161 C 
ATOM      9  C16 <0> d          -1.388   3.022   1.239  0.00  0.00     0.086 C 
ATOM     10  C17 <0> d          -1.322   2.136   0.020  0.00  0.00     0.106 C 
ATOM     11  C23 <0> d          -1.586   2.416   2.521  0.00  0.00     0.100 C 
ATOM     12  N4  <0> d          -1.744   1.936   3.539  0.00  0.00    -0.191 NA
ENDROOT
BRANCH   8  13
ATOM     13  N5  <0> d          -1.338   5.086   2.333  0.00  0.00    -0.379 N 
ATOM     14  H16 <0> d          -1.255   6.052   2.312  0.00  0.00     0.158 HD
ATOM     15  H17 <0> d          -1.470   4.628   3.178  0.00  0.00     0.158 HD
ENDBRANCH   8  13
BRANCH  10  16
ATOM     16  C18 <0> d          -0.017   1.382   0.010  0.00  0.00    -0.041 A 
ATOM     17  C22 <0> d           0.002  -0.004   0.002  0.00  0.00     0.027 A 
ATOM     18  C21 <0> d           1.218  -0.661  -0.013  0.00  0.00     0.116 A 
ATOM     19  N3  <0> d           2.350   0.015  -0.020  0.00  0.00    -0.273 NA
ATOM     20  C20 <0> d           2.370   1.334  -0.013  0.00  0.00     0.116 A 
ATOM     21  C19 <0> d           1.194   2.059   0.002  0.00  0.00     0.027 A 
ENDBRANCH  10  16
BRANCH   5  22
ATOM     22  C5  <0> d          -1.360   6.188  -2.796  0.00  0.00     0.062 A 
ATOM     23  C14 <0> d          -0.798   6.521  -4.008  0.00  0.00     0.044 A 
ATOM     24  C13 <0> d          -0.739   7.870  -4.395  0.00  0.00    -0.024 A 
ATOM     25  C8  <0> d          -1.259   8.867  -3.531  0.00  0.00    -0.026 A 
ATOM     26  C12 <0> d          -0.175   8.251  -5.625  0.00  0.00     0.012 A 
ATOM     27  C7  <0> d          -1.825   8.490  -2.300  0.00  0.00     0.014 A 
ATOM     28  C9  <0> d          -1.198  10.215  -3.921  0.00  0.00     0.012 A 
ATOM     29  C6  <0> d          -1.875   7.178  -1.951  0.00  0.00     0.032 A 
ATOM     30  C10 <0> d          -0.644  10.546  -5.119  0.00  0.00     0.001 A 
ATOM     31  C11 <0> d          -0.134   9.567  -5.969  0.00  0.00     0.001 A 
ENDBRANCH   5  22
TORSDOF 3
