REMARK  5 active torsions:
REMARK  status: ('A' for Active; 'I' for Inactive)
REMARK    1  A    between atoms: C3_3  and  S1_8 
REMARK    2  A    between atoms: S1_8  and  N3_11 
REMARK    3  A    between atoms: N3_11  and  C5_12 
REMARK    4  A    between atoms: C8_15  and  C11_18 
REMARK    5  A    between atoms: C11_18  and  N4_20 
ROOT
ATOM      1  C5  <0> d           1.740   2.039   2.788  0.00  0.00     0.042 A 
ATOM      2  C6  <0> d           1.591   2.358   1.444  0.00  0.00     0.031 A 
ATOM      3  C7  <0> d           1.791   3.656   1.018  0.00  0.00     0.011 A 
ATOM      4  C8  <0> d           2.139   4.638   1.927  0.00  0.00    -0.028 A 
ATOM      5  C9  <0> d           2.287   4.325   3.266  0.00  0.00     0.011 A 
ATOM      6  C10 <0> d           2.083   3.030   3.700  0.00  0.00     0.031 A 
ENDROOT
BRANCH   1   7
ATOM      7  N3  <0> d           1.538   0.727   3.223  0.00  0.00    -0.281 N 
ATOM      8  H7  <0> d           2.174   0.314   3.828  0.00  0.00     0.179 HD
BRANCH   7   9
ATOM      9  S1  <0> d           0.214  -0.122   2.706  0.00  0.00     0.266 S 
ATOM     10  O1  <0> d           0.229  -1.361   3.401  0.00  0.00    -0.200 OA
ATOM     11  O2  <0> d           0.210  -0.044   1.287  0.00  0.00    -0.200 OA
BRANCH   9  12
ATOM     12  C3  <0> d          -1.213   0.749   3.261  0.00  0.00     0.122 A 
ATOM     13  C2  <0> d          -1.584   0.957   4.594  0.00  0.00     0.075 A 
ATOM     14  C1  <0> d          -0.830   0.474   5.806  0.00  0.00     0.074 C 
ATOM     15  N2  <0> d          -2.700   1.639   4.606  0.00  0.00    -0.179 NA
ATOM     16  N1  <0> d          -3.071   1.895   3.280  0.00  0.00    -0.287 N 
ATOM     17  C4  <0> d          -2.145   1.335   2.474  0.00  0.00     0.136 A 
ATOM     18  H1  <0> d          -3.858   2.384   2.991  0.00  0.00     0.188 HD
ENDBRANCH   9  12
ENDBRANCH   7   9
ENDBRANCH   1   7
BRANCH   4  19
ATOM     19  C11 <0> d           2.357   6.054   1.458  0.00  0.00     0.214 C 
ATOM     20  C12 <0> d           3.857   6.319   1.316  0.00  0.00     0.045 C 
BRANCH  19  21
ATOM     21  N4  <0> d           1.785   6.988   2.438  0.00  0.00    -0.071 N 
ATOM     22  C13 <0> d           1.891   8.360   1.925  0.00  0.00     0.267 C 
ATOM     23  H15 <0> d           0.815   6.760   2.593  0.00  0.00     0.277 HD
ATOM     24  H19 <0> d           2.291   6.914   3.308  0.00  0.00     0.277 HD
ENDBRANCH  19  21
ENDBRANCH   4  19
TORSDOF 5
