REMARK  5 active torsions:
REMARK  status: ('A' for Active; 'I' for Inactive)
REMARK    1  A    between atoms: C5_9  and  N4_29 
REMARK    2  A    between atoms: C7_11  and  C8_12 
REMARK    3  A    between atoms: C11_15  and  C12_17 
REMARK    4  A    between atoms: C12_17  and  O3_18 
REMARK    5  A    between atoms: O3_18  and  C13_19 
ROOT
ATOM      1  C1  <0> d          -0.636   6.551  -0.695  0.00  0.00     0.073 C 
ATOM      2  C2  <0> d           0.328   5.398  -0.585  0.00  0.00     0.062 A 
ATOM      3  C3  <0> d          -0.003   4.087  -0.269  0.00  0.00     0.036 A 
ATOM      4  C4  <0> d           1.147   3.348  -0.270  0.00  0.00     0.175 A 
ATOM      5  N1  <0> d           2.160   4.175  -0.576  0.00  0.00    -0.256 N 
ATOM      6  H1  <0> d           3.125   3.921  -0.652  0.00  0.00     0.191 HD
ATOM      7  N2  <0> d           1.625   5.457  -0.771  0.00  0.00    -0.177 NA
ATOM      8  O1  <0> d           1.164   2.019   0.002  0.00  0.00    -0.274 OA
ATOM      9  C5  <0> d          -0.017   1.369   0.010  0.00  0.00     0.161 C 
ATOM     10  C6  <0> d          -1.217   1.988   0.019  0.00  0.00     0.088 C 
ATOM     11  C7  <0> d          -1.352   3.491   0.038  0.00  0.00     0.130 C 
ATOM     12  C19 <0> d          -2.406   1.190   0.016  0.00  0.00     0.100 C 
ATOM     13  N3  <0> d          -3.349   0.556   0.014  0.00  0.00    -0.191 NA
ENDROOT
BRANCH   9  14
ATOM     14  N4  <0> d           0.002  -0.004   0.002  0.00  0.00    -0.379 N 
ATOM     15  H13 <0> d           0.849  -0.478  -0.009  0.00  0.00     0.158 HD
ATOM     16  H14 <0> d          -0.831  -0.500   0.007  0.00  0.00     0.158 HD
ENDBRANCH   9  14
BRANCH  11  17
ATOM     17  C8  <0> d          -1.813   3.948   1.397  0.00  0.00     0.067 A 
ATOM     18  O2  <0> d          -1.175   3.728   2.558  0.00  0.00    -0.316 OA
ATOM     19  C11 <0> d          -1.873   4.279   3.565  0.00  0.00     0.077 A 
ATOM     20  C10 <0> d          -2.973   4.860   3.051  0.00  0.00     0.037 A 
ATOM     21  C9  <0> d          -2.931   4.652   1.653  0.00  0.00     0.036 A 
BRANCH  19  22
ATOM     22  C12 <0> d          -1.491   4.251   5.022  0.00  0.00     0.240 C 
BRANCH  22  23
ATOM     23  O3  <0> d          -2.052   3.091   5.640  0.00  0.00    -0.343 OA
BRANCH  23  24
ATOM     24  C13 <0> d          -1.800   2.914   6.964  0.00  0.00     0.091 A 
ATOM     25  C18 <0> d          -2.319   1.811   7.629  0.00  0.00     0.070 A 
ATOM     26  C17 <0> d          -2.056   1.629   8.974  0.00  0.00     0.069 A 
ATOM     27 Cl1  <0> d          -3.291   0.658   6.770  0.00  0.00    -0.081 Cl
ATOM     28  C16 <0> d          -1.286   2.553   9.660  0.00  0.00     0.118 A 
ATOM     29  C15 <0> d          -0.772   3.656   8.999  0.00  0.00     0.045 A 
ATOM     30  F1  <0> d          -1.035   2.377  10.976  0.00  0.00    -0.206 F 
ATOM     31  C14 <0> d          -1.028   3.837   7.654  0.00  0.00     0.041 A 
ENDBRANCH  23  24
ENDBRANCH  22  23
ENDBRANCH  19  22
ENDBRANCH  11  17
TORSDOF 5
