REMARK  3 active torsions:
REMARK  status: ('A' for Active; 'I' for Inactive)
REMARK    1  A    between atoms: C6_6  and  N1_7 
REMARK    2  A    between atoms: C7_9  and  S1_11 
REMARK    3  A    between atoms: S1_11  and  C8_13 
ROOT
ATOM      1  C1  <0> d          -0.017   1.389   0.010  0.00  0.00     0.031 A 
ATOM      2  C2  <0> d           1.151   2.098   0.002  0.00  0.00     0.037 A 
ATOM      3  C3  <0> d           2.374   1.426  -0.013  0.00  0.00     0.094 A 
ATOM      4  C4  <0> d           2.398   0.022  -0.021  0.00  0.00     0.109 A 
ATOM      5  C5  <0> d           1.208  -0.687  -0.013  0.00  0.00     0.068 A 
ATOM      6  C6  <0> d           0.002  -0.004   0.002  0.00  0.00     0.028 A 
ATOM      7  O1  <0> d           3.702  -0.333  -0.035  0.00  0.00    -0.282 OA
ATOM      8  C7  <0> d           4.441   0.788  -0.037  0.00  0.00     0.241 A 
ATOM      9  N2  <0> d           3.673   1.835  -0.024  0.00  0.00    -0.214 NA
ENDROOT
BRANCH   8  10
ATOM     10  S1  <0> d           6.203   0.833  -0.054  0.00  0.00     0.098 S 
ATOM     11  O2  <0> d           6.572  -0.409  -0.638  0.00  0.00    -0.249 OA
BRANCH  10  12
ATOM     12  C8  <0> d           6.659   0.834   1.702  0.00  0.00     0.103 C 
ATOM     13  C11 <0> d           8.199   0.768   1.833  0.00  0.00     0.158 C 
ATOM     14  S2  <0> d           8.433  -0.167   3.398  0.00  0.00     0.145 S 
ATOM     15  C10 <0> d           6.673  -0.533   3.801  0.00  0.00     0.141 C 
ATOM     16  O3  <0> d           9.104  -1.386   3.111  0.00  0.00    -0.228 OA
ATOM     17  O4  <0> d           8.961   0.707   4.386  0.00  0.00    -0.228 OA
ATOM     18  C9  <0> d           6.022  -0.382   2.396  0.00  0.00     0.034 C 
ENDBRANCH  10  12
ENDBRANCH   8  10
BRANCH   6  19
ATOM     19  N1  <0> d          -1.201  -0.716   0.010  0.00  0.00    -0.399 N 
ATOM     20  H5  <0> d          -2.046  -0.240   0.021  0.00  0.00     0.156 HD
ATOM     21  H6  <0> d          -1.190  -1.686   0.005  0.00  0.00     0.156 HD
ENDBRANCH   6  19
TORSDOF 3
