REMARK  4 active torsions:
REMARK  status: ('A' for Active; 'I' for Inactive)
REMARK    1  A    between atoms: C5_5  and  C7_8 
REMARK    2  A    between atoms: C7_8  and  C8_9 
REMARK       I    between atoms: C8_9  and  N2_11 
REMARK    3  A    between atoms: N2_11  and  C9_12 
REMARK    4  A    between atoms: C9_12  and  C10_13 
ROOT
ATOM      1  C8  <0> d           1.487  -4.713   0.089  0.00  0.00     0.222 C 
ATOM      2  O1  <0> d           2.398  -3.913   0.055  0.00  0.00    -0.273 OA
ATOM      3  N2  <0> d           1.751  -6.033   0.138  0.00  0.00    -0.355 N 
ATOM      4  H9  <0> d           1.022  -6.673   0.165  0.00  0.00     0.162 HD
ENDROOT
BRANCH   1   5
ATOM      5  C7  <0> d           0.059  -4.229   0.077  0.00  0.00     0.142 C 
BRANCH   5   6
ATOM      6  C5  <0> d           0.039  -2.724   0.021  0.00  0.00    -0.032 A 
ATOM      7  C4  <0> d           0.024  -2.067  -1.200  0.00  0.00     0.011 A 
ATOM      8  C3  <0> d           0.005  -0.681  -1.203  0.00  0.00     0.027 A 
ATOM      9  C2  <0> d           0.002  -0.004   0.002  0.00  0.00     0.030 A 
ATOM     10  C1  <0> d          -0.018   1.503   0.010  0.00  0.00     0.070 C 
ATOM     11  N1  <0> d           0.022  -0.662   1.145  0.00  0.00    -0.265 NA
ATOM     12  C6  <0> d           0.035  -1.980   1.186  0.00  0.00     0.124 A 
ENDBRANCH   5   6
ENDBRANCH   1   5
BRANCH   3  13
ATOM     13  C9  <0> d           3.138  -6.503   0.149  0.00  0.00     0.189 C 
BRANCH  13  14
ATOM     14  C10 <0> d           3.159  -8.009   0.205  0.00  0.00     0.092 A 
ATOM     15  S1  <0> d           3.179  -9.004   1.562  0.00  0.00    -0.083 SA
ATOM     16  C12 <0> d           3.193 -10.575   0.714  0.00  0.00     0.078 A 
ATOM     17  C11 <0> d           3.188 -10.161  -0.579  0.00  0.00     0.038 A 
ATOM     18  N3  <0> d           3.170  -8.860  -0.790  0.00  0.00    -0.249 NA
ATOM     19  C13 <0> d           3.201 -11.144  -1.722  0.00  0.00     0.071 C 
ENDBRANCH  13  14
ENDBRANCH   3  13
TORSDOF 4
