REMARK  2 active torsions:
REMARK  status: ('A' for Active; 'I' for Inactive)
REMARK    1  A    between atoms: C8_10  and  S1_12 
REMARK    2  A    between atoms: S1_12  and  N2_15 
ROOT
ATOM      1  C1  <0> d           1.934   1.385  -0.965  0.00  0.00     0.003 A 
ATOM      2  C2  <0> d           1.288   2.104   0.017  0.00  0.00     0.018 A 
ATOM      3  C3  <0> d           0.591   1.425   1.015  0.00  0.00     0.044 A 
ATOM      4  C4  <0> d           0.557   0.011   1.007  0.00  0.00     0.004 A 
ATOM      5  C5  <0> d          -0.183  -0.673   2.069  0.00  0.00     0.031 A 
ATOM      6  C6  <0> d          -0.803   0.053   3.014  0.00  0.00     0.092 A 
ATOM      7  N1  <0> d          -0.772   1.418   3.026  0.00  0.00    -0.333 N 
ATOM      8  C7  <0> d          -0.117   2.131   2.088  0.00  0.00     0.256 A 
ATOM      9  O1  <0> d          -0.112   3.349   2.132  0.00  0.00    -0.267 OA
ATOM     10  C8  <0> d           1.220  -0.691  -0.000  0.00  0.00     0.090 A 
ATOM     11  C9  <0> d           1.897  -0.003  -0.969  0.00  0.00     0.026 A 
ATOM     12  H17 <0> d          -1.239   1.891   3.732  0.00  0.00     0.168 HD
ENDROOT
BRANCH  10  13
ATOM     13  S1  <0> d           1.187  -2.452  -0.023  0.00  0.00     0.261 S 
ATOM     14  O2  <0> d           2.163  -2.889   0.912  0.00  0.00    -0.200 OA
ATOM     15  O3  <0> d          -0.179  -2.833   0.068  0.00  0.00    -0.200 OA
BRANCH  13  16
ATOM     16  N2  <0> d           1.714  -2.933  -1.517  0.00  0.00    -0.305 N 
ATOM     17  C14 <0> d           3.161  -3.263  -1.746  0.00  0.00     0.163 C 
ATOM     18  C13 <0> d           3.220  -4.711  -2.025  0.00  0.00     0.252 C 
ATOM     19  N3  <0> d           2.437  -5.145  -3.178  0.00  0.00    -0.074 N 
ATOM     20  C12 <0> d           1.166  -5.543  -2.620  0.00  0.00     0.234 C 
ATOM     21  H12 <0> d           2.883  -5.928  -3.632  0.00  0.00     0.277 HD
ATOM     22  H18 <0> d           2.314  -4.382  -3.827  0.00  0.00     0.277 HD
ATOM     23  C11 <0> d           0.128  -4.415  -2.825  0.00  0.00     0.048 C 
ATOM     24  C10 <0> d           0.794  -3.035  -2.619  0.00  0.00     0.137 C 
ENDBRANCH  13  16
ENDBRANCH  10  13
TORSDOF 2
