REMARK  7 active torsions:
REMARK  status: ('A' for Active; 'I' for Inactive)
REMARK    1  A    between atoms: C4_4  and  N2_15 
REMARK    2  A    between atoms: C5_5  and  C7_7 
REMARK       I    between atoms: C7_7  and  N1_9 
REMARK    3  A    between atoms: N1_9  and  C8_10 
REMARK    4  A    between atoms: C8_10  and  C9_11 
REMARK       I    between atoms: N2_15  and  C10_16 
REMARK    5  A    between atoms: C10_16  and  C11_18 
REMARK    6  A    between atoms: C11_18  and  O3_19 
REMARK    7  A    between atoms: O3_19  and  C12_20 
ROOT
ATOM      1  C1  <0> d          -3.642  -1.222  -0.107  0.00  0.00     0.001 A 
ATOM      2  C2  <0> d          -4.847  -0.548   0.008  0.00  0.00     0.002 A 
ATOM      3  C3  <0> d          -4.870   0.827   0.125  0.00  0.00     0.030 A 
ATOM      4  C4  <0> d          -3.682   1.545   0.129  0.00  0.00     0.050 A 
ATOM      5  C5  <0> d          -2.460   0.866   0.013  0.00  0.00     0.058 A 
ATOM      6  C6  <0> d          -2.453  -0.525  -0.110  0.00  0.00     0.019 A 
ENDROOT
BRANCH   4   7
ATOM      7  N2  <0> d          -3.703   2.933   0.248  0.00  0.00    -0.324 N 
ATOM      8  C10 <0> d          -4.637   3.529   1.015  0.00  0.00     0.246 C 
ATOM      9  O2  <0> d          -5.398   2.856   1.677  0.00  0.00    -0.271 OA
ATOM     10  H8  <0> d          -3.046   3.470  -0.222  0.00  0.00     0.169 HD
BRANCH   8  11
ATOM     11  C11 <0> d          -4.735   5.033   1.050  0.00  0.00     0.278 C 
BRANCH  11  12
ATOM     12  O3  <0> d          -5.794   5.420   1.929  0.00  0.00    -0.342 OA
BRANCH  12  13
ATOM     13  C12 <0> d          -6.017   6.753   2.075  0.00  0.00     0.069 A 
ATOM     14  C17 <0> d          -7.029   7.200   2.912  0.00  0.00     0.038 A 
ATOM     15  C16 <0> d          -7.255   8.555   3.059  0.00  0.00     0.022 A 
ATOM     16  C15 <0> d          -6.473   9.466   2.371  0.00  0.00     0.011 A 
ATOM     17  C14 <0> d          -5.464   9.022   1.536  0.00  0.00     0.022 A 
ATOM     18 Br1  <0> d          -6.786  11.320   2.573  0.00  0.00    -0.051 Br
ATOM     19  C13 <0> d          -5.231   7.668   1.391  0.00  0.00     0.038 A 
ENDBRANCH  12  13
ENDBRANCH  11  12
ENDBRANCH   8  11
ENDBRANCH   4   7
BRANCH   5  20
ATOM     20  C7  <0> d          -1.190   1.618   0.015  0.00  0.00     0.254 C 
ATOM     21  O1  <0> d          -1.204   2.834   0.026  0.00  0.00    -0.268 OA
ATOM     22  N1  <0> d          -0.016   0.957   0.004  0.00  0.00    -0.348 N 
ATOM     23  H5  <0> d          -0.005  -0.013  -0.006  0.00  0.00     0.163 HD
BRANCH  22  24
ATOM     24  C8  <0> d           1.244   1.703  -0.001  0.00  0.00     0.240 C 
BRANCH  24  25
ATOM     25  C9  <0> d           2.418   0.722  -0.020  0.00  0.00     0.403 C 
ATOM     26  F1  <0> d           2.343  -0.072  -1.169  0.00  0.00    -0.169 F 
ATOM     27  F2  <0> d           3.622   1.435  -0.024  0.00  0.00    -0.169 F 
ATOM     28  F3  <0> d           2.363  -0.094   1.115  0.00  0.00    -0.169 F 
ENDBRANCH  24  25
ENDBRANCH  22  24
ENDBRANCH   5  20
TORSDOF 7
