REMARK  4 active torsions:
REMARK  status: ('A' for Active; 'I' for Inactive)
REMARK    1  A    between atoms: C2_2  and  N1_3 
REMARK    2  A    between atoms: C8_12  and  N3_13 
REMARK    3  A    between atoms: N4_16  and  C13_19 
REMARK    4  A    between atoms: C13_19  and  C14_20 
REMARK       I    between atoms: C14_20  and  N5_22 
ROOT
ATOM      1  N1  <0> d           0.684  -0.590  -1.167  0.00  0.00    -0.145 N 
ATOM      2  C3  <0> d          -0.040  -0.909  -2.256  0.00  0.00     0.275 A 
ATOM      3  O1  <0> d          -1.258  -0.905  -2.210  0.00  0.00    -0.266 OA
ATOM      4  C4  <0> d           0.639  -1.252  -3.468  0.00  0.00     0.076 A 
ATOM      5  C5  <0> d           0.064  -1.629  -4.757  0.00  0.00    -0.021 A 
ATOM      6  C6  <0> d           0.927  -1.910  -5.757  0.00  0.00     0.016 A 
ATOM      7  S1  <0> d           2.535  -1.691  -5.051  0.00  0.00    -0.071 SA
ATOM      8  C7  <0> d           2.043  -1.224  -3.410  0.00  0.00     0.133 A 
ATOM      9  N2  <0> d           2.698  -0.900  -2.301  0.00  0.00    -0.056 NA
ATOM     10  C8  <0> d           2.047  -0.583  -1.201  0.00  0.00     0.708 A 
ATOM     11  C15 <0> d           0.565  -2.317  -7.152  0.00  0.00     0.215 C 
ATOM     12  O3  <0> d          -0.828  -2.667  -7.162  0.00  0.00    -0.376 OA
ATOM     13  C16 <0> d          -1.664  -1.696  -6.527  0.00  0.00     0.058 C 
ATOM     14  C17 <0> d          -1.439  -1.714  -5.013  0.00  0.00     0.078 C 
ATOM     15  C18 <0> d          -1.331  -0.306  -7.073  0.00  0.00     0.046 C 
ATOM     16  C19 <0> d          -3.130  -2.017  -6.826  0.00  0.00     0.046 C 
ENDROOT
BRANCH  10  17
ATOM     17  N3  <0> d           2.751  -0.247  -0.071  0.00  0.00    -0.212 N 
ATOM     18  C12 <0> d           3.143   1.147   0.189  0.00  0.00     0.169 C 
ATOM     19  C11 <0> d           4.635   1.183   0.517  0.00  0.00     0.256 C 
ATOM     20  N4  <0> d           4.916   0.258   1.622  0.00  0.00    -0.060 N 
ATOM     21  C10 <0> d           4.635  -1.122   1.204  0.00  0.00     0.256 C 
ATOM     22  H28 <0> d           4.335   0.493   2.413  0.00  0.00     0.280 HD
ATOM     23  C9  <0> d           3.138  -1.271   0.912  0.00  0.00     0.169 C 
BRANCH  20  24
ATOM     24  C13 <0> d           6.329   0.372   2.007  0.00  0.00     0.336 C 
BRANCH  24  25
ATOM     25  C14 <0> d           6.591   1.752   2.553  0.00  0.00     0.241 C 
ATOM     26  O2  <0> d           5.689   2.561   2.615  0.00  0.00    -0.272 OA
ATOM     27  N5  <0> d           7.827   2.088   2.971  0.00  0.00    -0.369 N 
ATOM     28  H16 <0> d           8.549   1.442   2.922  0.00  0.00     0.159 HD
ATOM     29  H17 <0> d           7.996   2.977   3.322  0.00  0.00     0.159 HD
ENDBRANCH  24  25
ENDBRANCH  20  24
ENDBRANCH  10  17
BRANCH   1  30
ATOM     30  C2  <0> d          -0.006  -0.238   0.077  0.00  0.00     0.146 C 
ATOM     31  C1  <0> d          -0.379   1.245   0.050  0.00  0.00     0.027 C 
ENDBRANCH   1  30
TORSDOF 4
