REMARK  4 active torsions:
REMARK  status: ('A' for Active; 'I' for Inactive)
REMARK    1  A    between atoms: C6_6  and  C8_8 
REMARK    2  A    between atoms: C8_8  and  C9_9 
REMARK    3  A    between atoms: C8_8  and  N3_18 
REMARK    4  A    between atoms: C9_9  and  N1_10 
ROOT
ATOM      1  C8  <0> d           0.054  -2.845   2.489  0.00  0.00     0.235 C 
ENDROOT
BRANCH   1   2
ATOM      2  C6  <0> d           0.037  -2.084   1.188  0.00  0.00    -0.020 A 
ATOM      3  C5  <0> d           0.040  -2.768  -0.013  0.00  0.00    -0.054 A 
ATOM      4  C4  <0> d           0.025  -2.071  -1.207  0.00  0.00     0.008 A 
ATOM      5  C15 <0> d           0.059  -4.275  -0.021  0.00  0.00     0.049 C 
ATOM      6  C3  <0> d           0.006  -0.689  -1.199  0.00  0.00     0.007 A 
ATOM      7  C2  <0> d           0.002  -0.004   0.002  0.00  0.00    -0.061 A 
ATOM      8  C1  <0> d          -0.018   1.503   0.010  0.00  0.00     0.048 C 
ATOM      9  C7  <0> d           0.023  -0.702   1.195  0.00  0.00     0.016 A 
ENDBRANCH   1   2
BRANCH   1  10
ATOM     10  C9  <0> d           1.497  -3.192   2.858  0.00  0.00     0.171 C 
BRANCH  10  11
ATOM     11  N1  <0> d           1.524  -3.825   4.179  0.00  0.00    -0.305 N 
ATOM     12  C13 <0> d           1.413  -5.162   4.285  0.00  0.00     0.347 A 
ATOM     13  N2  <0> d           1.441  -5.761   5.478  0.00  0.00    -0.206 NA
ATOM     14  O1  <0> d           1.289  -5.837   3.277  0.00  0.00    -0.244 OA
ATOM     15  C12 <0> d           1.567  -5.057   6.584  0.00  0.00     0.130 A 
ATOM     16  C11 <0> d           1.680  -3.665   6.513  0.00  0.00    -0.029 A 
ATOM     17  C10 <0> d           1.657  -3.061   5.294  0.00  0.00     0.103 A 
ATOM     18  C14 <0> d           1.826  -2.845   7.769  0.00  0.00     0.051 C 
ENDBRANCH  10  11
ENDBRANCH   1  10
BRANCH   1  19
ATOM     19  N3  <0> d          -0.537  -2.016   3.548  0.00  0.00    -0.069 N 
ATOM     20  H15 <0> d          -0.002  -1.166   3.648  0.00  0.00     0.275 HD
ATOM     21  H16 <0> d          -1.489  -1.787   3.304  0.00  0.00     0.275 HD
ATOM     22  H20 <0> d          -0.526  -2.525   4.419  0.00  0.00     0.275 HD
ENDBRANCH   1  19
TORSDOF 4
