REMARK  5 active torsions:
REMARK  status: ('A' for Active; 'I' for Inactive)
REMARK    1  A    between atoms: C7_7  and  N1_8 
REMARK       I    between atoms: N1_8  and  C8_9 
REMARK    2  A    between atoms: C8_9  and  C9_11 
REMARK       I    between atoms: C9_11  and  N2_13 
REMARK    3  A    between atoms: N2_13  and  C10_14 
REMARK    4  A    between atoms: C10_14  and  C11_15 
REMARK    5  A    between atoms: N5_19  and  C13_20 
ROOT
ATOM      1  C9  <0> d          -0.140   0.151   4.846  0.00  0.00     0.310 C 
ATOM      2  O2  <0> d          -0.071   1.363   4.832  0.00  0.00    -0.262 OA
ATOM      3  N2  <0> d          -0.287  -0.503   6.015  0.00  0.00    -0.346 N 
ATOM      4  H8  <0> d          -0.342  -1.471   6.025  0.00  0.00     0.163 HD
ENDROOT
BRANCH   1   5
ATOM      5  C8  <0> d          -0.061  -0.615   3.566  0.00  0.00     0.314 C 
ATOM      6  N1  <0> d           0.086   0.039   2.397  0.00  0.00    -0.318 N 
ATOM      7  H7  <0> d           0.204   1.002   2.391  0.00  0.00     0.169 HD
ATOM      8  O1  <0> d          -0.129  -1.827   3.579  0.00  0.00    -0.262 OA
BRANCH   6   9
ATOM      9  C7  <0> d           0.069  -0.670   1.193  0.00  0.00     0.047 A 
ATOM     10  C2  <0> d           1.252  -0.891   0.498  0.00  0.00    -0.035 A 
ATOM     11  C1  <0> d           2.556  -0.366   1.042  0.00  0.00     0.050 C 
ATOM     12  C3  <0> d           1.232  -1.597  -0.689  0.00  0.00     0.009 A 
ATOM     13  C4  <0> d           0.036  -2.079  -1.188  0.00  0.00     0.001 A 
ATOM     14  C5  <0> d          -1.143  -1.856  -0.503  0.00  0.00     0.009 A 
ATOM     15  C6  <0> d          -1.131  -1.150   0.684  0.00  0.00    -0.035 A 
ATOM     16  C19 <0> d          -2.418  -0.906   1.431  0.00  0.00     0.050 C 
ENDBRANCH   6   9
ENDBRANCH   1   5
BRANCH   3  17
ATOM     17  C10 <0> d          -0.364   0.249   7.270  0.00  0.00     0.204 C 
BRANCH  17  18
ATOM     18  C11 <0> d          -0.527  -0.710   8.421  0.00  0.00     0.152 A 
ATOM     19  N5  <0> d           0.476  -1.285   9.142  0.00  0.00    -0.289 N 
ATOM     20  C12 <0> d          -0.138  -2.068  10.073  0.00  0.00     0.240 A 
ATOM     21  N4  <0> d          -1.425  -1.953   9.886  0.00  0.00    -0.143 NA
ATOM     22  N3  <0> d          -1.655  -1.149   8.909  0.00  0.00    -0.133 NA
BRANCH  19  23
ATOM     23  C13 <0> d           1.856  -1.106   8.964  0.00  0.00     0.042 A 
ATOM     24  C18 <0> d           2.662  -0.793  10.050  0.00  0.00     0.030 A 
ATOM     25  C17 <0> d           4.021  -0.622   9.874  0.00  0.00     0.002 A 
ATOM     26  C16 <0> d           4.577  -0.752   8.614  0.00  0.00     0.000 A 
ATOM     27  C15 <0> d           3.776  -1.059   7.530  0.00  0.00     0.002 A 
ATOM     28  C14 <0> d           2.417  -1.236   7.702  0.00  0.00     0.030 A 
ENDBRANCH  19  23
ENDBRANCH  17  18
ENDBRANCH   3  17
TORSDOF 5
