REMARK  4 active torsions:
REMARK  status: ('A' for Active; 'I' for Inactive)
REMARK    1  A    between atoms: S1_2  and  C2_5 
REMARK    2  A    between atoms: C5_8  and  C8_11 
REMARK    3  A    between atoms: C9_14  and  N3_16 
REMARK       I    between atoms: N3_16  and  C10_17 
REMARK    4  A    between atoms: C10_17  and  C11_19 
ROOT
ATOM      1  N3  <0> d           5.634  -2.272  -7.084  0.00  0.00    -0.289 N 
ATOM      2  C10 <0> d           5.694  -2.569  -8.398  0.00  0.00     0.238 C 
ATOM      3  O4  <0> d           4.680  -2.587  -9.062  0.00  0.00    -0.272 OA
ATOM      4  H8  <0> d           6.445  -2.258  -6.553  0.00  0.00     0.172 HD
ENDROOT
BRANCH   1   5
ATOM      5  C9  <0> d           4.413  -1.989  -6.493  0.00  0.00     0.274 A 
ATOM      6  N2  <0> d           3.246  -1.974  -7.092  0.00  0.00    -0.103 NA
ATOM      7  N1  <0> d           2.331  -1.671  -6.239  0.00  0.00    -0.119 NA
ATOM      8  C8  <0> d           2.878  -1.481  -5.063  0.00  0.00     0.204 A 
ATOM      9  O3  <0> d           4.208  -1.672  -5.201  0.00  0.00    -0.255 OA
BRANCH   8  10
ATOM     10  C5  <0> d           2.171  -1.117  -3.817  0.00  0.00     0.019 A 
ATOM     11  C4  <0> d           0.785  -0.951  -3.821  0.00  0.00     0.017 A 
ATOM     12  C3  <0> d           0.131  -0.612  -2.655  0.00  0.00     0.024 A 
ATOM     13  C2  <0> d           0.845  -0.437  -1.483  0.00  0.00     0.058 A 
ATOM     14  C7  <0> d           2.220  -0.596  -1.474  0.00  0.00     0.024 A 
ATOM     15  C6  <0> d           2.886  -0.940  -2.632  0.00  0.00     0.017 A 
BRANCH  13  16
ATOM     16  S1  <0> d           0.002  -0.004   0.002  0.00  0.00     0.171 S 
ATOM     17  C1  <0> d          -0.022   1.810   0.012  0.00  0.00     0.167 C 
ATOM     18  O1  <0> d           0.835  -0.488   1.046  0.00  0.00    -0.223 OA
ATOM     19  O2  <0> d          -1.315  -0.510  -0.168  0.00  0.00    -0.223 OA
ENDBRANCH  13  16
ENDBRANCH   8  10
ENDBRANCH   1   5
BRANCH   2  20
ATOM     20  C11 <0> d           7.022  -2.877  -9.040  0.00  0.00     0.149 C 
ATOM     21  C19 <0> d           6.811  -3.172 -10.500  0.00  0.00    -0.007 A 
ATOM     22  C18 <0> d           7.100  -2.220 -11.464  0.00  0.00     0.083 A 
ATOM     23  C20 <0> d           6.323  -4.410 -10.879  0.00  0.00     0.011 A 
ATOM     24  O5  <0> d           7.578  -1.000 -11.118  0.00  0.00    -0.310 OA
ATOM     25  C23 <0> d           6.897  -2.514 -12.808  0.00  0.00     0.038 A 
ATOM     26  C17 <0> d           8.174  -0.823  -9.915  0.00  0.00     0.083 A 
ATOM     27  C12 <0> d           7.943  -1.700  -8.868  0.00  0.00    -0.007 A 
ATOM     28  C16 <0> d           9.029   0.258  -9.733  0.00  0.00     0.038 A 
ATOM     29  C13 <0> d           8.564  -1.497  -7.649  0.00  0.00     0.011 A 
ATOM     30  C14 <0> d           9.414  -0.422  -7.471  0.00  0.00     0.001 A 
ATOM     31  C15 <0> d           9.646   0.456  -8.514  0.00  0.00     0.003 A 
ATOM     32  C22 <0> d           6.411  -3.751 -13.180  0.00  0.00     0.003 A 
ATOM     33  C21 <0> d           6.123  -4.700 -12.216  0.00  0.00     0.001 A 
ENDBRANCH   2  20
TORSDOF 4
