REMARK  5 active torsions:
REMARK  status: ('A' for Active; 'I' for Inactive)
REMARK    1  A    between atoms: C2_2  and  N1_3 
REMARK    2  A    between atoms: N1_3  and  C3_4 
REMARK    3  A    between atoms: N1_3  and  C5_6 
REMARK    4  A    between atoms: C8_9  and  N3_12 
REMARK       I    between atoms: N3_12  and  C10_13 
REMARK    5  A    between atoms: C10_13  and  C11_15 
ROOT
ATOM      1  N3  <0> d          -2.105  -1.442  -5.863  0.00  0.00    -0.325 N 
ATOM      2  C10 <0> d          -1.427  -1.883  -6.941  0.00  0.00     0.232 C 
ATOM      3  O1  <0> d          -0.245  -2.143  -6.850  0.00  0.00    -0.272 OA
ATOM      4  H14 <0> d          -3.063  -1.299  -5.918  0.00  0.00     0.169 HD
ENDROOT
BRANCH   1   5
ATOM      5  C8  <0> d          -1.427  -1.190  -4.663  0.00  0.00     0.052 A 
ATOM      6  C7  <0> d          -0.346  -1.985  -4.283  0.00  0.00     0.035 A 
ATOM      7  C6  <0> d           0.294  -1.700  -3.091  0.00  0.00     0.052 A 
ATOM      8  C5  <0> d          -0.158  -0.638  -2.315  0.00  0.00     0.125 A 
ATOM      9  N2  <0> d          -1.191   0.092  -2.705  0.00  0.00    -0.241 NA
ATOM     10  C9  <0> d          -1.822  -0.148  -3.839  0.00  0.00     0.148 A 
BRANCH   8  11
ATOM     11  N1  <0> d           0.479  -0.343  -1.113  0.00  0.00    -0.367 N 
BRANCH  11  12
ATOM     12  C2  <0> d           1.689  -1.074  -0.727  0.00  0.00     0.120 C 
ATOM     13  C1  <0> d           1.299  -2.315   0.079  0.00  0.00     0.026 C 
ENDBRANCH  11  12
BRANCH  11  14
ATOM     14  C3  <0> d          -0.060   0.697  -0.234  0.00  0.00     0.120 C 
ATOM     15  C4  <0> d           0.563   2.046  -0.600  0.00  0.00     0.026 C 
ENDBRANCH  11  14
ENDBRANCH   8  11
ENDBRANCH   1   5
BRANCH   2  16
ATOM     16  C11 <0> d          -2.136  -2.053  -8.260  0.00  0.00     0.061 C 
ATOM     17  C15 <0> d          -1.146  -2.562  -9.310  0.00  0.00     0.251 C 
ATOM     18  N4  <0> d          -0.052  -1.595  -9.466  0.00  0.00    -0.074 N 
ATOM     19  C14 <0> d          -0.581  -0.321  -9.968  0.00  0.00     0.232 C 
ATOM     20  H21 <0> d           0.626  -1.958 -10.119  0.00  0.00     0.277 HD
ATOM     21  H27 <0> d           0.392  -1.445  -8.572  0.00  0.00     0.277 HD
ATOM     22  C13 <0> d          -1.548   0.273  -8.943  0.00  0.00     0.029 C 
ATOM     23  C12 <0> d          -2.704  -0.705  -8.713  0.00  0.00     0.022 C 
ATOM     24  C16 <0> d          -3.275  -3.061  -8.101  0.00  0.00     0.027 C 
ENDBRANCH   2  16
TORSDOF 5
