REMARK  10 active torsions:
REMARK  status: ('A' for Active; 'I' for Inactive)
REMARK    1  A    between atoms: C1_1  and  C2_2 
REMARK    2  A    between atoms: C1_1  and  O6_13 
REMARK    3  A    between atoms: C2_2  and  C3_3 
REMARK    4  A    between atoms: C2_2  and  O5_12 
REMARK    5  A    between atoms: C3_3  and  C4_4 
REMARK    6  A    between atoms: C3_3  and  O4_11 
REMARK    7  A    between atoms: C4_4  and  C5_5 
REMARK    8  A    between atoms: C4_4  and  O3_10 
REMARK    9  A    between atoms: C5_5  and  C6_6 
REMARK   10  A    between atoms: C5_5  and  O2_9 
REMARK       I    between atoms: C6_6  and  N1_8 
ROOT
ATOM      1  C4  <0> d          -2.198   1.155   1.217  0.00  0.00     0.187 C 
ENDROOT
BRANCH   1   2
ATOM      2  C3  <0> d          -0.729   1.579   1.267  0.00  0.00     0.180 C 
BRANCH   2   3
ATOM      3  C2  <0> d          -0.013   1.086   0.008  0.00  0.00     0.173 C 
BRANCH   3   4
ATOM      4  C1  <0> d           1.423   1.615  -0.003  0.00  0.00     0.198 C 
BRANCH   4   5
ATOM      5  O6  <0> d           2.126   1.061  -1.116  0.00  0.00    -0.398 OA
ATOM      6  H13 <0> d           3.045   1.354  -1.186  0.00  0.00     0.209 HD
ENDBRANCH   4   5
ENDBRANCH   3   4
BRANCH   3   7
ATOM      7  O5  <0> d          -0.704   1.559  -1.150  0.00  0.00    -0.391 OA
ATOM      8  H12 <0> d          -0.756   2.523  -1.210  0.00  0.00     0.210 HD
ENDBRANCH   3   7
ENDBRANCH   2   3
BRANCH   2   9
ATOM      9  O4  <0> d          -0.647   3.004   1.334  0.00  0.00    -0.390 OA
ATOM     10  H11 <0> d          -1.049   3.457   0.580  0.00  0.00     0.210 HD
ENDBRANCH   2   9
ENDBRANCH   1   2
BRANCH   1  11
ATOM     11  C5  <0> d          -2.942   1.753   2.413  0.00  0.00     0.240 C 
BRANCH  11  12
ATOM     12  C6  <0> d          -4.389   1.335   2.364  0.00  0.00     0.246 C 
ATOM     13  O1  <0> d          -4.844   0.621   3.232  0.00  0.00    -0.271 OA
ATOM     14  N1  <0> d          -5.178   1.754   1.355  0.00  0.00    -0.368 N 
ATOM     15  H7  <0> d          -4.815   2.325   0.660  0.00  0.00     0.159 HD
ATOM     16  H8  <0> d          -6.110   1.485   1.323  0.00  0.00     0.159 HD
ENDBRANCH  11  12
BRANCH  11  17
ATOM     17  O2  <0> d          -2.351   1.283   3.626  0.00  0.00    -0.383 OA
ATOM     18  H9  <0> d          -2.374   0.322   3.728  0.00  0.00     0.210 HD
ENDBRANCH  11  17
ENDBRANCH   1  11
BRANCH   1  19
ATOM     19  O3  <0> d          -2.789   1.625   0.004  0.00  0.00    -0.390 OA
ATOM     20  H10 <0> d          -2.766   2.586  -0.098  0.00  0.00     0.210 HD
ENDBRANCH   1  19
TORSDOF 10
