REMARK  4 active torsions:
REMARK  status: ('A' for Active; 'I' for Inactive)
REMARK    1  A    between atoms: C2_2  and  C3_3 
REMARK    2  A    between atoms: C3_3  and  N1_4 
REMARK    3  A    between atoms: C6_7  and  N2_10 
REMARK       I    between atoms: N2_10  and  C9_11 
REMARK    4  A    between atoms: C9_11  and  C10_13 
ROOT
ATOM      1  N2  <0> d           0.285  -6.016  -2.342  0.00  0.00    -0.352 N 
ATOM      2  C9  <0> d           0.506  -6.762  -3.442  0.00  0.00     0.255 C 
ATOM      3  O1  <0> d           0.643  -6.224  -4.524  0.00  0.00    -0.268 OA
ATOM      4  H18 <0> d           0.175  -6.445  -1.479  0.00  0.00     0.163 HD
ENDROOT
BRANCH   2   5
ATOM      5  C10 <0> d           0.582  -8.228  -3.334  0.00  0.00     0.081 A 
ATOM      6  C13 <0> d           1.783  -9.042  -3.086  0.00  0.00     0.103 A 
ATOM      7  C12 <0> d           1.346 -10.367  -3.069  0.00  0.00     0.187 A 
ATOM      8  C14 <0> d           3.152  -8.765  -2.882  0.00  0.00     0.262 A 
ATOM      9  O2  <0> d           0.022 -10.363  -3.291  0.00  0.00    -0.295 OA
ATOM     10  N4  <0> d           2.243 -11.342  -2.856  0.00  0.00    -0.219 NA
ATOM     11  C11 <0> d          -0.444  -9.116  -3.449  0.00  0.00     0.068 A 
ATOM     12  C16 <0> d          -1.882  -8.753  -3.713  0.00  0.00     0.078 C 
ATOM     13  C15 <0> d           3.506 -11.075  -2.675  0.00  0.00     0.212 A 
ATOM     14  N3  <0> d           3.989  -9.808  -2.678  0.00  0.00    -0.317 N 
ATOM     15  H1  <0> d           4.935  -9.650  -2.534  0.00  0.00     0.170 HD
ATOM     16  O3  <0> d           3.568  -7.619  -2.888  0.00  0.00    -0.267 OA
ENDBRANCH   2   5
BRANCH   1  17
ATOM     17  C6  <0> d           0.209  -4.557  -2.449  0.00  0.00     0.087 C 
ATOM     18  C5  <0> d          -0.627  -4.001  -1.293  0.00  0.00     0.053 C 
ATOM     19  C4  <0> d          -0.636  -2.472  -1.366  0.00  0.00     0.237 C 
ATOM     20  N1  <0> d           0.738  -1.966  -1.265  0.00  0.00    -0.071 N 
ATOM     21  C8  <0> d           1.528  -2.437  -2.409  0.00  0.00     0.237 C 
ATOM     22  H23 <0> d           1.155  -2.301  -0.409  0.00  0.00     0.279 HD
ATOM     23  C7  <0> d           1.620  -3.964  -2.376  0.00  0.00     0.053 C 
BRANCH  20  24
ATOM     24  C3  <0> d           0.718  -0.497  -1.257  0.00  0.00     0.234 C 
BRANCH  24  25
ATOM     25  C2  <0> d           0.002  -0.004   0.002  0.00  0.00     0.023 C 
ATOM     26  C1  <0> d          -0.019   1.526   0.010  0.00  0.00     0.007 C 
ENDBRANCH  24  25
ENDBRANCH  20  24
ENDBRANCH   1  17
TORSDOF 4
