REMARK  4 active torsions:
REMARK  status: ('A' for Active; 'I' for Inactive)
REMARK       I    between atoms: C2_2  and  N1_4 
REMARK    1  A    between atoms: N1_4  and  C3_5 
REMARK    2  A    between atoms: C6_10  and  C7_11 
REMARK    3  A    between atoms: C10_14  and  C11_16 
REMARK    4  A    between atoms: C15_20  and  C17_22 
ROOT
ATOM      1  C7  <0> d          -2.967   3.958   7.609  0.00  0.00     0.077 A 
ATOM      2  C8  <0> d          -3.292   4.492   8.844  0.00  0.00     0.040 A 
ATOM      3  C9  <0> d          -4.656   4.789   8.809  0.00  0.00     0.041 A 
ATOM      4  C10 <0> d          -5.117   4.419   7.565  0.00  0.00     0.086 A 
ATOM      5  O3  <0> d          -4.087   3.922   6.857  0.00  0.00    -0.310 OA
ENDROOT
BRANCH   1   6
ATOM      6  C6  <0> d          -1.687   3.522   7.209  0.00  0.00     0.061 C 
ATOM      7  C5  <0> d          -1.522   2.907   6.000  0.00  0.00     0.081 A 
ATOM      8  C4  <0> d          -2.534   2.393   5.055  0.00  0.00     0.286 A 
ATOM      9  S1  <0> d          -0.021   2.490   5.121  0.00  0.00    -0.046 SA
ATOM     10  N2  <0> d          -2.076   1.840   3.951  0.00  0.00    -0.184 NA
ATOM     11  O2  <0> d          -3.731   2.475   5.285  0.00  0.00    -0.265 OA
ATOM     12  C3  <0> d          -0.785   1.743   3.690  0.00  0.00     0.177 A 
BRANCH  12  13
ATOM     13  N1  <0> d          -0.174   1.193   2.583  0.00  0.00    -0.306 N 
ATOM     14  C2  <0> d          -0.921   0.664   1.594  0.00  0.00     0.219 C 
ATOM     15  C1  <0> d          -0.254   0.063   0.385  0.00  0.00     0.117 C 
ATOM     16  O1  <0> d          -2.131   0.673   1.678  0.00  0.00    -0.274 OA
ATOM     17  H4  <0> d           0.794   1.186   2.517  0.00  0.00     0.171 HD
ENDBRANCH  12  13
ENDBRANCH   1   6
BRANCH   4  18
ATOM     18  C11 <0> d          -6.507   4.548   7.087  0.00  0.00    -0.001 A 
ATOM     19  C16 <0> d          -6.845   4.135   5.799  0.00  0.00     0.034 A 
ATOM     20  C15 <0> d          -8.160   4.260   5.357  0.00  0.00     0.063 A 
ATOM     21  C14 <0> d          -9.132   4.798   6.206  0.00  0.00     0.051 A 
ATOM     22  C13 <0> d          -8.790   5.206   7.483  0.00  0.00     0.026 A 
ATOM     23 Cl1  <0> d         -10.772   4.955   5.658  0.00  0.00    -0.083 Cl
ATOM     24  C12 <0> d          -7.490   5.080   7.928  0.00  0.00     0.016 A 
BRANCH  20  25
ATOM     25  C17 <0> d          -8.527   3.825   3.994  0.00  0.00     0.211 C 
ATOM     26  O4  <0> d          -9.674   3.935   3.610  0.00  0.00    -0.644 OA
ATOM     27  O5  <0> d          -7.590   3.308   3.177  0.00  0.00    -0.644 OA
ENDBRANCH  20  25
ENDBRANCH   4  18
TORSDOF 4
