REMARK  3 active torsions:
REMARK  status: ('A' for Active; 'I' for Inactive)
REMARK    1  A    between atoms: N2_5  and  C15_21 
REMARK    2  A    between atoms: C4_6  and  C9_14 
REMARK    3  A    between atoms: C20_26  and  N4_27 
ROOT
ATOM      1  C1  <0> d           5.482  -0.506  -1.771  0.00  0.00     0.161 C 
ATOM      2  N1  <0> d           4.204   0.178  -1.980  0.00  0.00    -0.301 N 
ATOM      3  C2  <0> d           3.540   0.763  -0.896  0.00  0.00     0.072 A 
ATOM      4  C3  <0> d           3.775   0.884   0.422  0.00  0.00     0.128 A 
ATOM      5  N2  <0> d           2.746   1.580   1.003  0.00  0.00    -0.316 N 
ATOM      6  C4  <0> d           1.819   1.923   0.061  0.00  0.00     0.069 A 
ATOM      7  C5  <0> d           2.256   1.433  -1.157  0.00  0.00     0.089 A 
ATOM      8  C6  <0> d           1.765   1.450  -2.537  0.00  0.00     0.266 A 
ATOM      9  O1  <0> d           0.712   1.991  -2.817  0.00  0.00    -0.267 OA
ATOM     10  N3  <0> d           2.508   0.846  -3.489  0.00  0.00    -0.270 N 
ATOM     11  C7  <0> d           3.671   0.241  -3.213  0.00  0.00     0.331 A 
ATOM     12  O2  <0> d           4.279  -0.280  -4.128  0.00  0.00    -0.246 OA
ATOM     13  C8  <0> d           2.025   0.852  -4.872  0.00  0.00     0.164 C 
ENDROOT
BRANCH   5  14
ATOM     14  C15 <0> d           2.658   1.894   2.366  0.00  0.00     0.065 A 
ATOM     15  C20 <0> d           2.723   3.223   2.784  0.00  0.00     0.053 A 
ATOM     16  C19 <0> d           2.635   3.526   4.135  0.00  0.00     0.031 A 
ATOM     17  C18 <0> d           2.484   2.513   5.062  0.00  0.00     0.002 A 
ATOM     18  C17 <0> d           2.420   1.195   4.648  0.00  0.00     0.002 A 
ATOM     19  C16 <0> d           2.502   0.883   3.304  0.00  0.00     0.032 A 
BRANCH  15  20
ATOM     20  N4  <0> d           2.875   4.246   1.844  0.00  0.00    -0.397 N 
ATOM     21  H16 <0> d           3.032   4.029   0.912  0.00  0.00     0.156 HD
ATOM     22  H17 <0> d           2.824   5.174   2.124  0.00  0.00     0.156 HD
ENDBRANCH  15  20
ENDBRANCH   5  14
BRANCH   6  23
ATOM     23  C9  <0> d           0.572   2.675   0.301  0.00  0.00     0.010 A 
ATOM     24  C14 <0> d          -0.597   2.000   0.662  0.00  0.00     0.023 A 
ATOM     25  C13 <0> d          -1.761   2.710   0.879  0.00  0.00     0.020 A 
ATOM     26 Br1  <0> d          -0.587   0.117   0.845  0.00  0.00    -0.050 Br
ATOM     27  C12 <0> d          -1.768   4.087   0.750  0.00  0.00     0.001 A 
ATOM     28  C11 <0> d          -0.614   4.762   0.394  0.00  0.00     0.001 A 
ATOM     29  C10 <0> d           0.555   4.066   0.168  0.00  0.00     0.015 A 
ENDBRANCH   6  23
TORSDOF 3
