REMARK  5 active torsions:
REMARK  status: ('A' for Active; 'I' for Inactive)
REMARK    1  A    between atoms: C7_11  and  C8_13 
REMARK    2  A    between atoms: C8_13  and  S2_14 
REMARK    3  A    between atoms: S2_14  and  C9_15 
REMARK    4  A    between atoms: N6_19  and  C10_20 
REMARK    5  A    between atoms: C13_23  and  O2_26 
ROOT
ATOM      1  C8  <0> d           5.517   2.697  -2.096  0.00  0.00     0.161 C 
ENDROOT
BRANCH   1   2
ATOM      2  C7  <0> d           5.953   3.853  -2.959  0.00  0.00     0.117 A 
ATOM      3  N1  <0> d           7.227   3.892  -3.428  0.00  0.00    -0.310 N 
ATOM      4  C6  <0> d           7.656   4.903  -4.207  0.00  0.00     0.260 A 
ATOM      5  H1  <0> d           7.859   3.155  -3.191  0.00  0.00     0.170 HD
ATOM      6  C5  <0> d           6.746   5.962  -4.532  0.00  0.00     0.075 A 
ATOM      7  O1  <0> d           8.801   4.921  -4.624  0.00  0.00    -0.267 OA
ATOM      8  C2  <0> d           6.966   7.149  -5.336  0.00  0.00    -0.031 A 
ATOM      9  C4  <0> d           5.452   5.838  -3.996  0.00  0.00     0.116 A 
ATOM     10  C1  <0> d           8.310   7.404  -5.969  0.00  0.00     0.050 C 
ATOM     11  C3  <0> d           5.957   8.019  -5.510  0.00  0.00    -0.012 A 
ATOM     12  S1  <0> d           4.618   7.288  -4.588  0.00  0.00    -0.074 SA
ATOM     13  C17 <0> d           5.958   9.304  -6.297  0.00  0.00     0.057 C 
ATOM     14  N2  <0> d           5.101   4.803  -3.238  0.00  0.00    -0.226 NA
ENDBRANCH   1   2
BRANCH   1  15
ATOM     15  S2  <0> d           3.786   2.921  -1.618  0.00  0.00    -0.081 SA
BRANCH  15  16
ATOM     16  C9  <0> d           3.547   1.470  -0.646  0.00  0.00     0.214 A 
ATOM     17  N6  <0> d           2.405   1.102  -0.015  0.00  0.00    -0.188 N 
ATOM     18  N5  <0> d           2.710  -0.117   0.617  0.00  0.00    -0.038 NA
ATOM     19  N4  <0> d           3.942  -0.381   0.344  0.00  0.00    -0.022 NA
ATOM     20  N3  <0> d           4.445   0.542  -0.393  0.00  0.00    -0.101 NA
BRANCH  17  21
ATOM     21  C10 <0> d           1.180   1.786   0.000  0.00  0.00     0.063 A 
ATOM     22  C15 <0> d           1.161   3.174   0.008  0.00  0.00     0.034 A 
ATOM     23  C14 <0> d          -0.045   3.848   0.023  0.00  0.00     0.039 A 
ATOM     24  C13 <0> d          -1.236   3.137   0.031  0.00  0.00     0.068 A 
ATOM     25  C12 <0> d          -1.218   1.750   0.017  0.00  0.00     0.039 A 
ATOM     26  C11 <0> d          -0.013   1.076   0.008  0.00  0.00     0.034 A 
BRANCH  24  27
ATOM     27  O2  <0> d          -2.423   3.800   0.045  0.00  0.00    -0.356 OA
ATOM     28  C16 <0> d          -3.610   3.006   0.052  0.00  0.00     0.210 C 
ENDBRANCH  24  27
ENDBRANCH  17  21
ENDBRANCH  15  16
ENDBRANCH   1  15
TORSDOF 5
