REMARK  4 active torsions:
REMARK  status: ('A' for Active; 'I' for Inactive)
REMARK    1  A    between atoms: C2_2  and  N1_5 
REMARK    2  A    between atoms: C6_7  and  C9_11 
REMARK       I    between atoms: C9_11  and  N2_13 
REMARK    3  A    between atoms: C12_16  and  C15_19 
REMARK       I    between atoms: C15_19  and  N3_21 
REMARK    4  A    between atoms: N3_21  and  C16_22 
ROOT
ATOM      1  C9  <0> d          -0.219   2.922   1.716  0.00  0.00     0.226 C 
ATOM      2  O2  <0> d          -0.911   3.917   1.718  0.00  0.00    -0.273 OA
ATOM      3  N2  <0> d           1.058   2.988   2.140  0.00  0.00    -0.352 N 
ATOM      4  C10 <0> d           1.907   1.789   2.150  0.00  0.00     0.126 C 
ATOM      5  C11 <0> d           3.196   2.097   1.372  0.00  0.00     0.034 C 
ATOM      6  C12 <0> d           3.859   3.341   1.968  0.00  0.00     0.081 C 
ATOM      7  C13 <0> d           2.917   4.539   1.830  0.00  0.00     0.034 C 
ATOM      8  C14 <0> d           1.627   4.260   2.608  0.00  0.00     0.126 C 
ENDROOT
BRANCH   1   9
ATOM      9  C6  <0> d          -0.787   1.610   1.239  0.00  0.00     0.105 C 
ATOM     10  C5  <0> d          -2.209   1.800   0.655  0.00  0.00     0.141 C 
ATOM     11  N1  <0> d          -2.016   2.009  -0.784  0.00  0.00    -0.343 N 
ATOM     12  C8  <0> d          -0.793   1.611  -1.176  0.00  0.00     0.221 C 
ATOM     13  C7  <0> d          -0.013   1.086   0.008  0.00  0.00     0.118 C 
ATOM     14  O1  <0> d          -0.377   1.667  -2.314  0.00  0.00    -0.273 OA
BRANCH  11  15
ATOM     15  C2  <0> d          -3.027   2.578  -1.679  0.00  0.00     0.024 C 
ATOM     16  C1  <0> d          -2.469   2.643  -3.103  0.00  0.00     0.037 C 
ATOM     17  C3  <0> d          -4.278   1.697  -1.662  0.00  0.00     0.037 C 
ATOM     18  C4  <0> d          -3.389   3.988  -1.209  0.00  0.00     0.037 C 
ENDBRANCH  11  15
ENDBRANCH   1   9
BRANCH   6  19
ATOM     19  C15 <0> d           5.144   3.626   1.232  0.00  0.00     0.222 C 
ATOM     20  O3  <0> d           5.290   4.683   0.655  0.00  0.00    -0.273 OA
ATOM     21  N3  <0> d           6.129   2.707   1.216  0.00  0.00    -0.348 N 
ATOM     22  H25 <0> d           6.011   1.862   1.677  0.00  0.00     0.163 HD
BRANCH  21  23
ATOM     23  C16 <0> d           7.377   2.984   0.501  0.00  0.00     0.166 C 
ATOM     24  C19 <0> d           7.194   2.634  -0.959  0.00  0.00     0.208 C 
ATOM     25  S1  <0> d           8.708   1.956  -1.456  0.00  0.00    -0.090 SA
ATOM     26  O4  <0> d           6.200   2.794  -1.636  0.00  0.00    -0.283 OA
ATOM     27  C18 <0> d           9.643   2.003   0.119  0.00  0.00     0.085 C 
ATOM     28  C17 <0> d           8.507   2.186   1.150  0.00  0.00     0.044 C 
ENDBRANCH  21  23
ENDBRANCH   6  19
TORSDOF 4
