REMARK  9 active torsions:
REMARK  status: ('A' for Active; 'I' for Inactive)
REMARK    1  A    between atoms: C2_2  and  N1_3 
REMARK    2  A    between atoms: N1_3  and  C3_4 
REMARK    3  A    between atoms: N1_3  and  C5_6 
REMARK    4  A    between atoms: C5_6  and  C6_7 
REMARK    5  A    between atoms: C6_7  and  C7_8 
REMARK    6  A    between atoms: C7_8  and  C8_9 
REMARK    7  A    between atoms: C8_9  and  N2_11 
REMARK    8  A    between atoms: N2_11  and  C10_12 
REMARK    9  A    between atoms: C10_12  and  C12_14 
ROOT
ATOM      1  C8  <0> d           2.379  -4.557   3.736  0.00  0.00     0.182 C 
ATOM      2  C9  <0> d           2.455  -6.085   3.718  0.00  0.00     0.040 C 
ENDROOT
BRANCH   1   3
ATOM      3  C7  <0> d           1.748  -4.062   2.433  0.00  0.00     0.034 C 
BRANCH   3   4
ATOM      4  C6  <0> d           1.558  -2.546   2.502  0.00  0.00     0.030 C 
BRANCH   4   5
ATOM      5  C5  <0> d           0.926  -2.051   1.198  0.00  0.00     0.235 C 
BRANCH   5   6
ATOM      6  N1  <0> d           0.643  -0.614   1.306  0.00  0.00    -0.072 N 
ATOM      7  H28 <0> d           0.074  -0.444   2.122  0.00  0.00     0.279 HD
BRANCH   6   8
ATOM      8  C2  <0> d           1.905   0.127   1.426  0.00  0.00     0.230 C 
ATOM      9  C1  <0> d           1.607   1.609   1.663  0.00  0.00     0.034 C 
ENDBRANCH   6   8
BRANCH   6  10
ATOM     10  C3  <0> d          -0.076  -0.166   0.106  0.00  0.00     0.230 C 
ATOM     11  C4  <0> d          -1.460  -0.817   0.068  0.00  0.00     0.034 C 
ENDBRANCH   6  10
ENDBRANCH   5   6
ENDBRANCH   4   5
ENDBRANCH   3   4
ENDBRANCH   1   3
BRANCH   1  12
ATOM     12  N2  <0> d           3.732  -4.000   3.866  0.00  0.00    -0.063 N 
ATOM     13  H22 <0> d           4.319  -4.365   3.131  0.00  0.00     0.278 HD
ATOM     14  H29 <0> d           3.691  -2.995   3.796  0.00  0.00     0.278 HD
BRANCH  12  15
ATOM     15  C10 <0> d           4.293  -4.377   5.171  0.00  0.00     0.223 C 
ATOM     16  C11 <0> d           3.476  -3.720   6.286  0.00  0.00     0.046 C 
BRANCH  15  17
ATOM     17  C12 <0> d           5.724  -3.912   5.256  0.00  0.00     0.030 A 
ATOM     18  S1  <0> d           6.424  -2.337   4.790  0.00  0.00    -0.103 SA
ATOM     19  C15 <0> d           8.121  -2.676   5.229  0.00  0.00     0.051 A 
ATOM     20  C14 <0> d           8.043  -3.949   5.687  0.00  0.00     0.027 A 
ATOM     21  C13 <0> d           6.815  -4.583   5.701  0.00  0.00     0.026 A 
ATOM     22 Br1  <0> d           6.658  -6.359   6.332  0.00  0.00    -0.050 Br
ENDBRANCH  15  17
ENDBRANCH  12  15
ENDBRANCH   1  12
TORSDOF 9
