REMARK  7 active torsions:
REMARK  status: ('A' for Active; 'I' for Inactive)
REMARK    1  A    between atoms: O1_2  and  C2_3 
REMARK    2  A    between atoms: C5_6  and  C9_11 
REMARK    3  A    between atoms: C6_7  and  O2_9 
REMARK    4  A    between atoms: C9_11  and  C10_12 
REMARK       I    between atoms: C10_12  and  N1_14 
REMARK    5  A    between atoms: N1_14  and  C11_15 
REMARK    6  A    between atoms: C12_17  and  C14_20 
REMARK    7  A    between atoms: C16_22  and  C18_25 
REMARK       I    between atoms: C18_25  and  N4_27 
ROOT
ATOM      1  C11 <0> d          -6.875  -3.914   3.016  0.00  0.00     0.173 A 
ATOM      2  N2  <0> d          -7.951  -4.529   3.465  0.00  0.00    -0.223 NA
ATOM      3  C12 <0> d          -8.126  -4.755   4.767  0.00  0.00     0.074 A 
ATOM      4  C13 <0> d          -7.159  -4.333   5.652  0.00  0.00     0.085 A 
ATOM      5  S1  <0> d          -5.976  -3.602   4.528  0.00  0.00    -0.061 SA
ENDROOT
BRANCH   1   6
ATOM      6  N1  <0> d          -6.528  -3.598   1.709  0.00  0.00    -0.305 N 
ATOM      7  C10 <0> d          -5.366  -2.964   1.455  0.00  0.00     0.228 C 
ATOM      8  O3  <0> d          -4.623  -2.671   2.368  0.00  0.00    -0.273 OA
ATOM      9  H12 <0> d          -7.122  -3.832   0.979  0.00  0.00     0.171 HD
BRANCH   7  10
ATOM     10  C9  <0> d          -4.989  -2.621   0.037  0.00  0.00     0.144 C 
BRANCH  10  11
ATOM     11  C5  <0> d          -3.654  -1.922   0.027  0.00  0.00    -0.016 A 
ATOM     12  C4  <0> d          -3.597  -0.541   0.028  0.00  0.00     0.013 A 
ATOM     13  C3  <0> d          -2.375   0.102   0.019  0.00  0.00     0.037 A 
ATOM     14  C2  <0> d          -1.200  -0.637   0.010  0.00  0.00     0.070 A 
ATOM     15  C7  <0> d          -1.255  -2.022   0.003  0.00  0.00     0.074 A 
ATOM     16  C6  <0> d          -2.483  -2.666   0.018  0.00  0.00     0.077 A 
BRANCH  14  17
ATOM     17  O1  <0> d           0.002  -0.004   0.002  0.00  0.00    -0.356 OA
ATOM     18  C1  <0> d          -0.017   1.425   0.010  0.00  0.00     0.210 C 
ENDBRANCH  14  17
BRANCH  16  19
ATOM     19  O2  <0> d          -2.539  -4.024   0.017  0.00  0.00    -0.355 OA
ATOM     20  C8  <0> d          -1.294  -4.725   0.007  0.00  0.00     0.210 C 
ENDBRANCH  16  19
ENDBRANCH  10  11
ENDBRANCH   7  10
ENDBRANCH   1   6
BRANCH   3  21
ATOM     21  C14 <0> d          -9.330  -5.440   5.250  0.00  0.00    -0.007 A 
ATOM     22  C17 <0> d         -10.479  -5.962   4.415  0.00  0.00     0.190 A 
ATOM     23  N3  <0> d         -11.419  -6.559   5.372  0.00  0.00    -0.280 NA
ATOM     24  C16 <0> d         -10.932  -6.415   6.570  0.00  0.00     0.119 A 
ATOM     25  C15 <0> d          -9.645  -5.730   6.535  0.00  0.00     0.048 A 
BRANCH  24  26
ATOM     26  C18 <0> d         -11.599  -6.888   7.813  0.00  0.00     0.267 C 
ATOM     27  O4  <0> d         -11.070  -6.711   8.892  0.00  0.00    -0.266 OA
ATOM     28  N4  <0> d         -12.791  -7.513   7.742  0.00  0.00    -0.365 N 
ATOM     29  H17 <0> d         -13.214  -7.655   6.880  0.00  0.00     0.159 HD
ATOM     30  H18 <0> d         -13.226  -7.822   8.552  0.00  0.00     0.159 HD
ENDBRANCH  24  26
ENDBRANCH   3  21
TORSDOF 7
