REMARK  2 active torsions:
REMARK  status: ('A' for Active; 'I' for Inactive)
REMARK    1  A    between atoms: C9_10  and  N1_13 
REMARK    2  A    between atoms: C10_11  and  O2_12 
ROOT
ATOM      1  C1  <0> d          -0.018   1.503   0.010  0.00  0.00     0.048 C 
ATOM      2  C2  <0> d           0.002  -0.004   0.002  0.00  0.00    -0.059 A 
ATOM      3  C3  <0> d           0.006  -0.689  -1.199  0.00  0.00     0.014 A 
ATOM      4  C4  <0> d           0.026  -2.070  -1.206  0.00  0.00    -0.050 A 
ATOM      5  C5  <0> d           0.042  -2.775  -0.014  0.00  0.00     0.012 A 
ATOM      6  C6  <0> d           0.035  -2.092   1.190  0.00  0.00     0.078 A 
ATOM      7  C7  <0> d           0.023  -0.701   1.193  0.00  0.00     0.044 A 
ATOM      8  O1  <0> d           0.038  -2.743   2.382  0.00  0.00    -0.348 OA
ATOM      9  C8  <0> d           0.424  -4.118   2.391  0.00  0.00     0.212 C 
ATOM     10  C9  <0> d          -0.361  -4.848   1.294  0.00  0.00     0.245 C 
ATOM     11  C10 <0> d           0.068  -4.282  -0.062  0.00  0.00     0.187 C 
ATOM     12  C17 <0> d           0.032  -2.814  -2.517  0.00  0.00     0.049 C 
ENDROOT
BRANCH  10  13
ATOM     13  N1  <0> d          -0.065  -6.286   1.347  0.00  0.00    -0.062 N 
ATOM     14  C15 <0> d          -0.454  -6.816   2.659  0.00  0.00     0.239 C 
ATOM     15  C14 <0> d          -0.073  -8.296   2.749  0.00  0.00     0.007 C 
ATOM     16  C13 <0> d          -0.800  -9.072   1.647  0.00  0.00     0.007 C 
ATOM     17  C16 <0> d          -0.481  -8.847   4.116  0.00  0.00     0.011 C 
ATOM     18  C12 <0> d          -0.445  -8.463   0.287  0.00  0.00     0.028 C 
ATOM     19  C11 <0> d          -0.812  -6.977   0.289  0.00  0.00     0.235 C 
ATOM     20  H26 <0> d           0.924  -6.430   1.206  0.00  0.00     0.280 HD
ENDBRANCH  10  13
BRANCH  11  21
ATOM     21  O2  <0> d           1.393  -4.724  -0.364  0.00  0.00    -0.389 OA
ATOM     22  H11 <0> d           1.730  -4.405  -1.213  0.00  0.00     0.210 HD
ENDBRANCH  11  21
TORSDOF 2
