REMARK  7 active torsions:
REMARK  status: ('A' for Active; 'I' for Inactive)
REMARK    1  A    between atoms: C4_4  and  N3_23 
REMARK    2  A    between atoms: C7_7  and  S1_8 
REMARK    3  A    between atoms: S1_8  and  N1_11 
REMARK    4  A    between atoms: N1_11  and  C8_12 
REMARK    5  A    between atoms: C8_12  and  C9_13 
REMARK    6  A    between atoms: C12_16  and  S2_19 
REMARK    7  A    between atoms: S2_19  and  N2_22 
ROOT
ATOM      1  N1  <0> d           1.176   1.029   2.916  0.00  0.00    -0.311 N 
ATOM      2  H7  <0> d           1.876   0.858   3.566  0.00  0.00     0.172 HD
ENDROOT
BRANCH   1   3
ATOM      3  S1  <0> d          -0.065  -0.051   2.732  0.00  0.00     0.259 S 
ATOM      4  O1  <0> d          -1.269   0.700   2.788  0.00  0.00    -0.201 OA
ATOM      5  O2  <0> d           0.202  -1.130   3.618  0.00  0.00    -0.201 OA
BRANCH   3   6
ATOM      6  C7  <0> d           0.048  -0.702   1.099  0.00  0.00     0.085 A 
ATOM      7  C2  <0> d           1.142  -1.463   0.732  0.00  0.00    -0.036 A 
ATOM      8  C1  <0> d           2.238  -1.737   1.729  0.00  0.00     0.050 C 
ATOM      9  C3  <0> d           1.228  -1.978  -0.548  0.00  0.00     0.044 A 
ATOM     10  C4  <0> d           0.223  -1.726  -1.463  0.00  0.00     0.103 A 
ATOM     11  C5  <0> d          -0.869  -0.961  -1.098  0.00  0.00     0.037 A 
ATOM     12  C6  <0> d          -0.955  -0.447   0.182  0.00  0.00     0.028 A 
BRANCH  10  13
ATOM     13  N3  <0> d           0.316  -2.277  -2.834  0.00  0.00    -0.116 N 
ATOM     14  O5  <0> d           1.270  -2.946  -3.154  0.00  0.00    -0.532 OA
ATOM     15  O6  <0> d          -0.564  -2.057  -3.634  0.00  0.00    -0.532 OA
ENDBRANCH  10  13
ENDBRANCH   3   6
ENDBRANCH   1   3
BRANCH   1  16
ATOM     16  C8  <0> d           1.217   2.244   2.098  0.00  0.00     0.170 C 
BRANCH  16  17
ATOM     17  C9  <0> d           2.192   3.223   2.700  0.00  0.00    -0.040 A 
ATOM     18  C14 <0> d           3.521   3.199   2.318  0.00  0.00     0.010 A 
ATOM     19  C13 <0> d           4.414   4.099   2.867  0.00  0.00     0.026 A 
ATOM     20  C12 <0> d           3.982   5.018   3.805  0.00  0.00     0.079 A 
ATOM     21  C11 <0> d           2.654   5.038   4.191  0.00  0.00     0.026 A 
ATOM     22  C10 <0> d           1.760   4.141   3.639  0.00  0.00     0.010 A 
BRANCH  20  23
ATOM     23  S2  <0> d           5.122   6.163   4.508  0.00  0.00     0.256 S 
ATOM     24  O3  <0> d           6.188   6.296   3.578  0.00  0.00    -0.201 OA
ATOM     25  O4  <0> d           4.357   7.274   4.955  0.00  0.00    -0.201 OA
BRANCH  23  26
ATOM     26  N2  <0> d           5.759   5.451   5.860  0.00  0.00    -0.324 N 
ATOM     27  H14 <0> d           6.660   5.669   6.144  0.00  0.00     0.169 HD
ATOM     28  H15 <0> d           5.231   4.816   6.369  0.00  0.00     0.169 HD
ENDBRANCH  23  26
ENDBRANCH  20  23
ENDBRANCH  16  17
ENDBRANCH   1  16
TORSDOF 7
