REMARK  7 active torsions:
REMARK  status: ('A' for Active; 'I' for Inactive)
REMARK    1  A    between atoms: C3_3  and  C5_6 
REMARK    2  A    between atoms: C5_6  and  N1_7 
REMARK    3  A    between atoms: N1_7  and  C6_8 
REMARK    4  A    between atoms: C6_8  and  C7_9 
REMARK       I    between atoms: C7_9  and  N2_11 
REMARK    5  A    between atoms: N2_11  and  C8_12 
REMARK    6  A    between atoms: C9_13  and  C15_20 
REMARK       I    between atoms: C15_20  and  N3_22 
REMARK    7  A    between atoms: N3_22  and  C16_23 
ROOT
ATOM      1  C8  <0> d           2.495  -5.005   0.866  0.00  0.00     0.093 A 
ATOM      2  C9  <0> d           2.424  -4.196  -0.255  0.00  0.00     0.073 A 
ATOM      3  C10 <0> d           2.358  -4.851  -1.561  0.00  0.00    -0.026 A 
ATOM      4  C11 <0> d           2.387  -6.196  -1.527  0.00  0.00    -0.008 A 
ATOM      5  S1  <0> d           2.483  -6.602   0.200  0.00  0.00    -0.075 SA
ATOM      6  C12 <0> d           2.326  -6.796  -2.905  0.00  0.00     0.047 C 
ATOM      7  C13 <0> d           2.694  -5.633  -3.853  0.00  0.00     0.010 C 
ATOM      8  C14 <0> d           2.275  -4.405  -3.021  0.00  0.00     0.041 C 
ENDROOT
BRANCH   1   9
ATOM      9  N2  <0> d           2.559  -4.628   2.199  0.00  0.00    -0.319 N 
ATOM     10  C7  <0> d           2.624  -5.568   3.163  0.00  0.00     0.248 C 
ATOM     11  O2  <0> d           2.626  -6.743   2.864  0.00  0.00    -0.271 OA
ATOM     12  H9  <0> d           2.557  -3.562   2.469  0.00  0.00     0.169 HD
BRANCH  10  13
ATOM     13  C6  <0> d           2.693  -5.158   4.611  0.00  0.00     0.335 C 
BRANCH  13  14
ATOM     14  N1  <0> d           2.756  -6.357   5.457  0.00  0.00    -0.061 N 
ATOM     15  H6  <0> d           3.650  -6.936   5.182  0.00  0.00     0.278 HD
ATOM     16  H21 <0> d           1.856  -6.963   5.276  0.00  0.00     0.278 HD
BRANCH  14  17
ATOM     17  C5  <0> d           2.825  -5.995   6.879  0.00  0.00     0.297 C 
BRANCH  17  18
ATOM     18  C3  <0> d           2.888  -7.248   7.714  0.00  0.00     0.078 A 
ATOM     19  C2  <0> d           4.010  -7.886   8.092  0.00  0.00     0.036 A 
ATOM     20  C1  <0> d           3.607  -9.005   8.857  0.00  0.00     0.027 A 
ATOM     21  C4  <0> d           2.263  -8.984   8.900  0.00  0.00     0.142 A 
ATOM     22  O1  <0> d           1.833  -7.915   8.211  0.00  0.00    -0.325 OA
ENDBRANCH  17  18
ENDBRANCH  14  17
ENDBRANCH  13  14
ENDBRANCH  10  13
ENDBRANCH   1   9
BRANCH   2  23
ATOM     23  C15 <0> d           2.409  -2.734  -0.137  0.00  0.00     0.259 C 
ATOM     24  O3  <0> d           3.455  -2.113  -0.144  0.00  0.00    -0.267 OA
ATOM     25  N3  <0> d           1.237  -2.079  -0.021  0.00  0.00    -0.323 N 
ATOM     26  H16 <0> d           0.298  -2.645   0.073  0.00  0.00     0.169 HD
BRANCH  25  27
ATOM     27  C16 <0> d           1.214  -0.681  -0.019  0.00  0.00     0.035 A 
ATOM     28  C21 <0> d           0.269  -0.001   0.738  0.00  0.00     0.031 A 
ATOM     29  C20 <0> d           0.249   1.380   0.737  0.00  0.00     0.021 A 
ATOM     30  C19 <0> d           1.169   2.086  -0.017  0.00  0.00     0.011 A 
ATOM     31  C18 <0> d           2.112   1.412  -0.772  0.00  0.00     0.021 A 
ATOM     32 Br1  <0> d           1.138   3.977  -0.015  0.00  0.00    -0.051 Br
ATOM     33  C17 <0> d           2.137   0.031  -0.775  0.00  0.00     0.031 A 
ENDBRANCH  25  27
ENDBRANCH   2  23
TORSDOF 7
