REMARK  4 active torsions:
REMARK  status: ('A' for Active; 'I' for Inactive)
REMARK    1  A    between atoms: N1_2  and  N2_4 
REMARK    2  A    between atoms: N2_4  and  C3_5 
REMARK    3  A    between atoms: C3_5  and  N3_6 
REMARK    4  A    between atoms: N3_6  and  C4_7 
ROOT
ATOM      1  N3  <0> d           1.135  -1.431  -3.158  0.00  0.00    -0.360 N 
ATOM      2  H8  <0> d           0.326  -1.872  -3.464  0.00  0.00     0.162 HD
ENDROOT
BRANCH   1   3
ATOM      3  C3  <0> d           1.137  -0.755  -1.971  0.00  0.00     0.186 C 
ATOM      4  S2  <0> d           2.520  -0.002  -1.447  0.00  0.00    -0.040 SA
BRANCH   3   5
ATOM      5  N2  <0> d          -0.000  -0.698  -1.215  0.00  0.00    -0.279 N 
ATOM      6  H15 <0> d          -0.808  -1.138  -1.521  0.00  0.00     0.189 HD
BRANCH   5   7
ATOM      7  N1  <0> d           0.002  -0.004   0.002  0.00  0.00    -0.334 N 
ATOM      8  C1  <0> d          -0.018   1.461   0.010  0.00  0.00     0.170 C 
ATOM      9  C2  <0> d           0.024  -0.743   1.267  0.00  0.00     0.170 C 
ENDBRANCH   5   7
ENDBRANCH   3   5
ENDBRANCH   1   3
BRANCH   1  10
ATOM     10  C4  <0> d           2.353  -1.492  -3.969  0.00  0.00     0.098 C 
ATOM     11  C7  <0> d           1.973  -1.700  -5.454  0.00  0.00     0.165 C 
ATOM     12  S1  <0> d           3.385  -2.685  -6.100  0.00  0.00     0.146 S 
ATOM     13  C6  <0> d           4.346  -2.898  -4.543  0.00  0.00     0.142 C 
ATOM     14  O1  <0> d           2.906  -3.953  -6.525  0.00  0.00    -0.228 OA
ATOM     15  O2  <0> d           4.136  -1.883  -7.001  0.00  0.00    -0.228 OA
ATOM     16  C5  <0> d           3.230  -2.659  -3.485  0.00  0.00     0.041 C 
ENDBRANCH   1  10
TORSDOF 4
