REMARK  3 active torsions:
REMARK  status: ('A' for Active; 'I' for Inactive)
REMARK    1  A    between atoms: C3_3  and  C12_16 
REMARK    2  A    between atoms: C4_4  and  N3_8 
REMARK    3  A    between atoms: C12_16  and  O2_17 
ROOT
ATOM      1  C1  <0> d          -1.590   0.160   1.638  0.00  0.00     0.073 C 
ATOM      2  C2  <0> d          -0.670  -0.588   0.707  0.00  0.00     0.063 A 
ATOM      3  C3  <0> d          -1.055  -1.266  -0.453  0.00  0.00     0.036 A 
ATOM      4  C4  <0> d           0.063  -1.808  -1.009  0.00  0.00     0.132 A 
ATOM      5  N1  <0> d           1.112  -1.479  -0.221  0.00  0.00    -0.258 N 
ATOM      6  N2  <0> d           0.625  -0.710   0.845  0.00  0.00    -0.176 NA
ATOM      7  C5  <0> d           2.510  -1.856  -0.443  0.00  0.00     0.182 C 
ENDROOT
BRANCH   4   8
ATOM      8  N3  <0> d           0.118  -2.564  -2.177  0.00  0.00    -0.363 N 
ATOM      9  C10 <0> d           0.080  -4.011  -2.074  0.00  0.00     0.155 C 
ATOM     10  C9  <0> d          -1.396  -4.491  -2.148  0.00  0.00     0.135 C 
ATOM     11  O1  <0> d          -1.893  -4.257  -3.414  0.00  0.00    -0.385 OA
ATOM     12  C11 <0> d          -1.459  -5.989  -1.845  0.00  0.00     0.041 C 
ATOM     13  C8  <0> d          -2.002  -2.920  -3.886  0.00  0.00     0.169 C 
ATOM     14  C7  <0> d          -0.687  -2.521  -4.524  0.00  0.00     0.046 C 
ATOM     15  C6  <0> d           0.218  -1.864  -3.471  0.00  0.00     0.126 C 
ENDBRANCH   4   8
BRANCH   3  16
ATOM     16  C12 <0> d          -2.458  -1.376  -0.993  0.00  0.00     0.208 C 
BRANCH  16  17
ATOM     17  O2  <0> d          -2.658  -0.387  -2.005  0.00  0.00    -0.396 OA
ATOM     18  H21 <0> d          -3.541  -0.400  -2.398  0.00  0.00     0.209 HD
ENDBRANCH  16  17
ENDBRANCH   3  16
TORSDOF 3
