REMARK  5 active torsions:
REMARK  status: ('A' for Active; 'I' for Inactive)
REMARK    1  A    between atoms: C6_7  and  C9_10 
REMARK    2  A    between atoms: C9_10  and  C10_11 
REMARK    3  A    between atoms: C10_11  and  N2_12 
REMARK       I    between atoms: N2_12  and  C11_13 
REMARK    4  A    between atoms: C11_13  and  C12_15 
REMARK    5  A    between atoms: C16_19  and  N3_21 
ROOT
ATOM      1  N2  <0> d          -0.458  -4.798  -1.460  0.00  0.00    -0.357 N 
ATOM      2  C11 <0> d          -0.811  -5.380  -2.623  0.00  0.00     0.251 C 
ATOM      3  O1  <0> d          -0.370  -4.956  -3.674  0.00  0.00    -0.268 OA
ATOM      4  H11 <0> d          -0.810  -5.136  -0.622  0.00  0.00     0.162 HD
ENDROOT
BRANCH   2   5
ATOM      5  C12 <0> d          -1.734  -6.535  -2.622  0.00  0.00     0.034 A 
ATOM      6  C17 <0> d          -2.100  -7.139  -3.825  0.00  0.00     0.049 A 
ATOM      7  C16 <0> d          -2.961  -8.225  -3.815  0.00  0.00     0.076 A 
ATOM      8  C15 <0> d          -3.467  -8.701  -2.610  0.00  0.00     0.062 A 
ATOM      9  C14 <0> d          -3.108  -8.097  -1.418  0.00  0.00     0.027 A 
ATOM     10 Cl1  <0> d          -4.551 -10.057  -2.602  0.00  0.00    -0.082 Cl
ATOM     11  C13 <0> d          -2.246  -7.020  -1.417  0.00  0.00     0.019 A 
BRANCH   7  12
ATOM     12  N3  <0> d          -3.327  -8.838  -5.019  0.00  0.00    -0.207 N 
ATOM     13  S1  <0> d          -4.702  -8.508  -5.916  0.00  0.00     0.240 S 
ATOM     14  C20 <0> d          -4.673  -9.942  -7.065  0.00  0.00     0.173 C 
ATOM     15  O3  <0> d          -5.788  -8.608  -5.005  0.00  0.00    -0.205 OA
ATOM     16  O4  <0> d          -4.427  -7.299  -6.610  0.00  0.00    -0.205 OA
ATOM     17  C19 <0> d          -3.170 -10.312  -6.961  0.00  0.00     0.121 C 
ATOM     18  C18 <0> d          -2.640  -9.800  -5.655  0.00  0.00     0.238 C 
ATOM     19  O2  <0> d          -1.615 -10.244  -5.185  0.00  0.00    -0.272 OA
ENDBRANCH   7  12
ENDBRANCH   2   5
BRANCH   1  20
ATOM     20  C10 <0> d           0.457  -3.653  -1.462  0.00  0.00     0.127 C 
BRANCH  20  21
ATOM     21  C9  <0> d           0.691  -3.186  -0.024  0.00  0.00     0.056 C 
BRANCH  21  22
ATOM     22  C6  <0> d           1.631  -2.008  -0.025  0.00  0.00    -0.048 A 
ATOM     23  C5  <0> d           3.143  -2.053  -0.041  0.00  0.00     0.155 A 
ATOM     24  N1  <0> d           3.587  -0.654  -0.037  0.00  0.00    -0.385 N 
ATOM     25  C4  <0> d           2.529   0.120  -0.022  0.00  0.00     0.038 A 
ATOM     26  H19 <0> d           4.509  -0.353  -0.045  0.00  0.00     0.160 HD
ATOM     27  C3  <0> d           2.391   1.535  -0.013  0.00  0.00     0.030 A 
ATOM     28  C7  <0> d           1.295  -0.698  -0.014  0.00  0.00    -0.006 A 
ATOM     29  C2  <0> d           1.166   2.101   0.002  0.00  0.00     0.002 A 
ATOM     30  C1  <0> d          -0.016   1.348   0.009  0.00  0.00     0.001 A 
ATOM     31  C8  <0> d           0.002  -0.004   0.002  0.00  0.00     0.014 A 
ENDBRANCH  21  22
ENDBRANCH  20  21
ENDBRANCH   1  20
TORSDOF 5
