REMARK  4 active torsions:
REMARK  status: ('A' for Active; 'I' for Inactive)
REMARK    1  A    between atoms: C4_4  and  O1_24 
REMARK    2  A    between atoms: C5_5  and  C7_7 
REMARK    3  A    between atoms: C9_9  and  C17_19 
REMARK    4  A    between atoms: C10_11  and  C11_12 
ROOT
ATOM      1  C7  <0> d           6.144   1.363  -0.441  0.00  0.00     0.230 C 
ATOM      2  C8  <0> d           4.820   0.704  -0.034  0.00  0.00     0.098 C 
ATOM      3  C9  <0> d           3.730   1.740  -0.025  0.00  0.00     0.051 C 
ATOM      4  N1  <0> d           3.964   3.003  -0.021  0.00  0.00    -0.255 NA
ATOM      5  C10 <0> d           5.300   3.586  -0.041  0.00  0.00     0.341 C 
ATOM      6  N2  <0> d           6.309   2.593   0.357  0.00  0.00    -0.040 N 
ATOM      7  H17 <0> d           7.247   2.979   0.199  0.00  0.00     0.281 HD
ATOM      8  H18 <0> d           6.194   2.371   1.353  0.00  0.00     0.281 HD
ENDROOT
BRANCH   1   9
ATOM      9  C5  <0> d           7.286   0.421  -0.158  0.00  0.00     0.006 A 
ATOM     10  C4  <0> d           7.653  -0.528  -1.101  0.00  0.00     0.074 A 
ATOM     11  C3  <0> d           8.708  -1.390  -0.839  0.00  0.00     0.037 A 
ATOM     12  C2  <0> d           9.384  -1.308   0.362  0.00  0.00     0.003 A 
ATOM     13  C1  <0> d           9.014  -0.364   1.302  0.00  0.00     0.001 A 
ATOM     14  C6  <0> d           7.966   0.500   1.042  0.00  0.00     0.012 A 
BRANCH  10  15
ATOM     15  O1  <0> d           6.982  -0.611  -2.280  0.00  0.00    -0.360 OA
ATOM     16  H16 <0> d           7.352  -0.059  -2.982  0.00  0.00     0.217 HD
ENDBRANCH  10  15
ENDBRANCH   1   9
BRANCH   3  17
ATOM     17  C17 <0> d           2.337   1.287  -0.013  0.00  0.00     0.029 A 
ATOM     18  S1  <0> d           1.695  -0.377  -0.016  0.00  0.00    -0.100 SA
ATOM     19  C20 <0> d           0.002  -0.004   0.002  0.00  0.00     0.050 A 
ATOM     20  C19 <0> d          -0.016   1.354   0.009  0.00  0.00     0.008 A 
ATOM     21  C18 <0> d           1.174   2.041   0.002  0.00  0.00     0.021 A 
ENDBRANCH   3  17
BRANCH   5  22
ATOM     22  C11 <0> d           5.606   4.078  -1.432  0.00  0.00    -0.007 A 
ATOM     23  C16 <0> d           4.582   4.516  -2.251  0.00  0.00     0.013 A 
ATOM     24  C15 <0> d           4.862   4.967  -3.527  0.00  0.00     0.024 A 
ATOM     25  C14 <0> d           6.168   4.979  -3.985  0.00  0.00     0.034 A 
ATOM     26  C13 <0> d           7.192   4.540  -3.165  0.00  0.00     0.024 A 
ATOM     27 Cl1  <0> d           6.521   5.545  -5.588  0.00  0.00    -0.084 Cl
ATOM     28  C12 <0> d           6.911   4.095  -1.887  0.00  0.00     0.013 A 
ENDBRANCH   5  22
TORSDOF 4
