REMARK  7 active torsions:
REMARK  status: ('A' for Active; 'I' for Inactive)
REMARK    1  A    between atoms: C6_6  and  N1_8 
REMARK       I    between atoms: N1_8  and  C8_9 
REMARK    2  A    between atoms: C8_9  and  C9_11 
REMARK       I    between atoms: C9_11  and  N2_13 
REMARK    3  A    between atoms: N2_13  and  C10_14 
REMARK    4  A    between atoms: C10_14  and  C11_15 
REMARK    5  A    between atoms: C11_15  and  C12_16 
REMARK    6  A    between atoms: C11_15  and  N4_36 
REMARK    7  A    between atoms: C15_19  and  N3_22 
ROOT
ATOM      1  C11 <0> d           3.618  10.106   0.421  0.00  0.00     0.239 C 
ENDROOT
BRANCH   1   2
ATOM      2  C10 <0> d           2.601   8.978   0.603  0.00  0.00     0.161 C 
BRANCH   2   3
ATOM      3  N2  <0> d           3.126   7.747   0.009  0.00  0.00    -0.351 N 
ATOM      4  C9  <0> d           2.358   6.640  -0.037  0.00  0.00     0.309 C 
ATOM      5  O2  <0> d           1.232   6.664   0.415  0.00  0.00    -0.262 OA
ATOM      6  H10 <0> d           4.026   7.728  -0.352  0.00  0.00     0.162 HD
BRANCH   4   7
ATOM      7  C8  <0> d           2.893   5.384  -0.643  0.00  0.00     0.313 C 
ATOM      8  N1  <0> d           2.125   4.277  -0.689  0.00  0.00    -0.319 N 
ATOM      9  H9  <0> d           1.202   4.316  -0.396  0.00  0.00     0.169 HD
ATOM     10  O1  <0> d           4.019   5.361  -1.095  0.00  0.00    -0.262 OA
BRANCH   8  11
ATOM     11  C6  <0> d           2.660   3.075  -1.159  0.00  0.00     0.035 A 
ATOM     12  C5  <0> d           1.855   2.178  -1.849  0.00  0.00     0.029 A 
ATOM     13  C4  <0> d           2.387   0.991  -2.313  0.00  0.00     0.003 A 
ATOM     14  C3  <0> d           3.719   0.694  -2.090  0.00  0.00     0.007 A 
ATOM     15  C2  <0> d           4.522   1.583  -1.398  0.00  0.00    -0.060 A 
ATOM     16  C1  <0> d           5.972   1.252  -1.151  0.00  0.00     0.048 C 
ATOM     17  C7  <0> d           3.998   2.774  -0.936  0.00  0.00     0.036 A 
ENDBRANCH   8  11
ENDBRANCH   4   7
ENDBRANCH   2   3
ENDBRANCH   1   2
BRANCH   1  18
ATOM     18  C12 <0> d           3.143  11.334   1.155  0.00  0.00    -0.026 A 
ATOM     19  C17 <0> d           3.057  12.544   0.490  0.00  0.00     0.011 A 
ATOM     20  C16 <0> d           2.622  13.671   1.160  0.00  0.00     0.030 A 
ATOM     21  C15 <0> d           2.272  13.589   2.501  0.00  0.00     0.029 A 
ATOM     22  C14 <0> d           2.360  12.372   3.166  0.00  0.00     0.030 A 
ATOM     23  C13 <0> d           2.790  11.248   2.489  0.00  0.00     0.011 A 
BRANCH  21  24
ATOM     24  N3  <0> d           1.831  14.727   3.181  0.00  0.00    -0.390 N 
ATOM     25  C18 <0> d           1.738  16.009   2.479  0.00  0.00     0.149 C 
ATOM     26  C19 <0> d           1.462  14.638   4.596  0.00  0.00     0.149 C 
ENDBRANCH  21  24
ENDBRANCH   1  18
BRANCH   1  27
ATOM     27  N4  <0> d           4.928   9.666   0.952  0.00  0.00    -0.057 N 
ATOM     28  C20 <0> d           4.808   9.334   2.386  0.00  0.00     0.240 C 
ATOM     29  C21 <0> d           6.067   8.569   2.796  0.00  0.00     0.067 C 
ATOM     30  C22 <0> d           7.295   9.327   2.361  0.00  0.00    -0.049 A 
ATOM     31  C27 <0> d           7.230  10.329   1.417  0.00  0.00    -0.026 A 
ATOM     32  C23 <0> d           8.514   8.996   2.934  0.00  0.00     0.007 A 
ATOM     33  C26 <0> d           8.386  10.997   1.042  0.00  0.00     0.009 A 
ATOM     34  C28 <0> d           5.929  10.731   0.773  0.00  0.00     0.274 C 
ATOM     35  C25 <0> d           9.599  10.667   1.613  0.00  0.00     0.001 A 
ATOM     36  C24 <0> d           9.663   9.664   2.562  0.00  0.00     0.001 A 
ATOM     37  H33 <0> d           5.232   8.830   0.439  0.00  0.00     0.281 HD
ENDBRANCH   1  27
TORSDOF 7
