REMARK  6 active torsions:
REMARK  status: ('A' for Active; 'I' for Inactive)
REMARK    1  A    between atoms: N1_2  and  C3_4 
REMARK    2  A    between atoms: C3_4  and  C4_5 
REMARK    3  A    between atoms: C3_4  and  C14_21 
REMARK    4  A    between atoms: C4_5  and  N2_6 
REMARK    5  A    between atoms: C6_8  and  N3_13 
REMARK    6  A    between atoms: N4_16  and  C13_19 
ROOT
ATOM      1  N2  <0> d           2.135  -1.914  -0.134  0.00  0.00    -0.285 NA
ATOM      2  C5  <0> d           3.401  -2.160  -0.159  0.00  0.00     0.123 C 
ATOM      3  C6  <0> d           4.426  -2.514  -1.215  0.00  0.00     0.355 C 
ATOM      4  C7  <0> d           5.442  -1.895  -0.280  0.00  0.00     0.240 C 
ATOM      5  O1  <0> d           6.525  -1.370  -0.387  0.00  0.00    -0.286 OA
ATOM      6  C8  <0> d           4.504  -2.216   0.836  0.00  0.00     0.246 C 
ATOM      7  O2  <0> d           4.601  -2.428   2.026  0.00  0.00    -0.282 OA
ENDROOT
BRANCH   1   8
ATOM      8  C4  <0> d           1.476  -1.590   1.134  0.00  0.00     0.187 C 
BRANCH   8   9
ATOM      9  C3  <0> d           0.957  -0.152   1.087  0.00  0.00     0.239 C 
BRANCH   9  10
ATOM     10  N1  <0> d          -0.061  -0.033   0.035  0.00  0.00    -0.069 N 
ATOM     11  C1  <0> d          -0.656   1.309   0.079  0.00  0.00     0.270 C 
ATOM     12  C2  <0> d           0.563  -0.250  -1.277  0.00  0.00     0.270 C 
ATOM     13  H25 <0> d          -0.780  -0.725   0.183  0.00  0.00     0.279 HD
ENDBRANCH   9  10
BRANCH   9  14
ATOM     14  C14 <0> d           0.348   0.207   2.418  0.00  0.00    -0.026 A 
ATOM     15  C19 <0> d           1.072   0.951   3.331  0.00  0.00     0.009 A 
ATOM     16  C18 <0> d           0.512   1.284   4.550  0.00  0.00     0.001 A 
ATOM     17  C17 <0> d          -0.768   0.864   4.860  0.00  0.00     0.000 A 
ATOM     18  C16 <0> d          -1.490   0.115   3.950  0.00  0.00     0.001 A 
ATOM     19  C15 <0> d          -0.931  -0.214   2.729  0.00  0.00     0.009 A 
ENDBRANCH   9  14
ENDBRANCH   8   9
ENDBRANCH   1   8
BRANCH   3  20
ATOM     20  N3  <0> d           4.603  -3.959  -1.410  0.00  0.00     0.110 N 
ATOM     21  C12 <0> d           5.519  -4.232  -2.525  0.00  0.00     0.293 C 
ATOM     22  C11 <0> d           5.535  -5.737  -2.812  0.00  0.00     0.155 C 
ATOM     23  N4  <0> d           5.848  -6.447  -1.562  0.00  0.00    -0.356 N 
ATOM     24  C10 <0> d           5.060  -6.125  -0.363  0.00  0.00     0.155 C 
ATOM     25  C9  <0> d           5.062  -4.605  -0.173  0.00  0.00     0.293 C 
BRANCH  23  26
ATOM     26  C13 <0> d           6.830  -7.369  -1.517  0.00  0.00     0.350 C 
ATOM     27  O3  <0> d           7.470  -7.622  -2.516  0.00  0.00    -0.284 OA
ENDBRANCH  23  26
ENDBRANCH   3  20
TORSDOF 6
