REMARK  5 active torsions:
REMARK  status: ('A' for Active; 'I' for Inactive)
REMARK    1  A    between atoms: C2_2  and  C3_3 
REMARK    2  A    between atoms: C3_3  and  N1_4 
REMARK    3  A    between atoms: N1_4  and  C4_5 
REMARK    4  A    between atoms: N1_4  and  C11_18 
REMARK    5  A    between atoms: C4_5  and  C5_6 
ROOT
ATOM      1  C5  <0> d           0.547  -2.142  -3.612  0.00  0.00     0.137 A 
ATOM      2  N2  <0> d           0.925  -2.542  -4.852  0.00  0.00    -0.309 N 
ATOM      3  H1  <0> d           1.753  -3.033  -4.970  0.00  0.00     0.170 HD
ATOM      4  C6  <0> d           0.150  -2.260  -5.926  0.00  0.00     0.262 A 
ATOM      5  O1  <0> d           0.472  -2.611  -7.047  0.00  0.00    -0.267 OA
ATOM      6  C7  <0> d          -1.088  -1.518  -5.689  0.00  0.00     0.099 A 
ATOM      7  C8  <0> d          -2.129  -1.045  -6.509  0.00  0.00     0.160 A 
ATOM      8  N3  <0> d          -3.000  -0.434  -5.755  0.00  0.00    -0.182 NA
ATOM      9  N4  <0> d          -2.576  -0.478  -4.421  0.00  0.00    -0.256 N 
ATOM     10  C9  <0> d          -1.394  -1.146  -4.371  0.00  0.00     0.165 A 
ATOM     11  N5  <0> d          -0.552  -1.485  -3.382  0.00  0.00    -0.213 NA
ATOM     12  C10 <0> d          -3.285   0.098  -3.276  0.00  0.00     0.182 C 
ENDROOT
BRANCH   1  13
ATOM     13  C4  <0> d           1.440  -2.478  -2.446  0.00  0.00     0.351 C 
BRANCH  13  14
ATOM     14  N1  <0> d           0.844  -1.960  -1.207  0.00  0.00     0.101 N 
BRANCH  14  15
ATOM     15  C3  <0> d           1.037  -0.508  -1.097  0.00  0.00     0.273 C 
BRANCH  15  16
ATOM     16  C2  <0> d           0.102   0.051  -0.022  0.00  0.00     0.026 C 
ATOM     17  C1  <0> d           0.209   1.577   0.003  0.00  0.00     0.007 C 
ENDBRANCH  15  16
ENDBRANCH  14  15
BRANCH  14  18
ATOM     18  C11 <0> d           1.387  -2.654  -0.031  0.00  0.00     0.238 C 
ATOM     19  C14 <0> d           2.933  -2.587  -0.063  0.00  0.00     0.176 C 
ATOM     20  S1  <0> d           3.423  -4.163   0.746  0.00  0.00     0.146 S 
ATOM     21  C13 <0> d           1.756  -4.900   1.014  0.00  0.00     0.142 C 
ATOM     22  O2  <0> d           4.136  -4.960  -0.190  0.00  0.00    -0.228 OA
ATOM     23  O3  <0> d           4.010  -3.874   2.008  0.00  0.00    -0.228 OA
ATOM     24  C12 <0> d           0.927  -4.121  -0.046  0.00  0.00     0.052 C 
ENDBRANCH  14  18
ENDBRANCH  13  14
ENDBRANCH   1  13
TORSDOF 5
