REMARK  6 active torsions:
REMARK  status: ('A' for Active; 'I' for Inactive)
REMARK    1  A    between atoms: C2_2  and  C5_7 
REMARK       I    between atoms: C5_7  and  N1_9 
REMARK    2  A    between atoms: N1_9  and  C6_10 
REMARK    3  A    between atoms: C6_10  and  C7_11 
REMARK    4  A    between atoms: C7_11  and  C8_12 
REMARK    5  A    between atoms: C7_11  and  O4_21 
REMARK    6  A    between atoms: C11_15  and  N2_18 
ROOT
ATOM      1  C7  <0> d          -5.034   4.022   0.048  0.00  0.00     0.169 C 
ENDROOT
BRANCH   1   2
ATOM      2  C6  <0> d          -5.425   4.388  -1.385  0.00  0.00     0.159 C 
BRANCH   2   3
ATOM      3  N1  <0> d          -6.703   5.103  -1.375  0.00  0.00    -0.358 N 
ATOM      4  C5  <0> d          -7.247   5.527  -2.533  0.00  0.00     0.229 C 
ATOM      5  O1  <0> d          -6.678   5.317  -3.583  0.00  0.00    -0.273 OA
ATOM      6  H7  <0> d          -7.219   5.294  -0.423  0.00  0.00     0.162 HD
BRANCH   4   7
ATOM      7  C2  <0> d          -8.562   6.263  -2.523  0.00  0.00     0.075 A 
ATOM      8  C1  <0> d          -8.802   7.170  -1.315  0.00  0.00     0.029 C 
ATOM      9  C4  <0> d          -9.129   6.717  -3.870  0.00  0.00     0.130 A 
ATOM     10  C3  <0> d          -9.776   5.549  -3.121  0.00  0.00     0.065 A 
ATOM     11 Cl1  <0> d         -10.027   8.279  -3.912  0.00  0.00    -0.100 Cl
ATOM     12 Cl2  <0> d          -8.171   6.331  -5.348  0.00  0.00    -0.100 Cl
ENDBRANCH   4   7
ENDBRANCH   2   3
ENDBRANCH   1   2
BRANCH   1  13
ATOM     13  C8  <0> d          -3.719   3.286   0.038  0.00  0.00    -0.028 A 
ATOM     14  C13 <0> d          -2.531   3.993   0.037  0.00  0.00     0.012 A 
ATOM     15  C12 <0> d          -1.325   3.319   0.032  0.00  0.00     0.037 A 
ATOM     16  C11 <0> d          -1.306   1.936   0.019  0.00  0.00     0.102 A 
ATOM     17  C10 <0> d          -2.494   1.229   0.021  0.00  0.00     0.037 A 
ATOM     18  C9  <0> d          -3.700   1.904   0.030  0.00  0.00     0.012 A 
BRANCH  16  19
ATOM     19  N2  <0> d          -0.014   1.214   0.009  0.00  0.00    -0.116 N 
ATOM     20  O2  <0> d           0.002  -0.004   0.002  0.00  0.00    -0.532 OA
ATOM     21  O3  <0> d           1.032   1.837   0.002  0.00  0.00    -0.532 OA
ENDBRANCH  16  19
ENDBRANCH   1  13
BRANCH   1  22
ATOM     22  O4  <0> d          -4.907   5.213   0.827  0.00  0.00    -0.389 OA
ATOM     23  H14 <0> d          -4.631   5.149   1.889  0.00  0.00     0.210 HD
ENDBRANCH   1  22
TORSDOF 6
