REMARK  6 active torsions:
REMARK  status: ('A' for Active; 'I' for Inactive)
REMARK    1  A    between atoms: C2_2  and  C3_3 
REMARK    2  A    between atoms: C2_2  and  N2_10 
REMARK       I    between atoms: C3_3  and  N1_5 
REMARK    3  A    between atoms: N1_5  and  C4_6 
REMARK    4  A    between atoms: C4_6  and  C5_7 
REMARK    5  A    between atoms: C5_7  and  O2_8 
REMARK    6  A    between atoms: C13_18  and  C14_19 
ROOT
ATOM      1  N2  <0> d           0.986  -0.867   0.670  0.00  0.00    -0.040 N 
ATOM      2  C7  <0> d           0.563  -1.098   2.058  0.00  0.00     0.242 C 
ATOM      3  C8  <0> d           1.737  -1.711   2.840  0.00  0.00     0.074 C 
ATOM      4  C9  <0> d           2.298  -2.821   2.012  0.00  0.00    -0.007 A 
ATOM      5  C10 <0> d           2.036  -3.062   0.697  0.00  0.00    -0.003 A 
ATOM      6  C11 <0> d           2.670  -4.163   0.128  0.00  0.00     0.018 A 
ATOM      7  C12 <0> d           3.499  -4.928   0.876  0.00  0.00     0.051 A 
ATOM      8  S1  <0> d           3.424  -4.110   2.463  0.00  0.00    -0.106 SA
ATOM      9  C13 <0> d           1.090  -2.136  -0.061  0.00  0.00     0.323 C 
ATOM     10  H20 <0> d           1.884  -0.409   0.669  0.00  0.00     0.282 HD
ENDROOT
BRANCH   1  11
ATOM     11  C2  <0> d           0.002  -0.004   0.002  0.00  0.00     0.276 C 
ATOM     12  C1  <0> d          -0.172   1.287   0.805  0.00  0.00     0.050 C 
BRANCH  11  13
ATOM     13  C3  <0> d          -1.319  -0.723  -0.086  0.00  0.00     0.248 C 
ATOM     14  O1  <0> d          -1.632  -1.524   0.769  0.00  0.00    -0.271 OA
ATOM     15  N1  <0> d          -2.154  -0.475  -1.115  0.00  0.00    -0.357 N 
ATOM     16  H6  <0> d          -1.904   0.166  -1.799  0.00  0.00     0.162 HD
BRANCH  15  17
ATOM     17  C4  <0> d          -3.439  -1.174  -1.200  0.00  0.00     0.148 C 
BRANCH  17  18
ATOM     18  C5  <0> d          -4.187  -0.714  -2.453  0.00  0.00     0.186 C 
BRANCH  18  19
ATOM     19  O2  <0> d          -3.461  -1.115  -3.616  0.00  0.00    -0.394 OA
ATOM     20  C6  <0> d          -4.077  -0.733  -4.847  0.00  0.00     0.201 C 
ENDBRANCH  18  19
ENDBRANCH  17  18
ENDBRANCH  15  17
ENDBRANCH  11  13
ENDBRANCH   1  11
BRANCH   9  21
ATOM     21  C14 <0> d           1.634  -1.879  -1.443  0.00  0.00     0.209 C 
ATOM     22  O3  <0> d           2.394  -0.945  -1.636  0.00  0.00    -0.646 OA
ATOM     23  O4  <0> d           1.314  -2.605  -2.369  0.00  0.00    -0.646 OA
ENDBRANCH   9  21
TORSDOF 6
