REMARK  5 active torsions:
REMARK  status: ('A' for Active; 'I' for Inactive)
REMARK    1  A    between atoms: C3_3  and  C5_6 
REMARK    2  A    between atoms: C5_6  and  O2_8 
REMARK    3  A    between atoms: O2_8  and  C6_9 
REMARK    4  A    between atoms: C9_12  and  C12_15 
REMARK    5  A    between atoms: C17_25  and  N5_27 
ROOT
ATOM      1  C12 <0> d          10.124   2.112  -0.008  0.00  0.00     0.032 C 
ATOM      2  C13 <0> d          11.080   1.136  -0.174  0.00  0.00     0.082 C 
ATOM      3  C14 <0> d          10.722  -0.308  -0.263  0.00  0.00     0.162 C 
ATOM      4  N1  <0> d           9.611  -0.740  -0.800  0.00  0.00    -0.281 NA
ATOM      5  N2  <0> d          11.698  -1.163   0.289  0.00  0.00    -0.188 N 
ATOM      6  C15 <0> d          12.988  -0.687   0.369  0.00  0.00     0.202 A 
ATOM      7  N3  <0> d          13.415   0.517   0.079  0.00  0.00    -0.182 NA
ATOM      8  C16 <0> d          12.524   1.465  -0.280  0.00  0.00     0.283 C 
ATOM      9  O3  <0> d          12.892   2.559  -0.675  0.00  0.00    -0.265 OA
ATOM     10  S2  <0> d          13.872  -2.100   0.974  0.00  0.00    -0.010 SA
ATOM     11  C17 <0> d          12.468  -3.188   1.175  0.00  0.00     0.192 A 
ATOM     12  N4  <0> d          11.478  -2.444   0.749  0.00  0.00    -0.138 NA
ATOM     13  H9  <0> d           9.394  -1.685  -0.770  0.00  0.00     0.188 HD
ENDROOT
BRANCH   1  14
ATOM     14  C9  <0> d           8.735   1.737   0.270  0.00  0.00    -0.035 A 
ATOM     15  C8  <0> d           7.682   2.444  -0.328  0.00  0.00     0.014 A 
ATOM     16  C7  <0> d           6.385   2.088  -0.064  0.00  0.00     0.038 A 
ATOM     17  C6  <0> d           6.112   1.028   0.795  0.00  0.00     0.079 A 
ATOM     18  C11 <0> d           7.153   0.327   1.395  0.00  0.00     0.038 A 
ATOM     19  C10 <0> d           8.454   0.670   1.135  0.00  0.00     0.014 A 
BRANCH  17  20
ATOM     20  O2  <0> d           4.826   0.680   1.052  0.00  0.00    -0.275 OA
BRANCH  20  21
ATOM     21  C5  <0> d           4.165  -0.037   0.120  0.00  0.00     0.305 C 
ATOM     22  O1  <0> d           4.692  -0.276  -0.950  0.00  0.00    -0.258 OA
BRANCH  21  23
ATOM     23  C3  <0> d           2.814  -0.527   0.395  0.00  0.00     0.080 A 
ATOM     24  C2  <0> d           1.971  -1.273  -0.417  0.00  0.00     0.025 A 
ATOM     25  C1  <0> d           0.748  -1.588   0.123  0.00  0.00     0.009 A 
ATOM     26  C4  <0> d           0.450  -1.162   1.376  0.00  0.00     0.050 A 
ATOM     27  S1  <0> d           1.821  -0.322   1.862  0.00  0.00    -0.096 SA
ENDBRANCH  21  23
ENDBRANCH  20  21
ENDBRANCH  17  20
ENDBRANCH   1  14
BRANCH  11  28
ATOM     28  N5  <0> d          12.435  -4.486   1.658  0.00  0.00    -0.355 N 
ATOM     29  C21 <0> d          13.666  -5.163   2.094  0.00  0.00     0.151 C 
ATOM     30  C20 <0> d          13.739  -6.530   1.413  0.00  0.00     0.187 C 
ATOM     31  O4  <0> d          12.515  -7.234   1.633  0.00  0.00    -0.388 OA
ATOM     32  C19 <0> d          11.364  -6.596   1.074  0.00  0.00     0.187 C 
ATOM     33  C18 <0> d          11.168  -5.231   1.744  0.00  0.00     0.151 C 
ENDBRANCH  11  28
TORSDOF 5
