REMARK  9 active torsions:
REMARK  status: ('A' for Active; 'I' for Inactive)
REMARK    1  A    between atoms: C2_2  and  C3_3 
REMARK    2  A    between atoms: C3_3  and  C4_4 
REMARK    3  A    between atoms: C3_3  and  N6_32 
REMARK    4  A    between atoms: C5_7  and  S1_16 
REMARK    5  A    between atoms: N3_8  and  C6_9 
REMARK    6  A    between atoms: C6_9  and  C7_10 
REMARK    7  A    between atoms: S1_16  and  C13_17 
REMARK    8  A    between atoms: C13_17  and  C14_18 
REMARK    9  A    between atoms: C13_17  and  C17_21 
REMARK       I    between atoms: C17_21  and  N4_23 
REMARK       I    between atoms: N4_23  and  C18_24 
REMARK       I    between atoms: C18_24  and  N5_26 
ROOT
ATOM      1  C4  <0> d          -3.536   1.422   1.411  0.00  0.00     0.162 A 
ATOM      2  N1  <0> d          -3.478   0.571   2.396  0.00  0.00    -0.132 NA
ATOM      3  N2  <0> d          -2.460  -0.201   2.253  0.00  0.00    -0.122 NA
ATOM      4  C5  <0> d          -1.811   0.116   1.157  0.00  0.00     0.192 A 
ATOM      5  N3  <0> d          -2.474   1.166   0.588  0.00  0.00    -0.305 N 
ENDROOT
BRANCH   4   6
ATOM      6  S1  <0> d          -0.356  -0.662   0.538  0.00  0.00    -0.075 SA
BRANCH   6   7
ATOM      7  C13 <0> d          -0.183  -2.005   1.740  0.00  0.00     0.151 C 
BRANCH   7   8
ATOM      8  C14 <0> d           0.893  -2.982   1.262  0.00  0.00     0.001 C 
ATOM      9  C15 <0> d           1.066  -4.096   2.297  0.00  0.00     0.011 C 
ATOM     10  C16 <0> d           0.471  -3.590  -0.077  0.00  0.00     0.011 C 
ENDBRANCH   7   8
BRANCH   7  11
ATOM     11  C17 <0> d           0.215  -1.433   3.077  0.00  0.00     0.240 C 
ATOM     12  O1  <0> d           0.714  -0.330   3.140  0.00  0.00    -0.272 OA
ATOM     13  N4  <0> d           0.018  -2.149   4.202  0.00  0.00    -0.278 N 
ATOM     14  C18 <0> d           0.374  -1.638   5.397  0.00  0.00     0.320 C 
ATOM     15  H22 <0> d          -0.381  -3.032   4.151  0.00  0.00     0.173 HD
ATOM     16  O2  <0> d           0.873  -0.532   5.460  0.00  0.00    -0.247 OA
ATOM     17  N5  <0> d           0.176  -2.354   6.522  0.00  0.00    -0.352 N 
ATOM     18  H23 <0> d          -0.223  -3.237   6.471  0.00  0.00     0.160 HD
ATOM     19  H24 <0> d           0.432  -1.986   7.382  0.00  0.00     0.160 HD
ENDBRANCH   7  11
ENDBRANCH   6   7
ENDBRANCH   4   6
BRANCH   5  20
ATOM     20  C6  <0> d          -2.125   1.867  -0.650  0.00  0.00     0.171 C 
BRANCH  20  21
ATOM     21  C7  <0> d          -1.209   3.021  -0.332  0.00  0.00    -0.040 A 
ATOM     22  C12 <0> d          -1.738   4.265  -0.044  0.00  0.00     0.009 A 
ATOM     23  C11 <0> d          -0.898   5.324   0.242  0.00  0.00     0.001 A 
ATOM     24  C10 <0> d           0.472   5.139   0.245  0.00  0.00     0.000 A 
ATOM     25  C9  <0> d           1.001   3.894  -0.038  0.00  0.00     0.001 A 
ATOM     26  C8  <0> d           0.161   2.834  -0.324  0.00  0.00     0.009 A 
ENDBRANCH  20  21
ENDBRANCH   5  20
BRANCH   1  27
ATOM     27  C3  <0> d          -4.579   2.492   1.216  0.00  0.00     0.258 C 
BRANCH  27  28
ATOM     28  C2  <0> d          -5.883   1.850   0.736  0.00  0.00     0.037 C 
ATOM     29  C1  <0> d          -5.660   1.205  -0.634  0.00  0.00     0.007 C 
ENDBRANCH  27  28
BRANCH  27  30
ATOM     30  N6  <0> d          -4.789   3.193   2.500  0.00  0.00    -0.068 N 
ATOM     31  C19 <0> d          -5.595   4.413   2.283  0.00  0.00     0.270 C 
ATOM     32  C20 <0> d          -5.473   2.299   3.458  0.00  0.00     0.270 C 
ATOM     33  H31 <0> d          -3.876   3.461   2.886  0.00  0.00     0.279 HD
ENDBRANCH  27  30
ENDBRANCH   1  27
TORSDOF 9
