REMARK  6 active torsions:
REMARK  status: ('A' for Active; 'I' for Inactive)
REMARK    1  A    between atoms: C2_2  and  C3_3 
REMARK    2  A    between atoms: C3_3  and  C4_4 
REMARK    3  A    between atoms: C3_3  and  N5_21 
REMARK    4  A    between atoms: C4_4  and  C5_5 
REMARK    5  A    between atoms: C4_4  and  N3_11 
REMARK    6  A    between atoms: C11_15  and  C12_16 
ROOT
ATOM      1  C4  <0> d           0.849  -2.021  -1.205  0.00  0.00     0.157 C 
ENDROOT
BRANCH   1   2
ATOM      2  C3  <0> d           0.718  -0.497  -1.257  0.00  0.00     0.211 C 
BRANCH   2   3
ATOM      3  C2  <0> d           0.002  -0.004   0.002  0.00  0.00     0.030 C 
ATOM      4  C1  <0> d          -0.019   1.526   0.010  0.00  0.00     0.007 C 
ENDBRANCH   2   3
BRANCH   2   5
ATOM      5  N5  <0> d          -0.057  -0.113  -2.444  0.00  0.00    -0.073 N 
ATOM      6  H18 <0> d          -0.143   0.892  -2.478  0.00  0.00     0.274 HD
ATOM      7  H19 <0> d           0.415  -0.438  -3.274  0.00  0.00     0.274 HD
ATOM      8  H20 <0> d          -0.975  -0.528  -2.395  0.00  0.00     0.274 HD
ENDBRANCH   2   5
ENDBRANCH   1   2
BRANCH   1   9
ATOM      9  C5  <0> d           1.645  -2.416   0.013  0.00  0.00     0.003 A 
ATOM     10  C7  <0> d           1.213  -3.203   1.025  0.00  0.00     0.122 A 
ATOM     11  N2  <0> d           2.220  -3.317   1.916  0.00  0.00    -0.285 N 
ATOM     12  N1  <0> d           3.303  -2.567   1.440  0.00  0.00    -0.185 NA
ATOM     13  C8  <0> d           2.184  -4.083   3.164  0.00  0.00     0.179 C 
ATOM     14  C6  <0> d           2.958  -2.028   0.299  0.00  0.00     0.149 A 
ENDBRANCH   1   9
BRANCH   1  15
ATOM     15  N3  <0> d           1.535  -2.493  -2.410  0.00  0.00    -0.328 N 
ATOM     16  C11 <0> d           1.037  -3.360  -3.342  0.00  0.00     0.147 A 
ATOM     17  N4  <0> d           1.952  -3.533  -4.274  0.00  0.00    -0.240 NA
ATOM     18  C10 <0> d           3.036  -2.810  -3.969  0.00  0.00     0.136 A 
ATOM     19  C9  <0> d           2.801  -2.155  -2.815  0.00  0.00     0.113 A 
BRANCH  16  20
ATOM     20  C12 <0> d          -0.293  -3.988  -3.312  0.00  0.00     0.051 A 
ATOM     21  S1  <0> d          -1.449  -4.111  -1.956  0.00  0.00    -0.098 SA
ATOM     22  C15 <0> d          -2.742  -5.000  -2.807  0.00  0.00     0.050 A 
ATOM     23  C14 <0> d          -2.215  -5.151  -4.050  0.00  0.00     0.009 A 
ATOM     24  C13 <0> d          -0.966  -4.638  -4.316  0.00  0.00     0.023 A 
ENDBRANCH  16  20
ENDBRANCH   1  15
TORSDOF 6
