REMARK  6 active torsions:
REMARK  status: ('A' for Active; 'I' for Inactive)
REMARK    1  A    between atoms: C2_2  and  O1_3 
REMARK    2  A    between atoms: O1_3  and  C3_4 
REMARK    3  A    between atoms: C4_5  and  C8_10 
REMARK    4  A    between atoms: C8_10  and  N2_11 
REMARK    5  A    between atoms: N2_11  and  S1_12 
REMARK    6  A    between atoms: S1_12  and  N3_15 
ROOT
ATOM      1  N2  <0> d          -1.842  -0.826  -1.344  0.00  0.00    -0.298 N 
ATOM      2  H13 <0> d          -1.588  -0.036  -2.067  0.00  0.00     0.174 HD
ENDROOT
BRANCH   1   3
ATOM      3  C8  <0> d          -1.287  -0.785   0.011  0.00  0.00     0.176 C 
BRANCH   3   4
ATOM      4  C4  <0> d           0.002  -0.004   0.002  0.00  0.00     0.013 A 
ATOM      5  C3  <0> d          -0.017   1.385   0.010  0.00  0.00     0.172 A 
ATOM      6  N1  <0> d           1.112   2.074   0.003  0.00  0.00    -0.237 NA
ATOM      7  C7  <0> d           2.288   1.476  -0.012  0.00  0.00     0.119 A 
ATOM      8  C6  <0> d           2.382   0.099  -0.020  0.00  0.00     0.020 A 
ATOM      9  C5  <0> d           1.220  -0.661  -0.013  0.00  0.00     0.014 A 
BRANCH   5  10
ATOM     10  O1  <0> d          -1.204   2.041   0.019  0.00  0.00    -0.334 OA
BRANCH  10  11
ATOM     11  C2  <0> d          -1.157   3.469   0.026  0.00  0.00     0.173 C 
ATOM     12  C1  <0> d          -2.582   4.027   0.036  0.00  0.00     0.034 C 
ENDBRANCH  10  11
ENDBRANCH   5  10
ENDBRANCH   3   4
ENDBRANCH   1   3
BRANCH   1  13
ATOM     13  S1  <0> d          -3.038  -1.909  -1.717  0.00  0.00     0.317 S 
ATOM     14  O2  <0> d          -3.378  -1.686  -3.078  0.00  0.00    -0.183 OA
ATOM     15  O3  <0> d          -2.603  -3.175  -1.238  0.00  0.00    -0.183 OA
BRANCH  13  16
ATOM     16  N3  <0> d          -4.369  -1.496  -0.822  0.00  0.00    -0.289 N 
ATOM     17  C12 <0> d          -5.370  -0.553  -1.345  0.00  0.00     0.168 C 
ATOM     18  C11 <0> d          -5.619   0.525  -0.285  0.00  0.00     0.136 C 
ATOM     19  O4  <0> d          -5.928  -0.102   0.962  0.00  0.00    -0.378 OA
ATOM     20  C13 <0> d          -4.364   1.385  -0.126  0.00  0.00     0.041 C 
ATOM     21  C10 <0> d          -4.872  -0.909   1.489  0.00  0.00     0.136 C 
ATOM     22  C9  <0> d          -4.588  -2.066   0.517  0.00  0.00     0.168 C 
ATOM     23  C14 <0> d          -5.291  -1.475   2.847  0.00  0.00     0.041 C 
ENDBRANCH  13  16
ENDBRANCH   1  13
TORSDOF 6
