REMARK  6 active torsions:
REMARK  status: ('A' for Active; 'I' for Inactive)
REMARK    1  A    between atoms: C2_2  and  C3_3 
REMARK    2  A    between atoms: C3_3  and  C4_4 
REMARK    3  A    between atoms: C4_4  and  C5_5 
REMARK    4  A    between atoms: C4_4  and  N3_22 
REMARK       I    between atoms: C5_5  and  N1_7 
REMARK    5  A    between atoms: N1_7  and  C7_9 
REMARK    6  A    between atoms: N2_12  and  C12_15 
REMARK       I    between atoms: N3_22  and  C19_23 
REMARK       I    between atoms: C19_23  and  N4_25 
ROOT
ATOM      1  C5  <0> d           1.445  -2.402   2.405  0.00  0.00     0.242 C 
ATOM      2  O1  <0> d           0.959  -2.115   1.332  0.00  0.00    -0.271 OA
ATOM      3  N1  <0> d           0.747  -2.194   3.539  0.00  0.00    -0.350 N 
ATOM      4  C6  <0> d          -0.638  -1.721   3.470  0.00  0.00     0.153 C 
ENDROOT
BRANCH   3   5
ATOM      5  C7  <0> d           1.373  -2.441   4.840  0.00  0.00     0.089 C 
ATOM      6  C11 <0> d           0.507  -3.410   5.649  0.00  0.00     0.053 C 
ATOM      7  C10 <0> d           1.124  -3.602   7.036  0.00  0.00     0.237 C 
ATOM      8  N2  <0> d           1.191  -2.309   7.729  0.00  0.00    -0.067 N 
ATOM      9  C9  <0> d           2.078  -1.397   6.996  0.00  0.00     0.237 C 
ATOM     10  H37 <0> d           0.266  -1.908   7.780  0.00  0.00     0.280 HD
ATOM     11  C8  <0> d           1.497  -1.121   5.607  0.00  0.00     0.053 C 
BRANCH   8  12
ATOM     12  C12 <0> d           1.712  -2.509   9.087  0.00  0.00     0.188 C 
ATOM     13  C17 <0> d           1.773  -1.164   9.813  0.00  0.00     0.033 C 
ATOM     14  C16 <0> d           2.316  -1.373  11.229  0.00  0.00     0.006 C 
ATOM     15  C15 <0> d           1.393  -2.323  11.994  0.00  0.00    -0.019 C 
ATOM     16  C14 <0> d           1.331  -3.669  11.268  0.00  0.00     0.006 C 
ATOM     17  C18 <0> d          -0.011  -1.720  12.069  0.00  0.00     0.010 C 
ATOM     18  C13 <0> d           0.789  -3.460   9.852  0.00  0.00     0.033 C 
ENDBRANCH   8  12
ENDBRANCH   3   5
BRANCH   1  19
ATOM     19  C4  <0> d           2.831  -2.992   2.471  0.00  0.00     0.178 C 
BRANCH  19  20
ATOM     20  C3  <0> d           2.732  -4.499   2.712  0.00  0.00     0.034 C 
BRANCH  20  21
ATOM     21  C2  <0> d           4.136  -5.080   2.887  0.00  0.00    -0.002 C 
ATOM     22  C1  <0> d           4.038  -6.588   3.128  0.00  0.00     0.005 C 
ENDBRANCH  20  21
ENDBRANCH  19  20
BRANCH  19  23
ATOM     23  N3  <0> d           3.527  -2.744   1.206  0.00  0.00    -0.330 N 
ATOM     24  C19 <0> d           4.874  -2.706   1.175  0.00  0.00     0.314 C 
ATOM     25  O2  <0> d           5.511  -2.878   2.197  0.00  0.00    -0.248 OA
ATOM     26  N4  <0> d           5.516  -2.477   0.012  0.00  0.00    -0.352 N 
ATOM     27  H35 <0> d           5.008  -2.340  -0.803  0.00  0.00     0.160 HD
ATOM     28  H36 <0> d           6.485  -2.450  -0.010  0.00  0.00     0.160 HD
ATOM     29  H34 <0> d           3.019  -2.606   0.391  0.00  0.00     0.165 HD
ENDBRANCH  19  23
ENDBRANCH   1  19
TORSDOF 6
