REMARK  6 active torsions:
REMARK  status: ('A' for Active; 'I' for Inactive)
REMARK    1  A    between atoms: C3_3  and  N3_23 
REMARK    2  A    between atoms: C4_4  and  N1_11 
REMARK    3  A    between atoms: C6_6  and  C7_7 
REMARK       I    between atoms: N1_11  and  C8_12 
REMARK    4  A    between atoms: C8_12  and  C9_14 
REMARK       I    between atoms: C9_14  and  N2_16 
REMARK    5  A    between atoms: N2_16  and  C10_17 
REMARK    6  A    between atoms: C10_17  and  C11_18 
ROOT
ATOM      1  C1  <0> d           0.003   1.613  -0.073  0.00  0.00     0.019 A 
ATOM      2  C2  <0> d           1.247   2.186   0.116  0.00  0.00     0.035 A 
ATOM      3  C3  <0> d           2.381   1.388   0.139  0.00  0.00     0.086 A 
ATOM      4  C4  <0> d           2.262   0.008  -0.028  0.00  0.00     0.065 A 
ATOM      5  C5  <0> d           1.008  -0.558  -0.216  0.00  0.00     0.048 A 
ATOM      6  C6  <0> d          -0.116   0.245  -0.238  0.00  0.00     0.050 A 
ENDROOT
BRANCH   4   7
ATOM      7  N1  <0> d           3.400  -0.802  -0.005  0.00  0.00    -0.317 N 
ATOM      8  C8  <0> d           3.324  -2.059   0.473  0.00  0.00     0.314 C 
ATOM      9  O1  <0> d           2.250  -2.518   0.806  0.00  0.00    -0.262 OA
ATOM     10  H4  <0> d           4.246  -0.459  -0.335  0.00  0.00     0.169 HD
BRANCH   8  11
ATOM     11  C9  <0> d           4.560  -2.889   0.594  0.00  0.00     0.309 C 
ATOM     12  O2  <0> d           5.633  -2.431   0.261  0.00  0.00    -0.262 OA
ATOM     13  N2  <0> d           4.483  -4.146   1.073  0.00  0.00    -0.349 N 
ATOM     14  H5  <0> d           3.625  -4.513   1.339  0.00  0.00     0.163 HD
BRANCH  13  15
ATOM     15  C10 <0> d           5.696  -4.960   1.191  0.00  0.00     0.162 C 
BRANCH  15  16
ATOM     16  C11 <0> d           5.339  -6.314   1.748  0.00  0.00    -0.034 A 
ATOM     17  C14 <0> d           5.012  -7.335   0.919  0.00  0.00     0.058 A 
ATOM     18  S1  <0> d           4.695  -8.661   2.072  0.00  0.00    -0.113 SA
ATOM     19  C13 <0> d           5.011  -7.762   3.582  0.00  0.00     0.050 A 
ATOM     20  C12 <0> d           5.336  -6.533   3.113  0.00  0.00     0.016 A 
ENDBRANCH  15  16
ENDBRANCH  13  15
ENDBRANCH   8  11
ENDBRANCH   4   7
BRANCH   3  21
ATOM     21  N3  <0> d           3.644   1.967   0.330  0.00  0.00    -0.224 N 
ATOM     22  N5  <0> d           4.865   1.291   0.483  0.00  0.00    -0.160 NA
ATOM     23  C16 <0> d           5.788   2.206   0.632  0.00  0.00     0.257 A 
ATOM     24  N4  <0> d           5.216   3.409   0.589  0.00  0.00    -0.233 NA
ATOM     25  C15 <0> d           3.926   3.282   0.407  0.00  0.00     0.236 A 
ENDBRANCH   3  21
BRANCH   6  26
ATOM     26  C7  <0> d          -1.475  -0.372  -0.444  0.00  0.00     0.417 C 
ATOM     27  F1  <0> d          -2.450   0.632  -0.428  0.00  0.00    -0.166 F 
ATOM     28  F2  <0> d          -1.506  -1.033  -1.676  0.00  0.00    -0.166 F 
ATOM     29  F3  <0> d          -1.732  -1.286   0.583  0.00  0.00    -0.166 F 
ENDBRANCH   6  26
TORSDOF 6
