REMARK  7 active torsions:
REMARK  status: ('A' for Active; 'I' for Inactive)
REMARK    1  A    between atoms: C2_2  and  N1_3 
REMARK       I    between atoms: N1_3  and  C3_4 
REMARK    2  A    between atoms: C3_4  and  C4_6 
REMARK    3  A    between atoms: C4_6  and  N2_7 
REMARK    4  A    between atoms: N2_7  and  C5_8 
REMARK    5  A    between atoms: N2_7  and  S1_10 
REMARK    6  A    between atoms: S1_10  and  C7_13 
REMARK    7  A    between atoms: C8_14  and  N3_21 
ROOT
ATOM      1  S1  <0> d           3.495  -4.927  -1.950  0.00  0.00     0.264 S 
ATOM      2  O2  <0> d           3.571  -6.268  -2.414  0.00  0.00    -0.200 OA
ATOM      3  O3  <0> d           4.626  -4.068  -1.913  0.00  0.00    -0.200 OA
ENDROOT
BRANCH   1   4
ATOM      4  N2  <0> d           2.355  -4.168  -2.882  0.00  0.00    -0.298 N 
BRANCH   4   5
ATOM      5  C4  <0> d           2.389  -2.712  -3.039  0.00  0.00     0.238 C 
BRANCH   5   6
ATOM      6  C3  <0> d           1.467  -2.076  -2.031  0.00  0.00     0.236 C 
ATOM      7  N1  <0> d           1.335  -0.736  -1.989  0.00  0.00    -0.360 N 
ATOM      8  H6  <0> d           1.834  -0.180  -2.607  0.00  0.00     0.162 HD
ATOM      9  O1  <0> d           0.843  -2.771  -1.257  0.00  0.00    -0.272 OA
BRANCH   7  10
ATOM     10  C2  <0> d           0.439  -0.118  -1.008  0.00  0.00     0.118 C 
ATOM     11  C1  <0> d           0.474   1.403  -1.172  0.00  0.00     0.026 C 
ENDBRANCH   7  10
ENDBRANCH   5   6
ENDBRANCH   4   5
BRANCH   4  12
ATOM     12  C5  <0> d           1.313  -4.953  -3.549  0.00  0.00     0.131 C 
ATOM     13  C6  <0> d           1.748  -5.265  -4.982  0.00  0.00     0.027 C 
ENDBRANCH   4  12
ENDBRANCH   1   4
BRANCH   1  14
ATOM     14  C7  <0> d           2.862  -4.997  -0.307  0.00  0.00     0.123 A 
ATOM     15  C12 <0> d           2.130  -6.094   0.106  0.00  0.00     0.037 A 
ATOM     16  C11 <0> d           1.637  -6.152   1.397  0.00  0.00     0.040 A 
ATOM     17 Br1  <0> d           1.808  -7.520  -1.093  0.00  0.00    -0.049 Br
ATOM     18  C10 <0> d           1.866  -5.108   2.276  0.00  0.00     0.014 A 
ATOM     19  C9  <0> d           2.593  -4.005   1.866  0.00  0.00     0.049 A 
ATOM     20 Br2  <0> d           1.184  -5.188   4.037  0.00  0.00    -0.051 Br
ATOM     21  C8  <0> d           3.094  -3.947   0.572  0.00  0.00     0.051 A 
BRANCH  21  22
ATOM     22  N3  <0> d           3.829  -2.835   0.156  0.00  0.00    -0.398 N 
ATOM     23  H16 <0> d           3.925  -2.643  -0.790  0.00  0.00     0.156 HD
ATOM     24  H17 <0> d           4.244  -2.254   0.813  0.00  0.00     0.156 HD
ENDBRANCH  21  22
ENDBRANCH   1  14
TORSDOF 7
