REMARK  5 active torsions:
REMARK  status: ('A' for Active; 'I' for Inactive)
REMARK    1  A    between atoms: C3_3  and  C13_17 
REMARK    2  A    between atoms: C5_5  and  C6_7 
REMARK    3  A    between atoms: C6_7  and  N1_8 
REMARK    4  A    between atoms: N1_8  and  C8_10 
REMARK    5  A    between atoms: C8_10  and  C9_11 
ROOT
ATOM      1  C6  <0> d           1.748  -3.219  -0.023  0.00  0.00     0.299 C 
ENDROOT
BRANCH   1   2
ATOM      2  C5  <0> d           0.769  -2.073  -0.013  0.00  0.00     0.080 A 
ATOM      3  C4  <0> d          -0.567  -2.192  -0.007  0.00  0.00     0.055 A 
ATOM      4  C3  <0> d          -1.095  -0.819   0.003  0.00  0.00     0.072 A 
ATOM      5  C2  <0> d           0.002  -0.004   0.002  0.00  0.00     0.066 A 
ATOM      6  C1  <0> d          -0.018   1.503   0.010  0.00  0.00     0.078 C 
ATOM      7  O1  <0> d           1.095  -0.771  -0.013  0.00  0.00    -0.317 OA
BRANCH   4   8
ATOM      8  C13 <0> d          -2.506  -0.409   0.012  0.00  0.00     0.212 C 
ATOM      9  O2  <0> d          -3.389  -1.257   0.011  0.00  0.00    -0.644 OA
ATOM     10  O3  <0> d          -2.799   0.779   0.020  0.00  0.00    -0.644 OA
ENDBRANCH   4   8
ENDBRANCH   1   2
BRANCH   1  11
ATOM     11  N1  <0> d           2.059  -3.584  -1.411  0.00  0.00    -0.065 N 
ATOM     12  C7  <0> d           2.758  -2.470  -2.066  0.00  0.00     0.270 C 
ATOM     13  H17 <0> d           1.203  -3.782  -1.907  0.00  0.00     0.280 HD
BRANCH  11  14
ATOM     14  C8  <0> d           2.919  -4.776  -1.422  0.00  0.00     0.276 C 
BRANCH  14  15
ATOM     15  C9  <0> d           3.138  -5.223  -2.845  0.00  0.00     0.004 A 
ATOM     16  C11 <0> d           4.139  -4.820  -3.660  0.00  0.00     0.122 A 
ATOM     17  N3  <0> d           3.985  -5.450  -4.844  0.00  0.00    -0.285 N 
ATOM     18  N2  <0> d           2.845  -6.261  -4.755  0.00  0.00    -0.185 NA
ATOM     19  C12 <0> d           4.852  -5.308  -6.016  0.00  0.00     0.179 C 
ATOM     20  C10 <0> d           2.339  -6.124  -3.556  0.00  0.00     0.149 A 
ENDBRANCH  14  15
ENDBRANCH  11  14
ENDBRANCH   1  11
TORSDOF 5
