REMARK  2 active torsions:
REMARK  status: ('A' for Active; 'I' for Inactive)
REMARK    1  A    between atoms: C6_9  and  C8_12 
REMARK       I    between atoms: C8_12  and  N3_14 
REMARK    2  A    between atoms: N3_14  and  C9_15 
ROOT
ATOM      1  C1  <0> d          -0.061   1.501   0.010  0.00  0.00     0.070 C 
ATOM      2  C2  <0> d          -0.020  -0.006   0.002  0.00  0.00     0.031 A 
ATOM      3  C3  <0> d          -0.010  -0.683  -1.146  0.00  0.00     0.005 A 
ATOM      4  S1  <0> d           0.041  -2.371  -0.577  0.00  0.00    -0.054 SA
ATOM      5  C4  <0> d           0.046  -2.077   1.075  0.00  0.00     0.180 A 
ATOM      6  N1  <0> d           0.015  -0.718   1.180  0.00  0.00    -0.259 N 
ATOM      7  C5  <0> d           0.015  -0.190   2.441  0.00  0.00     0.271 A 
ATOM      8  O1  <0> d          -0.017   1.018   2.599  0.00  0.00    -0.266 OA
ATOM      9  C6  <0> d           0.052  -1.050   3.559  0.00  0.00     0.118 A 
ATOM     10  C7  <0> d           0.088  -2.434   3.352  0.00  0.00     0.142 A 
ATOM     11  N2  <0> d           0.077  -2.892   2.112  0.00  0.00    -0.235 NA
ATOM     12  C12 <0> d          -0.036  -0.158  -2.558  0.00  0.00     0.058 C 
ENDROOT
BRANCH   9  13
ATOM     13  C8  <0> d           0.054  -0.501   4.920  0.00  0.00     0.264 C 
ATOM     14  O2  <0> d          -0.021  -1.249   5.877  0.00  0.00    -0.267 OA
ATOM     15  N3  <0> d           0.139   0.830   5.109  0.00  0.00    -0.300 N 
ATOM     16  H5  <0> d           0.123   1.431   4.347  0.00  0.00     0.171 HD
BRANCH  15  17
ATOM     17  C9  <0> d           0.248   1.344   6.396  0.00  0.00     0.196 A 
ATOM     18  S2  <0> d           0.376   3.041   6.953  0.00  0.00    -0.034 SA
ATOM     19  C10 <0> d           0.464   2.660   8.700  0.00  0.00     0.097 A 
ATOM     20  N5  <0> d           0.396   1.345   8.652  0.00  0.00    -0.145 NA
ATOM     21  C11 <0> d           0.587   3.582   9.887  0.00  0.00     0.081 C 
ATOM     22  N4  <0> d           0.294   0.717   7.564  0.00  0.00    -0.123 NA
ENDBRANCH  15  17
ENDBRANCH   9  13
TORSDOF 2
