REMARK  4 active torsions:
REMARK  status: ('A' for Active; 'I' for Inactive)
REMARK    1  A    between atoms: C5_5  and  C7_8 
REMARK    2  A    between atoms: C7_8  and  N2_9 
REMARK       I    between atoms: N2_9  and  C8_10 
REMARK    3  A    between atoms: C8_10  and  C9_12 
REMARK    4  A    between atoms: C11_14  and  N3_18 
ROOT
ATOM      1  N2  <0> d           1.447  -4.699   0.089  0.00  0.00    -0.352 N 
ATOM      2  C8  <0> d           1.711  -6.020   0.137  0.00  0.00     0.258 C 
ATOM      3  O1  <0> d           0.797  -6.822   0.171  0.00  0.00    -0.267 OA
ATOM      4  H9  <0> d           2.176  -4.059   0.062  0.00  0.00     0.163 HD
ENDROOT
BRANCH   2   5
ATOM      5  C9  <0> d           3.099  -6.490   0.149  0.00  0.00     0.075 A 
ATOM      6  S1  <0> d           4.607  -5.540   0.106  0.00  0.00    -0.087 SA
ATOM      7  C12 <0> d           5.718  -6.800   0.152  0.00  0.00     0.013 A 
ATOM      8  C11 <0> d           4.950  -7.918   0.190  0.00  0.00     0.117 A 
ATOM      9  C13 <0> d           7.222  -6.710   0.145  0.00  0.00     0.059 C 
ATOM     10  C10 <0> d           3.582  -7.789   0.190  0.00  0.00     0.061 A 
BRANCH   8  11
ATOM     11  N3  <0> d           5.578  -9.258   0.232  0.00  0.00    -0.115 N 
ATOM     12  O2  <0> d           4.886 -10.248   0.266  0.00  0.00    -0.532 OA
ATOM     13  O3  <0> d           6.782  -9.361   0.233  0.00  0.00    -0.532 OA
ENDBRANCH   8  11
ENDBRANCH   2   5
BRANCH   1  14
ATOM     14  C7  <0> d           0.059  -4.229   0.077  0.00  0.00     0.162 C 
BRANCH  14  15
ATOM     15  C5  <0> d           0.039  -2.724   0.021  0.00  0.00    -0.023 A 
ATOM     16  C4  <0> d           0.024  -2.067  -1.200  0.00  0.00     0.012 A 
ATOM     17  C3  <0> d           0.005  -0.681  -1.203  0.00  0.00     0.027 A 
ATOM     18  C2  <0> d           0.002  -0.004   0.002  0.00  0.00     0.030 A 
ATOM     19  C1  <0> d          -0.018   1.503   0.010  0.00  0.00     0.070 C 
ATOM     20  N1  <0> d           0.022  -0.662   1.145  0.00  0.00    -0.265 NA
ATOM     21  C6  <0> d           0.035  -1.980   1.186  0.00  0.00     0.125 A 
ENDBRANCH  14  15
ENDBRANCH   1  14
TORSDOF 4
