REMARK  4 active torsions:
REMARK  status: ('A' for Active; 'I' for Inactive)
REMARK    1  A    between atoms: N1_5  and  C12_16 
REMARK    2  A    between atoms: C12_16  and  C13_17 
REMARK    3  A    between atoms: C13_17  and  C14_18 
REMARK    4  A    between atoms: C13_17  and  O2_25 
ROOT
ATOM      1  C1  <0> d          -0.018   1.503   0.010  0.00  0.00     0.072 C 
ATOM      2  C2  <0> d           0.002  -0.004   0.002  0.00  0.00     0.055 A 
ATOM      3  C3  <0> d           0.008  -0.813  -1.135  0.00  0.00     0.079 A 
ATOM      4  C4  <0> d           0.028  -2.115  -0.725  0.00  0.00     0.136 A 
ATOM      5  N1  <0> d           0.042  -3.298  -1.449  0.00  0.00    -0.295 N 
ATOM      6  C5  <0> d           0.062  -4.494  -0.824  0.00  0.00     0.261 A 
ATOM      7  O1  <0> d           0.075  -5.528  -1.465  0.00  0.00    -0.267 OA
ATOM      8  C6  <0> d           0.070  -4.522   0.649  0.00  0.00     0.061 A 
ATOM      9  C7  <0> d           0.091  -5.727   1.350  0.00  0.00     0.019 A 
ATOM     10  C8  <0> d           0.098  -5.714   2.728  0.00  0.00     0.001 A 
ATOM     11  C9  <0> d           0.084  -4.511   3.417  0.00  0.00     0.002 A 
ATOM     12  C10 <0> d           0.062  -3.311   2.736  0.00  0.00     0.033 A 
ATOM     13  C11 <0> d           0.056  -3.305   1.348  0.00  0.00     0.076 A 
ATOM     14  N2  <0> d           0.035  -2.110   0.636  0.00  0.00    -0.216 N 
ATOM     15  N3  <0> d           0.023  -0.774   1.060  0.00  0.00    -0.171 NA
ENDROOT
BRANCH   5  16
ATOM     16  C12 <0> d           0.033  -3.248  -2.913  0.00  0.00     0.170 C 
BRANCH  16  17
ATOM     17  C13 <0> d           1.473  -3.210  -3.430  0.00  0.00     0.169 C 
BRANCH  17  18
ATOM     18  C14 <0> d           1.464  -3.035  -4.927  0.00  0.00    -0.025 A 
ATOM     19  C19 <0> d           1.686  -1.788  -5.478  0.00  0.00     0.052 A 
ATOM     20  C18 <0> d           1.684  -1.629  -6.854  0.00  0.00     0.117 A 
ATOM     21  C17 <0> d           1.448  -2.718  -7.675  0.00  0.00     0.042 A 
ATOM     22  F1  <0> d           1.907  -0.410  -7.394  0.00  0.00    -0.206 F 
ATOM     23  C16 <0> d           1.220  -3.964  -7.121  0.00  0.00     0.004 A 
ATOM     24  C15 <0> d           1.229  -4.122  -5.748  0.00  0.00     0.010 A 
ENDBRANCH  17  18
BRANCH  17  25
ATOM     25  O2  <0> d           2.131  -4.433  -3.097  0.00  0.00    -0.389 OA
ATOM     26  H16 <0> d           1.714  -5.220  -3.474  0.00  0.00     0.210 HD
ENDBRANCH  17  25
ENDBRANCH  16  17
ENDBRANCH   5  16
TORSDOF 4
