REMARK  8 active torsions:
REMARK  status: ('A' for Active; 'I' for Inactive)
REMARK    1  A    between atoms: C5_5  and  C6_7 
REMARK    2  A    between atoms: C6_7  and  N2_28 
REMARK    3  A    between atoms: C7_8  and  C8_9 
REMARK    4  A    between atoms: C7_8  and  N2_28 
REMARK    5  A    between atoms: C8_9  and  C9_10 
REMARK    6  A    between atoms: C15_16  and  C16_17 
REMARK    7  A    between atoms: C15_16  and  N2_28 
REMARK       I    between atoms: C16_17  and  N1_19 
REMARK    8  A    between atoms: N1_19  and  C17_20 
ROOT
ATOM      1  N2  <0> d          -0.018   1.486   0.040  0.00  0.00    -0.058 N 
ATOM      2  H27 <0> d          -0.302   1.809   0.973  0.00  0.00     0.280 HD
ENDROOT
BRANCH   1   3
ATOM      3  C6  <0> d          -1.001   1.964  -0.954  0.00  0.00     0.281 C 
BRANCH   3   4
ATOM      4  C5  <0> d          -2.386   1.788  -0.387  0.00  0.00     0.009 A 
ATOM      5  C4  <0> d          -3.079   2.606   0.443  0.00  0.00     0.017 A 
ATOM      6  C3  <0> d          -4.351   2.237   0.839  0.00  0.00     0.015 A 
ATOM      7  C2  <0> d          -4.868   1.070   0.385  0.00  0.00    -0.021 A 
ATOM      8  C1  <0> d          -6.215   0.455   0.667  0.00  0.00     0.056 C 
ATOM      9  S1  <0> d          -3.543   0.453  -0.640  0.00  0.00    -0.098 SA
ENDBRANCH   3   4
ENDBRANCH   1   3
BRANCH   1  10
ATOM     10  C7  <0> d           1.320   2.033  -0.269  0.00  0.00     0.240 C 
BRANCH  10  11
ATOM     11  C8  <0> d           1.300   3.546  -0.040  0.00  0.00     0.066 C 
BRANCH  11  12
ATOM     12  C9  <0> d           2.664   4.116  -0.330  0.00  0.00    -0.057 A 
ATOM     13  C14 <0> d           2.976   4.547  -1.606  0.00  0.00     0.007 A 
ATOM     14  C13 <0> d           4.227   5.071  -1.873  0.00  0.00     0.001 A 
ATOM     15  C12 <0> d           5.167   5.163  -0.863  0.00  0.00     0.000 A 
ATOM     16  C11 <0> d           4.855   4.733   0.413  0.00  0.00     0.001 A 
ATOM     17  C10 <0> d           3.602   4.214   0.680  0.00  0.00     0.007 A 
ENDBRANCH  11  12
ENDBRANCH  10  11
ENDBRANCH   1  10
BRANCH   1  18
ATOM     18  C15 <0> d           0.028   0.009   0.036  0.00  0.00     0.337 C 
BRANCH  18  19
ATOM     19  C16 <0> d           0.653  -0.458   1.325  0.00  0.00     0.243 C 
ATOM     20  O1  <0> d           0.941   0.346   2.186  0.00  0.00    -0.272 OA
ATOM     21  N1  <0> d           0.893  -1.770   1.521  0.00  0.00    -0.354 N 
ATOM     22  H20 <0> d           0.663  -2.413   0.833  0.00  0.00     0.162 HD
BRANCH  21  23
ATOM     23  C17 <0> d           1.501  -2.224   2.774  0.00  0.00     0.099 C 
ATOM     24  C20 <0> d           1.111  -3.706   3.040  0.00  0.00     0.165 C 
ATOM     25  S2  <0> d           2.425  -4.191   4.238  0.00  0.00     0.146 S 
ATOM     26  C19 <0> d           3.686  -2.912   3.842  0.00  0.00     0.142 C 
ATOM     27  O2  <0> d           1.948  -3.975   5.559  0.00  0.00    -0.228 OA
ATOM     28  O3  <0> d           2.931  -5.468   3.877  0.00  0.00    -0.228 OA
ATOM     29  C18 <0> d           3.033  -2.144   2.666  0.00  0.00     0.041 C 
ENDBRANCH  21  23
ENDBRANCH  18  19
ENDBRANCH   1  18
TORSDOF 8
