REMARK  8 active torsions:
REMARK  status: ('A' for Active; 'I' for Inactive)
REMARK    1  A    between atoms: N1_2  and  C3_4 
REMARK    2  A    between atoms: C3_4  and  C4_5 
REMARK    3  A    between atoms: C8_9  and  N2_11 
REMARK       I    between atoms: N2_11  and  C10_12 
REMARK    4  A    between atoms: C10_12  and  C11_14 
REMARK       I    between atoms: C11_14  and  N3_16 
REMARK    5  A    between atoms: N3_16  and  C12_17 
REMARK    6  A    between atoms: C12_17  and  C13_18 
REMARK    7  A    between atoms: C13_18  and  C14_19 
REMARK    8  A    between atoms: C13_18  and  N4_24 
ROOT
ATOM      1  N2  <0> d          -2.254  -1.652   4.971  0.00  0.00    -0.319 N 
ATOM      2  C10 <0> d          -2.976  -1.313   6.057  0.00  0.00     0.313 C 
ATOM      3  O1  <0> d          -2.793  -0.241   6.597  0.00  0.00    -0.262 OA
ATOM      4  H14 <0> d          -2.447  -2.477   4.498  0.00  0.00     0.169 HD
ENDROOT
BRANCH   2   5
ATOM      5  C11 <0> d          -4.001  -2.256   6.596  0.00  0.00     0.309 C 
ATOM      6  O2  <0> d          -4.184  -3.327   6.056  0.00  0.00    -0.262 OA
ATOM      7  N3  <0> d          -4.723  -1.916   7.683  0.00  0.00    -0.351 N 
ATOM      8  H15 <0> d          -4.577  -1.060   8.114  0.00  0.00     0.162 HD
BRANCH   7   9
ATOM      9  C12 <0> d          -5.729  -2.841   8.212  0.00  0.00     0.161 C 
BRANCH   9  10
ATOM     10  C13 <0> d          -6.472  -2.176   9.372  0.00  0.00     0.244 C 
BRANCH  10  11
ATOM     11  C14 <0> d          -5.514  -1.935  10.510  0.00  0.00     0.015 A 
ATOM     12  S1  <0> d          -4.920  -3.083  11.742  0.00  0.00    -0.104 SA
ATOM     13  C17 <0> d          -3.865  -1.960  12.644  0.00  0.00     0.050 A 
ATOM     14  C16 <0> d          -4.039  -0.802  11.961  0.00  0.00     0.008 A 
ATOM     15  C15 <0> d          -4.884  -0.789  10.867  0.00  0.00     0.017 A 
ENDBRANCH  10  11
BRANCH  10  16
ATOM     16  N4  <0> d          -7.559  -3.055   9.825  0.00  0.00    -0.068 N 
ATOM     17  C18 <0> d          -8.266  -2.422  10.946  0.00  0.00     0.270 C 
ATOM     18  C19 <0> d          -8.498  -3.282   8.719  0.00  0.00     0.270 C 
ATOM     19  H28 <0> d          -7.174  -3.938  10.126  0.00  0.00     0.279 HD
ENDBRANCH  10  16
ENDBRANCH   9  10
ENDBRANCH   7   9
ENDBRANCH   2   5
BRANCH   1  20
ATOM     20  C8  <0> d          -1.227  -0.816   4.526  0.00  0.00     0.035 A 
ATOM     21  C7  <0> d          -0.479  -0.084   5.440  0.00  0.00     0.029 A 
ATOM     22  C6  <0> d           0.535   0.741   4.996  0.00  0.00     0.003 A 
ATOM     23  C5  <0> d           0.808   0.839   3.644  0.00  0.00     0.009 A 
ATOM     24  C4  <0> d           0.066   0.111   2.731  0.00  0.00    -0.030 A 
ATOM     25  C9  <0> d          -0.954  -0.711   3.167  0.00  0.00     0.038 A 
BRANCH  24  26
ATOM     26  C3  <0> d           0.367   0.221   1.259  0.00  0.00     0.272 C 
BRANCH  26  27
ATOM     27  N1  <0> d          -0.429   1.310   0.677  0.00  0.00    -0.075 N 
ATOM     28  C1  <0> d          -0.004   2.591   1.257  0.00  0.00     0.269 C 
ATOM     29  C2  <0> d          -0.227   1.341  -0.778  0.00  0.00     0.269 C 
ATOM     30  H27 <0> d          -1.406   1.157   0.877  0.00  0.00     0.279 HD
ENDBRANCH  26  27
ENDBRANCH  24  26
ENDBRANCH   1  20
TORSDOF 8
