REMARK  5 active torsions:
REMARK  status: ('A' for Active; 'I' for Inactive)
REMARK    1  A    between atoms: C2_2  and  O1_10 
REMARK    2  A    between atoms: O1_10  and  C7_11 
REMARK    3  A    between atoms: C7_11  and  C8_12 
REMARK       I    between atoms: C8_12  and  N1_14 
REMARK    4  A    between atoms: N1_14  and  N2_15 
REMARK    5  A    between atoms: N2_15  and  C9_16 
ROOT
ATOM      1  C7  <0> d          -0.013   1.086   0.008  0.00  0.00     0.280 C 
ENDROOT
BRANCH   1   2
ATOM      2  O1  <0> d          -0.682   1.547   1.184  0.00  0.00    -0.340 OA
BRANCH   2   3
ATOM      3  C2  <0> d          -0.149   1.182   2.380  0.00  0.00     0.092 A 
ATOM      4  C1  <0> d           0.994   0.397   2.421  0.00  0.00     0.064 A 
ATOM      5  C6  <0> d           1.535   0.028   3.638  0.00  0.00     0.058 A 
ATOM      6  C5  <0> d           0.936   0.441   4.817  0.00  0.00     0.057 A 
ATOM      7 Cl1  <0> d           2.966  -0.954   3.690  0.00  0.00    -0.082 Cl
ATOM      8  C4  <0> d          -0.203   1.224   4.778  0.00  0.00     0.052 A 
ATOM      9 Cl2  <0> d           1.617  -0.025   6.344  0.00  0.00    -0.082 Cl
ATOM     10  C3  <0> d          -0.744   1.599   3.562  0.00  0.00     0.069 A 
ATOM     11 Cl3  <0> d          -2.171   2.587   3.514  0.00  0.00    -0.081 Cl
ENDBRANCH   2   3
ENDBRANCH   1   2
BRANCH   1  12
ATOM     12  C8  <0> d          -0.742   1.585  -1.213  0.00  0.00     0.260 C 
ATOM     13  O2  <0> d          -1.736   2.268  -1.088  0.00  0.00    -0.269 OA
ATOM     14  N1  <0> d          -0.288   1.272  -2.443  0.00  0.00    -0.266 N 
ATOM     15  H5  <0> d           0.507   0.726  -2.543  0.00  0.00     0.190 HD
BRANCH  14  16
ATOM     16  N2  <0> d          -0.966   1.736  -3.578  0.00  0.00    -0.274 N 
ATOM     17  H6  <0> d          -1.761   2.283  -3.479  0.00  0.00     0.189 HD
BRANCH  16  18
ATOM     18  C9  <0> d          -0.513   1.424  -4.808  0.00  0.00     0.184 C 
ATOM     19  S1  <0> d          -1.341   1.991  -6.195  0.00  0.00    -0.040 SA
ATOM     20  N3  <0> d           0.592   0.664  -4.947  0.00  0.00    -0.375 N 
ATOM     21  H7  <0> d           1.061   0.343  -4.161  0.00  0.00     0.158 HD
ATOM     22  H8  <0> d           0.918   0.439  -5.832  0.00  0.00     0.158 HD
ENDBRANCH  16  18
ENDBRANCH  14  16
ENDBRANCH   1  12
TORSDOF 5
