REMARK  7 active torsions:
REMARK  status: ('A' for Active; 'I' for Inactive)
REMARK    1  A    between atoms: C2_2  and  N1_3 
REMARK    2  A    between atoms: N1_3  and  C3_4 
REMARK    3  A    between atoms: C3_4  and  C4_5 
REMARK    4  A    between atoms: C4_5  and  C5_6 
REMARK    5  A    between atoms: C5_6  and  N2_7 
REMARK    6  A    between atoms: N2_7  and  S1_8 
REMARK    7  A    between atoms: S1_8  and  C6_11 
ROOT
ATOM      1  S1  <0> d          -4.446  -6.132  -0.360  0.00  0.00     0.258 S 
ATOM      2  O1  <0> d          -5.849  -6.319  -0.236  0.00  0.00    -0.201 OA
ATOM      3  O2  <0> d          -3.745  -6.403  -1.565  0.00  0.00    -0.201 OA
ENDROOT
BRANCH   1   4
ATOM      4  N2  <0> d          -4.145  -4.548   0.017  0.00  0.00    -0.315 N 
ATOM      5  H13 <0> d          -4.879  -3.956   0.245  0.00  0.00     0.172 HD
BRANCH   4   6
ATOM      6  C5  <0> d          -2.771  -4.041   0.007  0.00  0.00     0.134 C 
BRANCH   6   7
ATOM      7  C4  <0> d          -2.792  -2.511   0.015  0.00  0.00     0.048 C 
BRANCH   7   8
ATOM      8  C3  <0> d          -1.356  -1.981   0.004  0.00  0.00     0.234 C 
BRANCH   8   9
ATOM      9  N1  <0> d          -1.376  -0.512   0.012  0.00  0.00    -0.075 N 
ATOM     10  H6  <0> d          -1.848  -0.187   0.843  0.00  0.00     0.277 HD
ATOM     11  H22 <0> d          -1.864  -0.178  -0.805  0.00  0.00     0.277 HD
BRANCH   9  12
ATOM     12  C2  <0> d           0.002  -0.004   0.002  0.00  0.00     0.228 C 
ATOM     13  C1  <0> d          -0.019   1.526   0.010  0.00  0.00     0.034 C 
ENDBRANCH   9  12
ENDBRANCH   8   9
ENDBRANCH   7   8
ENDBRANCH   6   7
ENDBRANCH   4   6
ENDBRANCH   1   4
BRANCH   1  14
ATOM     14  C6  <0> d          -3.694  -7.117   0.893  0.00  0.00     0.080 A 
ATOM     15  C11 <0> d          -4.410  -7.465   2.025  0.00  0.00     0.035 A 
ATOM     16  C10 <0> d          -3.820  -8.239   2.999  0.00  0.00    -0.021 A 
ATOM     17  C9  <0> d          -2.507  -8.671   2.867  0.00  0.00     0.043 A 
ATOM     18  C12 <0> d          -4.315  -8.783   4.319  0.00  0.00     0.144 A 
ATOM     19  C8  <0> d          -1.791  -8.312   1.726  0.00  0.00     0.032 A 
ATOM     20  N3  <0> d          -2.134  -9.431   3.976  0.00  0.00    -0.322 N 
ATOM     21  C7  <0> d          -2.385  -7.540   0.749  0.00  0.00     0.027 A 
ATOM     22  C13 <0> d          -3.130  -9.546   4.871  0.00  0.00     0.228 A 
ATOM     23  C14 <0> d          -0.810 -10.034   4.145  0.00  0.00     0.159 C 
ATOM     24  O3  <0> d          -3.086 -10.147   5.924  0.00  0.00    -0.273 OA
ENDBRANCH   1  14
TORSDOF 7
