REMARK  2 active torsions:
REMARK  status: ('A' for Active; 'I' for Inactive)
REMARK    1  A    between atoms: C2_2  and  C8_14 
REMARK    2  A    between atoms: C8_14  and  N1_17 
ROOT
ATOM      1  C1  <0> d           0.634   3.605  -1.320  0.00  0.00     0.043 C 
ATOM      2  C2  <0> d          -0.793   3.056  -1.078  0.00  0.00     0.045 C 
ATOM      3  C3  <0> d          -1.621   3.639  -2.267  0.00  0.00     0.118 C 
ATOM      4  C4  <0> d          -1.633   5.151  -2.007  0.00  0.00     0.059 C 
ATOM      5  C5  <0> d          -0.415   5.619  -2.214  0.00  0.00     0.058 C 
ATOM      6  C6  <0> d           0.488   4.451  -2.626  0.00  0.00     0.114 C 
ATOM      7  C7  <0> d          -0.550   3.574  -3.417  0.00  0.00     0.166 C 
ATOM      8 Cl1  <0> d           0.044   1.898  -3.713  0.00  0.00    -0.097 Cl
ATOM      9 Cl2  <0> d          -1.114   4.372  -4.932  0.00  0.00    -0.097 Cl
ATOM     10 Cl3  <0> d           2.019   4.864  -3.484  0.00  0.00    -0.109 Cl
ATOM     11 Cl4  <0> d           0.077   7.276  -2.049  0.00  0.00    -0.085 Cl
ATOM     12 Cl5  <0> d          -3.013   6.087  -1.524  0.00  0.00    -0.085 Cl
ATOM     13 Cl6  <0> d          -3.209   2.853  -2.596  0.00  0.00    -0.109 Cl
ENDROOT
BRANCH   2  14
ATOM     14  C8  <0> d          -0.795   1.527  -1.120  0.00  0.00     0.236 C 
BRANCH  14  15
ATOM     15  N1  <0> d          -0.184   1.012   0.118  0.00  0.00    -0.079 N 
ATOM     16  H2  <0> d          -0.158  -0.006   0.097  0.00  0.00     0.274 HD
ATOM     17  H3  <0> d           0.763   1.373   0.217  0.00  0.00     0.274 HD
ATOM     18  H8  <0> d          -0.744   1.316   0.923  0.00  0.00     0.274 HD
ENDBRANCH  14  15
ENDBRANCH   2  14
TORSDOF 2
