REMARK  2 active torsions:
REMARK  status: ('A' for Active; 'I' for Inactive)
REMARK    1  A    between atoms: C3_4  and  N2_5 
REMARK    2  A    between atoms: N2_5  and  C4_6 
ROOT
ATOM      1  C1  <0> d          -0.018   1.461   0.010  0.00  0.00     0.159 C 
ATOM      2  N1  <0> d           0.002  -0.004   0.002  0.00  0.00    -0.322 N 
ATOM      3  C2  <0> d          -1.121  -0.853   0.003  0.00  0.00     0.120 A 
ATOM      4  C3  <0> d          -2.425  -0.482   0.011  0.00  0.00     0.123 C 
ATOM      5  C10 <0> d          -0.608  -2.176  -0.008  0.00  0.00     0.277 A 
ATOM      6  O1  <0> d          -1.260  -3.205  -0.011  0.00  0.00    -0.265 OA
ATOM      7  N3  <0> d           0.736  -2.080  -0.014  0.00  0.00    -0.293 N 
ATOM      8  C11 <0> d           1.098  -0.786  -0.013  0.00  0.00     0.183 A 
ATOM      9  S1  <0> d           2.712  -0.217  -0.026  0.00  0.00    -0.040 SA
ATOM     10  C12 <0> d           1.662  -3.215  -0.025  0.00  0.00     0.162 C 
ENDROOT
BRANCH   4  11
ATOM     11  N2  <0> d          -2.759   0.846   0.020  0.00  0.00    -0.364 N 
ATOM     12  H5  <0> d          -2.063   1.521   0.020  0.00  0.00     0.165 HD
BRANCH  11  13
ATOM     13  C4  <0> d          -4.103   1.228   0.028  0.00  0.00     0.031 A 
ATOM     14  C9  <0> d          -4.444   2.575   0.037  0.00  0.00     0.029 A 
ATOM     15  C8  <0> d          -5.773   2.948   0.041  0.00  0.00     0.002 A 
ATOM     16  C7  <0> d          -6.765   1.984   0.046  0.00  0.00     0.000 A 
ATOM     17  C6  <0> d          -6.429   0.642   0.042  0.00  0.00     0.002 A 
ATOM     18  C5  <0> d          -5.101   0.262   0.033  0.00  0.00     0.029 A 
ENDBRANCH  11  13
ENDBRANCH   4  11
TORSDOF 2
