REMARK  3 active torsions:
REMARK  status: ('A' for Active; 'I' for Inactive)
REMARK    1  A    between atoms: C3_3  and  C6_8 
REMARK       I    between atoms: C6_8  and  N2_10 
REMARK    2  A    between atoms: C13_17  and  C14_18 
REMARK       I    between atoms: C14_18  and  N3_20 
REMARK    3  A    between atoms: N3_20  and  C15_21 
ROOT
ATOM      1  C6  <0> d          -4.416  -6.961  -0.972  0.00  0.00     0.258 C 
ATOM      2  O2  <0> d          -5.444  -6.312  -1.000  0.00  0.00    -0.267 OA
ATOM      3  N2  <0> d          -3.353  -6.511  -0.277  0.00  0.00    -0.348 N 
ATOM      4  C7  <0> d          -3.428  -5.237   0.451  0.00  0.00     0.127 C 
ATOM      5  C8  <0> d          -2.307  -4.317  -0.048  0.00  0.00     0.030 C 
ATOM      6  C9  <0> d          -0.980  -5.080   0.012  0.00  0.00    -0.025 A 
ATOM      7  C10 <0> d          -0.960  -6.410  -0.749  0.00  0.00     0.030 C 
ATOM      8  C11 <0> d          -2.108  -7.288  -0.236  0.00  0.00     0.127 C 
ATOM      9  C12 <0> d          -0.167  -4.990   1.303  0.00  0.00     0.025 A 
ATOM     10  C13 <0> d           0.310  -4.261   0.045  0.00  0.00     0.087 A 
ENDROOT
BRANCH  10  11
ATOM     11  C14 <0> d           0.182  -2.760   0.019  0.00  0.00     0.227 C 
ATOM     12  O3  <0> d          -0.204  -2.167   1.005  0.00  0.00    -0.273 OA
ATOM     13  N3  <0> d           0.497  -2.076  -1.098  0.00  0.00    -0.327 N 
ATOM     14  H18 <0> d           0.744  -2.553  -1.906  0.00  0.00     0.169 HD
BRANCH  13  15
ATOM     15  C15 <0> d           0.468  -0.675  -1.094  0.00  0.00     0.037 A 
ATOM     16  C20 <0> d           1.394   0.021  -1.836  0.00  0.00     0.062 A 
ATOM     17  C19 <0> d           1.388   1.433  -1.850  0.00  0.00     0.077 A 
ATOM     18  C18 <0> d           0.394   2.068  -1.071  0.00  0.00     0.035 A 
ATOM     19  N4  <0> d           2.208   2.279  -2.509  0.00  0.00    -0.245 NA
ATOM     20  C17 <0> d          -0.528   1.366  -0.332  0.00  0.00     0.023 A 
ATOM     21  S1  <0> d           0.734   3.786  -1.361  0.00  0.00    -0.073 SA
ATOM     22  C16 <0> d          -0.499  -0.015  -0.337  0.00  0.00     0.031 A 
ATOM     23  C21 <0> d           2.087   3.575  -2.429  0.00  0.00     0.072 A 
ATOM     24  C22 <0> d           2.921   4.634  -3.102  0.00  0.00     0.079 C 
ENDBRANCH  13  15
ENDBRANCH  10  11
BRANCH   1  25
ATOM     25  C3  <0> d          -4.332  -8.241  -1.699  0.00  0.00     0.089 A 
ATOM     26  C2  <0> d          -3.904  -8.482  -3.086  0.00  0.00     0.076 A 
ATOM     27  C1  <0> d          -3.447  -7.457  -4.092  0.00  0.00     0.074 C 
ATOM     28  N1  <0> d          -4.003  -9.766  -3.258  0.00  0.00    -0.132 NA
ATOM     29  O1  <0> d          -4.398 -10.332  -2.268  0.00  0.00    -0.217 OA
ATOM     30  C4  <0> d          -4.629  -9.504  -1.247  0.00  0.00     0.092 A 
ATOM     31  C5  <0> d          -5.120  -9.879   0.127  0.00  0.00     0.080 C 
ENDBRANCH   1  25
TORSDOF 3
