REMARK  6 active torsions:
REMARK  status: ('A' for Active; 'I' for Inactive)
REMARK    1  A    between atoms: C6_6  and  C11_11 
REMARK    2  A    between atoms: C11_11  and  C12_12 
REMARK    3  A    between atoms: C11_11  and  O2_27 
REMARK    4  A    between atoms: C12_12  and  N1_13 
REMARK       I    between atoms: N1_13  and  C13_14 
REMARK       I    between atoms: C13_14  and  N2_16 
REMARK    5  A    between atoms: N2_16  and  C14_17 
REMARK    6  A    between atoms: C14_17  and  C15_18 
ROOT
ATOM      1  N1  <0> d           6.686  -3.771   1.361  0.00  0.00    -0.340 N 
ATOM      2  C13 <0> d           7.200  -4.259   2.507  0.00  0.00     0.316 C 
ATOM      3  O1  <0> d           6.555  -4.203   3.536  0.00  0.00    -0.247 OA
ATOM      4  N2  <0> d           8.431  -4.809   2.513  0.00  0.00    -0.337 N 
ATOM      5  H11 <0> d           7.201  -3.815   0.540  0.00  0.00     0.164 HD
ATOM      6  H12 <0> d           8.946  -4.854   1.692  0.00  0.00     0.164 HD
ENDROOT
BRANCH   1   7
ATOM      7  C12 <0> d           5.349  -3.172   1.355  0.00  0.00     0.161 C 
BRANCH   7   8
ATOM      8  C11 <0> d           5.008  -2.700  -0.060  0.00  0.00     0.169 C 
BRANCH   8   9
ATOM      9  C6  <0> d           3.687  -1.976  -0.043  0.00  0.00    -0.027 A 
ATOM     10  C5  <0> d           3.668  -0.615  -0.036  0.00  0.00     0.022 A 
ATOM     11  C4  <0> d           2.438   0.063  -0.021  0.00  0.00    -0.025 A 
ATOM     12  C3  <0> d           2.378   1.468  -0.013  0.00  0.00     0.012 A 
ATOM     13  C9  <0> d           1.233  -0.683  -0.013  0.00  0.00    -0.026 A 
ATOM     14  C2  <0> d           1.169   2.091   0.002  0.00  0.00     0.001 A 
ATOM     15  C1  <0> d          -0.016   1.357   0.009  0.00  0.00     0.001 A 
ATOM     16  C10 <0> d           0.002  -0.004   0.002  0.00  0.00     0.012 A 
ATOM     17  C8  <0> d           1.292  -2.087  -0.021  0.00  0.00     0.013 A 
ATOM     18  C7  <0> d           2.502  -2.710  -0.036  0.00  0.00     0.011 A 
ENDBRANCH   8   9
BRANCH   8  19
ATOM     19  O2  <0> d           4.921  -3.830  -0.931  0.00  0.00    -0.389 OA
ATOM     20  H24 <0> d           4.246  -4.473  -0.674  0.00  0.00     0.210 HD
ENDBRANCH   8  19
ENDBRANCH   7   8
ENDBRANCH   1   7
BRANCH   4  21
ATOM     21  C14 <0> d           8.990  -5.340   3.758  0.00  0.00     0.182 C 
BRANCH  21  22
ATOM     22  C15 <0> d          10.366  -5.895   3.495  0.00  0.00     0.044 A 
ATOM     23  N4  <0> d          11.511  -5.193   3.485  0.00  0.00    -0.347 N 
ATOM     24  C17 <0> d          12.502  -5.994   3.227  0.00  0.00     0.083 A 
ATOM     25  H25 <0> d          11.586  -4.239   3.646  0.00  0.00     0.167 HD
ATOM     26  N3  <0> d          12.014  -7.245   3.053  0.00  0.00    -0.345 N 
ATOM     27  C18 <0> d          13.967  -5.638   3.124  0.00  0.00     0.076 C 
ATOM     28  C16 <0> d          10.662  -7.182   3.223  0.00  0.00     0.119 A 
ATOM     29  C21 <0> d          12.824  -8.424   2.738  0.00  0.00     0.130 C 
ATOM     30  C20 <0> d          14.192  -7.960   2.225  0.00  0.00     0.021 C 
ATOM     31  C19 <0> d          14.782  -6.935   3.199  0.00  0.00     0.009 C 
ENDBRANCH  21  22
ENDBRANCH   4  21
TORSDOF 6
