REMARK  6 active torsions:
REMARK  status: ('A' for Active; 'I' for Inactive)
REMARK    1  A    between atoms: N3_11  and  C18_24 
REMARK    2  A    between atoms: C9_12  and  N6_23 
REMARK    3  A    between atoms: C10_13  and  C11_14 
REMARK    4  A    between atoms: C18_24  and  C19_25 
REMARK    5  A    between atoms: C19_25  and  C20_26 
REMARK    6  A    between atoms: C20_26  and  N7_27 
ROOT
ATOM      1  C1  <0> d          -0.016   1.357   0.009  0.00  0.00     0.002 A 
ATOM      2  C2  <0> d           1.169   2.089   0.002  0.00  0.00     0.002 A 
ATOM      3  C3  <0> d           2.378   1.464  -0.013  0.00  0.00     0.034 A 
ATOM      4  C4  <0> d           2.437   0.060  -0.021  0.00  0.00     0.087 A 
ATOM      5  C5  <0> d           1.231  -0.684  -0.013  0.00  0.00     0.086 A 
ATOM      6  C6  <0> d           0.002  -0.004   0.002  0.00  0.00     0.034 A 
ATOM      7  N1  <0> d           1.282  -2.021  -0.022  0.00  0.00    -0.246 NA
ATOM      8  C7  <0> d           2.443  -2.633  -0.036  0.00  0.00     0.096 A 
ATOM      9  C8  <0> d           3.645  -1.907  -0.044  0.00  0.00     0.154 A 
ATOM     10  N2  <0> d           3.610  -0.580  -0.036  0.00  0.00    -0.227 NA
ATOM     11  N3  <0> d           4.746  -2.749  -0.060  0.00  0.00    -0.335 N 
ATOM     12  C9  <0> d           4.318  -4.149  -0.063  0.00  0.00     0.303 A 
ATOM     13  C10 <0> d           2.781  -4.108  -0.048  0.00  0.00     0.161 A 
ENDROOT
BRANCH  13  14
ATOM     14  C11 <0> d           2.225  -4.765  -1.285  0.00  0.00     0.119 A 
ATOM     15  N4  <0> d           1.782  -5.987  -1.344  0.00  0.00    -0.232 NA
ATOM     16  C12 <0> d           1.355  -6.257  -2.604  0.00  0.00     0.085 A 
ATOM     17  C13 <0> d           0.799  -7.386  -3.212  0.00  0.00     0.034 A 
ATOM     18  C17 <0> d           1.560  -5.093  -3.364  0.00  0.00     0.062 A 
ATOM     19  C14 <0> d           0.462  -7.350  -4.536  0.00  0.00     0.002 A 
ATOM     20  C15 <0> d           0.664  -6.201  -5.286  0.00  0.00     0.002 A 
ATOM     21  C16 <0> d           1.211  -5.075  -4.707  0.00  0.00     0.032 A 
ATOM     22  N5  <0> d           2.106  -4.165  -2.500  0.00  0.00    -0.342 N 
ATOM     23  H7  <0> d           2.360  -3.255  -2.719  0.00  0.00     0.167 HD
ENDBRANCH  13  14
BRANCH  12  24
ATOM     24  N6  <0> d           4.798  -4.825  -1.276  0.00  0.00    -0.057 N 
ATOM     25  H12 <0> d           5.806  -4.809  -1.293  0.00  0.00     0.276 HD
ATOM     26  H13 <0> d           4.476  -5.781  -1.279  0.00  0.00     0.276 HD
ATOM     27  H23 <0> d           4.440  -4.348  -2.091  0.00  0.00     0.276 HD
ENDBRANCH  12  24
BRANCH  11  28
ATOM     28  C18 <0> d           6.141  -2.301  -0.071  0.00  0.00     0.128 C 
BRANCH  28  29
ATOM     29  C19 <0> d           6.641  -2.154   1.368  0.00  0.00     0.040 C 
BRANCH  29  30
ATOM     30  C20 <0> d           8.098  -1.687   1.356  0.00  0.00     0.131 C 
BRANCH  30  31
ATOM     31  N7  <0> d           8.576  -1.546   2.734  0.00  0.00    -0.352 N 
ATOM     32  C23 <0> d           9.170  -2.504   3.478  0.00  0.00     0.182 A 
ATOM     33  N8  <0> d           9.458  -2.006   4.649  0.00  0.00    -0.361 N 
ATOM     34  C22 <0> d           9.054  -0.728   4.698  0.00  0.00     0.106 A 
ATOM     35  H24 <0> d           9.891  -2.486   5.372  0.00  0.00     0.166 HD
ATOM     36  C21 <0> d           8.500  -0.421   3.509  0.00  0.00     0.108 A 
ENDBRANCH  30  31
ENDBRANCH  29  30
ENDBRANCH  28  29
ENDBRANCH  11  28
TORSDOF 6
