REMARK  4 active torsions:
REMARK  status: ('A' for Active; 'I' for Inactive)
REMARK       I    between atoms: C2_2  and  N1_4 
REMARK    1  A    between atoms: N1_4  and  C3_5 
REMARK    2  A    between atoms: C3_5  and  C4_6 
REMARK       I    between atoms: N2_10  and  C9_12 
REMARK    3  A    between atoms: C9_12  and  C10_14 
REMARK    4  A    between atoms: N4_16  and  C14_21 
ROOT
ATOM      1  C10 <0> d          -7.007  -2.801   1.549  0.00  0.00     0.123 C 
ATOM      2  N3  <0> d          -7.110  -4.082   1.374  0.00  0.00    -0.168 NA
ATOM      3  N4  <0> d          -8.360  -4.706   1.308  0.00  0.00    -0.232 N 
ATOM      4  C11 <0> d          -9.467  -3.987   1.040  0.00  0.00     0.240 C 
ATOM      5  O3  <0> d         -10.548  -4.533   0.979  0.00  0.00    -0.272 OA
ATOM      6  C12 <0> d          -9.358  -2.500   0.815  0.00  0.00     0.111 C 
ATOM      7  C13 <0> d          -8.234  -1.941   1.695  0.00  0.00     0.076 C 
ENDROOT
BRANCH   1   8
ATOM      8  C9  <0> d          -5.678  -2.183   1.611  0.00  0.00     0.270 C 
ATOM      9  N2  <0> d          -4.794  -2.385   0.614  0.00  0.00    -0.346 N 
ATOM     10  C7  <0> d          -5.109  -3.298  -0.493  0.00  0.00     0.126 C 
ATOM     11  C8  <0> d          -3.496  -1.697   0.614  0.00  0.00     0.132 C 
ATOM     12  C6  <0> d          -4.920  -2.552  -1.817  0.00  0.00     0.020 C 
ATOM     13  C5  <0> d          -3.507  -1.965  -1.870  0.00  0.00     0.009 C 
ATOM     14  C4  <0> d          -3.324  -0.969  -0.723  0.00  0.00     0.021 C 
ATOM     15  O2  <0> d          -5.374  -1.488   2.562  0.00  0.00    -0.266 OA
BRANCH  14  16
ATOM     16  C3  <0> d          -1.922  -0.359  -0.795  0.00  0.00     0.128 C 
BRANCH  16  17
ATOM     17  N1  <0> d          -1.788   0.679   0.230  0.00  0.00    -0.361 N 
ATOM     18  C2  <0> d          -0.630   1.358   0.354  0.00  0.00     0.213 C 
ATOM     19  C1  <0> d          -0.492   2.426   1.408  0.00  0.00     0.117 C 
ATOM     20  O1  <0> d           0.300   1.109  -0.383  0.00  0.00    -0.274 OA
ATOM     21  H6  <0> d          -2.532   0.878   0.819  0.00  0.00     0.162 HD
ENDBRANCH  16  17
ENDBRANCH  14  16
ENDBRANCH   1   8
BRANCH   3  22
ATOM     22  C14 <0> d          -8.466  -6.150   1.532  0.00  0.00     0.128 C 
ATOM     23  C17 <0> d          -7.969  -6.487   2.958  0.00  0.00     0.167 C 
ATOM     24  S1  <0> d          -7.253  -8.167   2.752  0.00  0.00     0.146 S 
ATOM     25  C16 <0> d          -7.487  -8.377   0.936  0.00  0.00     0.142 C 
ATOM     26  O4  <0> d          -5.862  -8.114   3.036  0.00  0.00    -0.228 OA
ATOM     27  O5  <0> d          -8.071  -9.107   3.435  0.00  0.00    -0.228 OA
ATOM     28  C15 <0> d          -7.610  -6.892   0.491  0.00  0.00     0.043 C 
ENDBRANCH   3  22
TORSDOF 4
