REMARK  7 active torsions:
REMARK  status: ('A' for Active; 'I' for Inactive)
REMARK    1  A    between atoms: C7_7  and  N1_8 
REMARK       I    between atoms: N1_8  and  C8_9 
REMARK       I    between atoms: C8_9  and  N2_11 
REMARK       I    between atoms: N2_11  and  C9_12 
REMARK    2  A    between atoms: C9_12  and  C10_14 
REMARK    3  A    between atoms: C10_14  and  N3_15 
REMARK    4  A    between atoms: N3_15  and  C11_16 
REMARK    5  A    between atoms: N3_15  and  C20_27 
REMARK    6  A    between atoms: C11_16  and  C12_17 
REMARK    7  A    between atoms: C15_20  and  C18_23 
REMARK       I    between atoms: C18_23  and  N4_25 
ROOT
ATOM      1  N3  <0> d           6.574   1.381   5.141  0.00  0.00    -0.055 N 
ATOM      2  H33 <0> d           5.928   1.959   5.659  0.00  0.00     0.281 HD
ENDROOT
BRANCH   1   3
ATOM      3  C10 <0> d           6.076   1.196   3.772  0.00  0.00     0.338 C 
BRANCH   3   4
ATOM      4  C9  <0> d           4.676   0.638   3.817  0.00  0.00     0.251 C 
ATOM      5  N2  <0> d           4.014   0.385   2.671  0.00  0.00    -0.278 N 
ATOM      6  C8  <0> d           2.763  -0.113   2.712  0.00  0.00     0.323 C 
ATOM      7  H15 <0> d           4.439   0.561   1.817  0.00  0.00     0.173 HD
ATOM      8  N1  <0> d           2.101  -0.367   1.565  0.00  0.00    -0.338 N 
ATOM      9  O1  <0> d           2.231  -0.334   3.782  0.00  0.00    -0.247 OA
ATOM     10  H14 <0> d           2.525  -0.190   0.711  0.00  0.00     0.164 HD
ATOM     11  O2  <0> d           4.146   0.418   4.885  0.00  0.00    -0.271 OA
BRANCH   8  12
ATOM     12  C7  <0> d           0.741  -0.908   1.609  0.00  0.00     0.089 C 
ATOM     13  C2  <0> d           0.001  -0.535   0.323  0.00  0.00     0.004 C 
ATOM     14  C1  <0> d          -0.061   0.988   0.194  0.00  0.00     0.012 C 
ATOM     15  C3  <0> d          -1.420  -1.101   0.369  0.00  0.00     0.006 C 
ATOM     16  C4  <0> d          -1.358  -2.624   0.499  0.00  0.00     0.001 C 
ATOM     17  C5  <0> d          -0.619  -2.998   1.785  0.00  0.00     0.002 C 
ATOM     18  C6  <0> d           0.802  -2.432   1.739  0.00  0.00     0.026 C 
ENDBRANCH   8  12
ENDBRANCH   3   4
ENDBRANCH   1   3
BRANCH   1  19
ATOM     19  C11 <0> d           7.889   2.035   5.100  0.00  0.00     0.274 C 
BRANCH  19  20
ATOM     20  C12 <0> d           7.741   3.425   4.536  0.00  0.00    -0.033 A 
ATOM     21  C17 <0> d           7.378   4.470   5.366  0.00  0.00     0.010 A 
ATOM     22  C16 <0> d           7.247   5.746   4.858  0.00  0.00     0.017 A 
ATOM     23  C15 <0> d           7.471   5.979   3.500  0.00  0.00     0.032 A 
ATOM     24  C14 <0> d           7.832   4.919   2.667  0.00  0.00     0.017 A 
ATOM     25  C13 <0> d           7.965   3.649   3.189  0.00  0.00     0.010 A 
BRANCH  23  26
ATOM     26  C18 <0> d           7.327   7.342   2.947  0.00  0.00     0.251 C 
ATOM     27  O3  <0> d           7.523   7.542   1.764  0.00  0.00    -0.268 OA
ATOM     28  N4  <0> d           6.978   8.363   3.754  0.00  0.00    -0.361 N 
ATOM     29  C19 <0> d           6.835   9.714   3.206  0.00  0.00     0.149 C 
ATOM     30  H24 <0> d           6.821   8.204   4.698  0.00  0.00     0.162 HD
ENDBRANCH  23  26
ENDBRANCH  19  20
ENDBRANCH   1  19
BRANCH   1  31
ATOM     31  C20 <0> d           6.697   0.074   5.799  0.00  0.00     0.189 A 
ATOM     32  C22 <0> d           7.320   0.042   7.197  0.00  0.00     0.035 A 
ATOM     33  C21 <0> d           5.817  -0.187   7.023  0.00  0.00     0.035 A 
ENDBRANCH   1  31
TORSDOF 7
