REMARK  4 active torsions:
REMARK  status: ('A' for Active; 'I' for Inactive)
REMARK    1  A    between atoms: C3_3  and  C10_12 
REMARK       I    between atoms: C10_12  and  N1_14 
REMARK    2  A    between atoms: N1_14  and  C11_15 
REMARK    3  A    between atoms: N2_23  and  C19_24 
REMARK    4  A    between atoms: C19_24  and  C20_25 
REMARK       I    between atoms: C20_25  and  N3_27 
ROOT
ATOM      1  C11 <0> d           3.567   1.831  -1.653  0.00  0.00     0.035 A 
ATOM      2  C12 <0> d           4.636   0.940  -1.743  0.00  0.00     0.032 A 
ATOM      3  C13 <0> d           5.916   1.401  -1.952  0.00  0.00     0.033 A 
ATOM      4  C14 <0> d           6.153   2.767  -2.075  0.00  0.00     0.045 A 
ATOM      5  C15 <0> d           5.077   3.668  -1.985  0.00  0.00    -0.006 A 
ATOM      6  C16 <0> d           3.781   3.190  -1.779  0.00  0.00     0.043 A 
ATOM      7  C17 <0> d           5.653   5.005  -2.153  0.00  0.00     0.031 A 
ATOM      8  C18 <0> d           6.974   4.845  -2.326  0.00  0.00     0.092 A 
ATOM      9  N2  <0> d           7.293   3.515  -2.283  0.00  0.00    -0.347 N 
ENDROOT
BRANCH   1  10
ATOM     10  N1  <0> d           2.270   1.345  -1.441  0.00  0.00    -0.325 N 
ATOM     11  C10 <0> d           1.874   0.201  -2.033  0.00  0.00     0.254 C 
ATOM     12  O3  <0> d           2.668  -0.461  -2.668  0.00  0.00    -0.270 OA
ATOM     13  H10 <0> d           1.658   1.831  -0.867  0.00  0.00     0.169 HD
BRANCH  11  14
ATOM     14  C3  <0> d           0.443  -0.257  -1.907  0.00  0.00     0.250 C 
ATOM     15  C2  <0> d           0.210  -0.845  -0.509  0.00  0.00     0.163 C 
ATOM     16  C1  <0> d           0.501   0.216   0.553  0.00  0.00     0.043 C 
ATOM     17  O2  <0> d           1.096  -1.957  -0.337  0.00  0.00    -0.340 OA
ATOM     18  C9  <0> d           1.171  -2.845  -1.366  0.00  0.00     0.102 A 
ATOM     19  C4  <0> d           0.716  -2.504  -2.634  0.00  0.00     0.103 A 
ATOM     20  C8  <0> d           1.712  -4.102  -1.142  0.00  0.00     0.039 A 
ATOM     21  O1  <0> d           0.176  -1.278  -2.874  0.00  0.00    -0.331 OA
ATOM     22  C5  <0> d           0.811  -3.421  -3.670  0.00  0.00     0.040 A 
ATOM     23  C6  <0> d           1.353  -4.671  -3.441  0.00  0.00     0.003 A 
ATOM     24  C7  <0> d           1.802  -5.011  -2.179  0.00  0.00     0.003 A 
ENDBRANCH  11  14
ENDBRANCH   1  10
BRANCH   9  25
ATOM     25  C19 <0> d           8.643   2.967  -2.434  0.00  0.00     0.231 C 
BRANCH  25  26
ATOM     26  C20 <0> d           8.867   2.573  -3.871  0.00  0.00     0.237 C 
ATOM     27  O4  <0> d           7.985   2.734  -4.689  0.00  0.00    -0.272 OA
ATOM     28  N3  <0> d          10.047   2.042  -4.248  0.00  0.00    -0.359 N 
ATOM     29  C21 <0> d          10.264   1.659  -5.646  0.00  0.00     0.152 C 
ATOM     30  C22 <0> d          11.112   1.848  -3.261  0.00  0.00     0.152 C 
ENDBRANCH  25  26
ENDBRANCH   9  25
TORSDOF 4
