REMARK  5 active torsions:
REMARK  status: ('A' for Active; 'I' for Inactive)
REMARK       I    between atoms: N1_2  and  C2_3 
REMARK    1  A    between atoms: C2_3  and  C3_5 
REMARK    2  A    between atoms: C6_8  and  C9_11 
REMARK    3  A    between atoms: C9_11  and  N2_12 
REMARK    4  A    between atoms: N2_12  and  C11_14 
REMARK    5  A    between atoms: C11_14  and  C12_15 
ROOT
ATOM      1  N2  <0> d          -0.533  -6.921  -1.740  0.00  0.00    -0.064 N 
ATOM      2  C10 <0> d          -1.731  -6.553  -0.973  0.00  0.00     0.270 C 
ATOM      3  H20 <0> d          -0.586  -6.514  -2.661  0.00  0.00     0.280 HD
ENDROOT
BRANCH   1   4
ATOM      4  C9  <0> d           0.663  -6.419  -1.050  0.00  0.00     0.273 C 
BRANCH   4   5
ATOM      5  C6  <0> d           0.642  -4.912  -1.042  0.00  0.00    -0.033 A 
ATOM      6  C5  <0> d           0.038  -4.237   0.004  0.00  0.00     0.010 A 
ATOM      7  C4  <0> d           0.016  -2.857   0.018  0.00  0.00     0.017 A 
ATOM      8  C3  <0> d           0.605  -2.143  -1.026  0.00  0.00     0.032 A 
ATOM      9  C8  <0> d           1.208  -2.830  -2.081  0.00  0.00     0.017 A 
ATOM     10  C7  <0> d           1.228  -4.209  -2.079  0.00  0.00     0.010 A 
BRANCH   8  11
ATOM     11  C2  <0> d           0.585  -0.664  -1.018  0.00  0.00     0.251 C 
ATOM     12  N1  <0> d           0.002  -0.004   0.002  0.00  0.00    -0.361 N 
ATOM     13  C1  <0> d          -0.018   1.461   0.010  0.00  0.00     0.149 C 
ATOM     14  H4  <0> d          -0.404  -0.499   0.731  0.00  0.00     0.162 HD
ATOM     15  O1  <0> d           1.094  -0.045  -1.931  0.00  0.00    -0.268 OA
ENDBRANCH   8  11
ENDBRANCH   4   5
ENDBRANCH   1   4
BRANCH   1  16
ATOM     16  C11 <0> d          -0.455  -8.383  -1.853  0.00  0.00     0.314 C 
BRANCH  16  17
ATOM     17  C12 <0> d          -1.619  -8.887  -2.667  0.00  0.00     0.155 A 
ATOM     18  N4  <0> d          -1.487  -8.992  -3.973  0.00  0.00    -0.228 NA
ATOM     19  C15 <0> d          -2.493  -9.437  -4.720  0.00  0.00     0.110 A 
ATOM     20  C14 <0> d          -3.703  -9.785  -4.108  0.00  0.00     0.161 A 
ATOM     21  C16 <0> d          -2.691  -9.679  -6.159  0.00  0.00     0.030 A 
ATOM     22  C13 <0> d          -3.796  -9.651  -2.720  0.00  0.00     0.238 A 
ATOM     23  O3  <0> d          -4.565 -10.200  -5.059  0.00  0.00    -0.303 OA
ATOM     24  N3  <0> d          -2.742  -9.204  -2.049  0.00  0.00    -0.203 NA
ATOM     25  O2  <0> d          -4.942  -9.972  -2.070  0.00  0.00    -0.167 OA
ATOM     26  C21 <0> d          -4.005 -10.152  -6.287  0.00  0.00     0.089 A 
ATOM     27  C20 <0> d          -4.490 -10.473  -7.550  0.00  0.00     0.038 A 
ATOM     28  C19 <0> d          -3.683 -10.325  -8.658  0.00  0.00     0.003 A 
ATOM     29  C18 <0> d          -2.385  -9.858  -8.528  0.00  0.00     0.001 A 
ATOM     30  C17 <0> d          -1.886  -9.534  -7.285  0.00  0.00     0.017 A 
ENDBRANCH  16  17
ENDBRANCH   1  16
TORSDOF 5
