REMARK  3 active torsions:
REMARK  status: ('A' for Active; 'I' for Inactive)
REMARK    1  A    between atoms: N1_6  and  C6_9 
REMARK    2  A    between atoms: C6_9  and  C7_10 
REMARK    3  A    between atoms: C10_13  and  N3_16 
ROOT
ATOM      1  C7  <0> d           0.216  -4.666  -1.446  0.00  0.00    -0.040 A 
ATOM      2  C8  <0> d          -0.968  -4.964  -2.094  0.00  0.00     0.011 A 
ATOM      3  C9  <0> d          -0.949  -5.416  -3.399  0.00  0.00     0.029 A 
ATOM      4  C10 <0> d           0.263  -5.572  -4.060  0.00  0.00     0.025 A 
ATOM      5  C11 <0> d           1.451  -5.272  -3.406  0.00  0.00     0.029 A 
ATOM      6  C12 <0> d           1.424  -4.815  -2.104  0.00  0.00     0.011 A 
ENDROOT
BRANCH   1   7
ATOM      7  C6  <0> d           0.191  -4.172  -0.022  0.00  0.00     0.171 C 
BRANCH   7   8
ATOM      8  N1  <0> d           0.097  -2.710  -0.014  0.00  0.00    -0.304 N 
ATOM      9  C4  <0> d          -1.113  -2.111  -0.005  0.00  0.00     0.250 A 
ATOM     10  C3  <0> d          -1.167  -0.702   0.004  0.00  0.00     0.101 A 
ATOM     11  O1  <0> d          -2.136  -2.774  -0.004  0.00  0.00    -0.268 OA
ATOM     12  C2  <0> d           0.002  -0.004   0.002  0.00  0.00     0.037 A 
ATOM     13  C1  <0> d          -0.018   1.503   0.010  0.00  0.00     0.070 C 
ATOM     14  N2  <0> d           1.167  -0.657  -0.013  0.00  0.00    -0.248 NA
ATOM     15  C5  <0> d           1.218  -1.962  -0.015  0.00  0.00     0.212 A 
ENDBRANCH   7   8
ENDBRANCH   1   7
BRANCH   4  16
ATOM     16  N3  <0> d           0.286  -6.030  -5.380  0.00  0.00    -0.399 N 
ATOM     17  H12 <0> d          -0.545  -6.239  -5.835  0.00  0.00     0.156 HD
ATOM     18  H13 <0> d           1.132  -6.139  -5.840  0.00  0.00     0.156 HD
ENDBRANCH   4  16
TORSDOF 3
