REMARK  6 active torsions:
REMARK  status: ('A' for Active; 'I' for Inactive)
REMARK    1  A    between atoms: C4_4  and  N3_9 
REMARK    2  A    between atoms: C10_13  and  O1_15 
REMARK    3  A    between atoms: O1_15  and  C12_16 
REMARK    4  A    between atoms: C12_16  and  C13_18 
REMARK    5  A    between atoms: C13_18  and  N4_19 
REMARK    6  A    between atoms: N4_19  and  C15_21 
ROOT
ATOM      1  O1  <0> d          -1.095  -2.169  -5.777  0.00  0.00    -0.313 OA
ENDROOT
BRANCH   1   2
ATOM      2  C10 <0> d          -1.144  -2.716  -4.458  0.00  0.00     0.150 C 
ATOM      3  C9  <0> d          -1.033  -4.241  -4.532  0.00  0.00     0.036 C 
ATOM      4  C8  <0> d          -1.120  -4.830  -3.122  0.00  0.00     0.022 C 
ATOM      5  C7  <0> d           0.044  -4.300  -2.279  0.00  0.00     0.124 C 
ATOM      6  N3  <0> d           0.030  -2.832  -2.322  0.00  0.00    -0.363 N 
ATOM      7  C11 <0> d           0.014  -2.163  -3.630  0.00  0.00     0.157 C 
BRANCH   6   8
ATOM      8  C4  <0> d           0.026  -2.092  -1.150  0.00  0.00     0.129 A 
ATOM      9  C3  <0> d           0.222  -0.710  -1.184  0.00  0.00     0.075 A 
ATOM     10  C2  <0> d           0.209  -0.017   0.011  0.00  0.00     0.010 A 
ATOM     11  C1  <0> d           0.416   1.476   0.029  0.00  0.00     0.068 C 
ATOM     12  N2  <0> d           0.016  -0.681   1.142  0.00  0.00    -0.348 N 
ATOM     13  C5  <0> d          -0.171  -1.986   1.139  0.00  0.00     0.102 A 
ATOM     14  H25 <0> d           0.010  -0.199   1.984  0.00  0.00     0.167 HD
ATOM     15  N1  <0> d          -0.166  -2.686   0.024  0.00  0.00    -0.218 NA
ATOM     16  C6  <0> d          -0.392  -2.696   2.450  0.00  0.00     0.091 C 
ENDBRANCH   6   8
ENDBRANCH   1   2
BRANCH   1  17
ATOM     17  C12 <0> d          -2.264  -2.019  -6.419  0.00  0.00     0.277 C 
ATOM     18  O2  <0> d          -3.295  -2.341  -5.878  0.00  0.00    -0.263 OA
BRANCH  17  19
ATOM     19  C13 <0> d          -2.290  -1.449  -7.813  0.00  0.00     0.235 C 
BRANCH  19  20
ATOM     20  N4  <0> d          -3.674  -1.387  -8.290  0.00  0.00    -0.359 N 
ATOM     21  C14 <0> d          -4.479  -0.188  -8.048  0.00  0.00     0.152 C 
BRANCH  20  22
ATOM     22  C15 <0> d          -4.220  -2.462  -8.969  0.00  0.00     0.160 A 
ATOM     23  C16 <0> d          -5.546  -2.421  -9.433  0.00  0.00     0.149 A 
ATOM     24  N6  <0> d          -6.543  -1.505  -9.387  0.00  0.00    -0.236 NA
ATOM     25  C17 <0> d          -6.045  -3.543 -10.116  0.00  0.00     0.162 A 
ATOM     26  C18 <0> d          -7.597  -1.982  -9.984  0.00  0.00     0.209 A 
ATOM     27  N5  <0> d          -7.340  -3.237 -10.451  0.00  0.00    -0.333 N 
ATOM     28  H2  <0> d          -7.958  -3.808 -10.932  0.00  0.00     0.168 HD
ATOM     29  N7  <0> d          -5.252  -4.594 -10.297  0.00  0.00    -0.222 NA
ATOM     30  C19 <0> d          -4.016  -4.588  -9.844  0.00  0.00     0.237 A 
ATOM     31  N8  <0> d          -3.502  -3.556  -9.202  0.00  0.00    -0.222 NA
ENDBRANCH  20  22
ENDBRANCH  19  20
ENDBRANCH  17  19
ENDBRANCH   1  17
TORSDOF 6
