REMARK  5 active torsions:
REMARK  status: ('A' for Active; 'I' for Inactive)
REMARK    1  A    between atoms: N1_2  and  C3_4 
REMARK    2  A    between atoms: C3_4  and  C4_5 
REMARK    3  A    between atoms: C3_4  and  C15_21 
REMARK    4  A    between atoms: C4_5  and  N2_6 
REMARK       I    between atoms: N2_6  and  C5_7 
REMARK    5  A    between atoms: C5_7  and  C6_9 
ROOT
ATOM      1  N2  <0> d          -0.871  -2.414   1.123  0.00  0.00    -0.354 N 
ATOM      2  C5  <0> d          -0.780  -3.742   1.331  0.00  0.00     0.268 C 
ATOM      3  O1  <0> d          -1.308  -4.516   0.558  0.00  0.00    -0.266 OA
ATOM      4  H11 <0> d          -0.449  -1.796   1.740  0.00  0.00     0.162 HD
ENDROOT
BRANCH   1   5
ATOM      5  C4  <0> d          -1.606  -1.903  -0.037  0.00  0.00     0.156 C 
BRANCH   5   6
ATOM      6  C3  <0> d          -1.399  -0.391  -0.147  0.00  0.00     0.209 C 
BRANCH   6   7
ATOM      7  N1  <0> d          -0.011  -0.115  -0.542  0.00  0.00    -0.073 N 
ATOM      8  C1  <0> d           0.904  -0.658   0.471  0.00  0.00     0.269 C 
ATOM      9  C2  <0> d           0.264  -0.747  -1.839  0.00  0.00     0.269 C 
ATOM     10  H28 <0> d           0.125   0.882  -0.618  0.00  0.00     0.279 HD
ENDBRANCH   6   7
BRANCH   6  11
ATOM     11  C15 <0> d          -2.352   0.179  -1.199  0.00  0.00     0.018 C 
ATOM     12  C20 <0> d          -3.797  -0.008  -0.733  0.00  0.00     0.007 C 
ATOM     13  C19 <0> d          -4.750   0.563  -1.786  0.00  0.00     0.000 C 
ATOM     14  C18 <0> d          -4.465   2.053  -1.978  0.00  0.00     0.000 C 
ATOM     15  C17 <0> d          -3.019   2.240  -2.444  0.00  0.00     0.000 C 
ATOM     16  C16 <0> d          -2.066   1.670  -1.391  0.00  0.00     0.007 C 
ENDBRANCH   6  11
ENDBRANCH   5   6
ENDBRANCH   1   5
BRANCH   2  17
ATOM     17  C6  <0> d          -0.035  -4.259   2.505  0.00  0.00     0.105 A 
ATOM     18  N3  <0> d           0.042  -5.608   2.694  0.00  0.00    -0.351 N 
ATOM     19  C14 <0> d           0.723  -6.149   3.759  0.00  0.00     0.047 A 
ATOM     20  H1  <0> d          -0.390  -6.201   2.059  0.00  0.00     0.166 HD
ATOM     21  C9  <0> d           1.349  -5.300   4.690  0.00  0.00     0.041 A 
ATOM     22  C13 <0> d           0.798  -7.529   3.937  0.00  0.00     0.030 A 
ATOM     23  C8  <0> d           1.260  -3.845   4.488  0.00  0.00     0.186 A 
ATOM     24  C10 <0> d           2.037  -5.842   5.778  0.00  0.00     0.018 A 
ATOM     25  C7  <0> d           0.541  -3.374   3.357  0.00  0.00     0.091 A 
ATOM     26  O2  <0> d           1.786  -3.068   5.267  0.00  0.00    -0.287 OA
ATOM     27  C11 <0> d           2.098  -7.198   5.932  0.00  0.00     0.001 A 
ATOM     28  C12 <0> d           1.482  -8.042   5.017  0.00  0.00     0.002 A 
ENDBRANCH   2  17
TORSDOF 5
