REMARK  5 active torsions:
REMARK  status: ('A' for Active; 'I' for Inactive)
REMARK    1  A    between atoms: C7_11  and  C8_13 
REMARK    2  A    between atoms: C8_13  and  N3_14 
REMARK    3  A    between atoms: N4_17  and  C13_20 
REMARK    4  A    between atoms: C13_20  and  C14_21 
REMARK    5  A    between atoms: N8_25  and  C15_26 
ROOT
ATOM      1  N3  <0> d           0.491  -4.534   5.407  0.00  0.00    -0.061 N 
ATOM      2  C9  <0> d           1.669  -4.706   4.546  0.00  0.00     0.265 C 
ATOM      3  C10 <0> d           1.516  -5.987   3.723  0.00  0.00     0.300 C 
ATOM      4  N4  <0> d           1.378  -7.135   4.630  0.00  0.00     0.099 N 
ATOM      5  C11 <0> d           0.217  -6.965   5.515  0.00  0.00     0.300 C 
ATOM      6  C12 <0> d           0.381  -5.676   6.323  0.00  0.00     0.265 C 
ATOM      7  H25 <0> d          -0.338  -4.481   4.834  0.00  0.00     0.280 HD
ENDROOT
BRANCH   1   8
ATOM      8  C8  <0> d           0.630  -3.295   6.184  0.00  0.00     0.313 C 
BRANCH   8   9
ATOM      9  C7  <0> d           0.620  -2.112   5.250  0.00  0.00     0.134 A 
ATOM     10  N1  <0> d           0.736  -0.859   5.759  0.00  0.00    -0.309 N 
ATOM     11  C6  <0> d           0.731   0.224   4.960  0.00  0.00     0.260 A 
ATOM     12  H1  <0> d           0.825  -0.742   6.718  0.00  0.00     0.170 HD
ATOM     13  C5  <0> d           0.600   0.042   3.545  0.00  0.00     0.075 A 
ATOM     14  O1  <0> d           0.836   1.343   5.434  0.00  0.00    -0.267 OA
ATOM     15  C2  <0> d           0.568   1.036   2.488  0.00  0.00    -0.031 A 
ATOM     16  C4  <0> d           0.481  -1.291   3.112  0.00  0.00     0.116 A 
ATOM     17  C1  <0> d           0.682   2.502   2.817  0.00  0.00     0.050 C 
ATOM     18  C3  <0> d           0.441   0.633   1.214  0.00  0.00    -0.012 A 
ATOM     19  S1  <0> d           0.347  -1.142   1.349  0.00  0.00    -0.074 SA
ATOM     20  C21 <0> d           0.390   1.479  -0.033  0.00  0.00     0.057 C 
ATOM     21  N2  <0> d           0.489  -2.311   3.965  0.00  0.00    -0.225 NA
ENDBRANCH   8   9
ENDBRANCH   1   8
BRANCH   4  22
ATOM     22  C13 <0> d           1.286  -8.393   3.876  0.00  0.00     0.354 C 
BRANCH  22  23
ATOM     23  C14 <0> d           1.533  -9.554   4.804  0.00  0.00     0.181 A 
ATOM     24  N8  <0> d           2.737 -10.053   5.159  0.00  0.00    -0.196 N 
ATOM     25  N7  <0> d           2.453 -11.117   6.033  0.00  0.00    -0.039 NA
ATOM     26  N6  <0> d           1.168 -11.183   6.130  0.00  0.00    -0.023 NA
ATOM     27  N5  <0> d           0.622 -10.269   5.412  0.00  0.00    -0.112 NA
BRANCH  24  28
ATOM     28  C15 <0> d           4.000  -9.605   4.746  0.00  0.00     0.062 A 
ATOM     29  C20 <0> d           5.028  -9.475   5.670  0.00  0.00     0.032 A 
ATOM     30  C19 <0> d           6.273  -9.039   5.259  0.00  0.00     0.002 A 
ATOM     31  C18 <0> d           6.492  -8.722   3.931  0.00  0.00     0.000 A 
ATOM     32  C17 <0> d           5.468  -8.845   3.010  0.00  0.00     0.002 A 
ATOM     33  C16 <0> d           4.223  -9.286   3.413  0.00  0.00     0.032 A 
ENDBRANCH  24  28
ENDBRANCH  22  23
ENDBRANCH   4  22
TORSDOF 5
