REMARK  5 active torsions:
REMARK  status: ('A' for Active; 'I' for Inactive)
REMARK    1  A    between atoms: C4_4  and  N1_7 
REMARK    2  A    between atoms: C9_11  and  C21_27 
REMARK    3  A    between atoms: C13_15  and  C16_19 
REMARK    4  A    between atoms: C24_30  and  O4_34 
REMARK    5  A    between atoms: C25_31  and  O3_33 
ROOT
ATOM      1  N1  <0> d           3.622  -0.650  -0.036  0.00  0.00    -0.199 N 
ATOM      2  C7  <0> d           3.745  -1.996  -0.050  0.00  0.00     0.257 A 
ATOM      3  O1  <0> d           2.854  -2.817   0.018  0.00  0.00    -0.270 OA
ATOM      4  C8  <0> d           5.228  -2.262  -0.169  0.00  0.00     0.164 A 
ATOM      5  C9  <0> d           5.752  -3.028   1.045  0.00  0.00     0.078 C 
ATOM      6  C10 <0> d           7.234  -2.778   1.225  0.00  0.00     0.020 C 
ATOM      7  C11 <0> d           7.868  -1.688   0.745  0.00  0.00     0.022 C 
ATOM      8  C12 <0> d           9.350  -1.487   0.956  0.00  0.00     0.068 C 
ATOM      9  C13 <0> d           9.780  -2.141   2.270  0.00  0.00     0.038 C 
ATOM     10  C14 <0> d           9.420  -3.629   2.204  0.00  0.00     0.094 C 
ATOM     11  C15 <0> d           7.947  -3.761   1.941  0.00  0.00     0.159 C 
ATOM     12  O2  <0> d           7.355  -4.739   2.354  0.00  0.00    -0.293 OA
ATOM     13  N2  <0> d           7.206  -0.712   0.030  0.00  0.00    -0.345 N 
ATOM     14  C20 <0> d           5.832  -0.863  -0.081  0.00  0.00     0.139 A 
ATOM     15  N3  <0> d           4.871  -0.028  -0.046  0.00  0.00    -0.150 NA
ATOM     16  H16 <0> d           7.672   0.034  -0.379  0.00  0.00     0.167 HD
ENDROOT
BRANCH   5  17
ATOM     17  C21 <0> d           5.520  -4.503   0.842  0.00  0.00    -0.045 A 
ATOM     18  C26 <0> d           4.735  -5.208   1.736  0.00  0.00     0.047 A 
ATOM     19  C25 <0> d           4.517  -6.563   1.548  0.00  0.00     0.099 A 
ATOM     20  C24 <0> d           5.098  -7.214   0.464  0.00  0.00     0.098 A 
ATOM     21  C23 <0> d           5.888  -6.504  -0.425  0.00  0.00     0.040 A 
ATOM     22  C22 <0> d           6.098  -5.151  -0.234  0.00  0.00     0.011 A 
BRANCH  19  23
ATOM     23  O3  <0> d           3.740  -7.256   2.423  0.00  0.00    -0.358 OA
ATOM     24  H20 <0> d           4.228  -7.636   3.166  0.00  0.00     0.217 HD
ENDBRANCH  19  23
BRANCH  20  25
ATOM     25  O4  <0> d           4.890  -8.545   0.277  0.00  0.00    -0.358 OA
ATOM     26  H21 <0> d           5.543  -9.110   0.713  0.00  0.00     0.217 HD
ENDBRANCH  20  25
ENDBRANCH   5  17
BRANCH   1  27
ATOM     27  C4  <0> d           2.400   0.031  -0.021  0.00  0.00     0.062 A 
ATOM     28  C3  <0> d           2.377   1.420  -0.013  0.00  0.00     0.032 A 
ATOM     29  C2  <0> d           1.170   2.090   0.002  0.00  0.00     0.002 A 
ATOM     30  C1  <0> d          -0.017   1.379   0.010  0.00  0.00     0.000 A 
ATOM     31  C6  <0> d           0.002  -0.004   0.002  0.00  0.00     0.002 A 
ATOM     32  C5  <0> d           1.206  -0.680  -0.013  0.00  0.00     0.032 A 
ENDBRANCH   1  27
BRANCH   9  33
ATOM     33  C16 <0> d          11.268  -1.984   2.453  0.00  0.00    -0.013 A 
ATOM     34  S1  <0> d          12.596  -2.566   1.411  0.00  0.00    -0.106 SA
ATOM     35  C19 <0> d          13.963  -1.944   2.376  0.00  0.00     0.050 A 
ATOM     36  C18 <0> d          13.326  -1.350   3.415  0.00  0.00     0.008 A 
ATOM     37  C17 <0> d          11.944  -1.371   3.454  0.00  0.00     0.015 A 
ENDBRANCH   9  33
TORSDOF 5
