REMARK  2 active torsions:
REMARK  status: ('A' for Active; 'I' for Inactive)
REMARK    1  A    between atoms: C4_5  and  C6_7 
REMARK       I    between atoms: C6_7  and  N1_9 
REMARK    2  A    between atoms: N1_9  and  C7_10 
ROOT
ATOM      1  C7  <0> d          -0.194  -4.115  -1.319  0.00  0.00     0.174 A 
ATOM      2  N2  <0> d           0.869  -4.879  -1.184  0.00  0.00    -0.228 NA
ATOM      3  C8  <0> d           0.784  -6.203  -1.189  0.00  0.00     0.053 A 
ATOM      4  C9  <0> d          -0.473  -6.698  -1.344  0.00  0.00     0.036 A 
ATOM      5  S1  <0> d          -1.451  -5.229  -1.463  0.00  0.00    -0.053 SA
ATOM      6  C10 <0> d          -0.870  -8.132  -1.393  0.00  0.00     0.280 C 
ATOM      7  N3  <0> d           0.344  -8.940  -1.617  0.00  0.00    -0.070 N 
ATOM      8  C11 <0> d           1.384  -8.540  -0.660  0.00  0.00     0.238 C 
ATOM      9  C12 <0> d           1.953  -7.167  -1.033  0.00  0.00     0.088 C 
ATOM     10  H12 <0> d           0.127  -9.917  -1.488  0.00  0.00     0.277 HD
ATOM     11  H18 <0> d           0.678  -8.792  -2.558  0.00  0.00     0.277 HD
ENDROOT
BRANCH   1  12
ATOM     12  N1  <0> d          -0.263  -2.727  -1.334  0.00  0.00    -0.303 N 
ATOM     13  C6  <0> d           0.861  -1.994  -1.205  0.00  0.00     0.252 C 
ATOM     14  O2  <0> d           1.933  -2.546  -1.075  0.00  0.00    -0.270 OA
ATOM     15  H17 <0> d          -1.121  -2.285  -1.438  0.00  0.00     0.171 HD
BRANCH  13  16
ATOM     16  C4  <0> d           0.785  -0.489  -1.221  0.00  0.00     0.213 C 
ATOM     17  O1  <0> d           2.106   0.054  -1.185  0.00  0.00    -0.376 OA
ATOM     18  C3  <0> d           2.151   1.482  -1.223  0.00  0.00     0.168 C 
ATOM     19  C2  <0> d           1.422   2.047  -0.001  0.00  0.00     0.026 C 
ATOM     20  C1  <0> d          -0.019   1.528   0.010  0.00  0.00     0.005 C 
ATOM     21  C5  <0> d           0.002  -0.004   0.002  0.00  0.00     0.042 C 
ENDBRANCH  13  16
ENDBRANCH   1  12
TORSDOF 2
