REMARK  5 active torsions:
REMARK  status: ('A' for Active; 'I' for Inactive)
REMARK    1  A    between atoms: C5_6  and  O2_10 
REMARK    2  A    between atoms: C6_7  and  C7_8 
REMARK    3  A    between atoms: C7_8  and  O1_9 
REMARK    4  A    between atoms: O2_10  and  C8_11 
REMARK    5  A    between atoms: C11_14  and  S1_17 
ROOT
ATOM      1  C1  <0> d          -0.095   1.507   0.023  0.00  0.00     0.049 C 
ATOM      2  C2  <0> d          -0.075   0.001   0.011  0.00  0.00    -0.047 A 
ATOM      3  C3  <0> d          -0.112  -0.700  -1.187  0.00  0.00     0.034 A 
ATOM      4  C4  <0> d          -0.092  -2.081  -1.163  0.00  0.00     0.034 A 
ATOM      5  N1  <0> d          -0.039  -2.736  -0.019  0.00  0.00    -0.229 NA
ATOM      6  C5  <0> d          -0.003  -2.104   1.142  0.00  0.00     0.179 A 
ATOM      7  C6  <0> d          -0.014  -0.716   1.193  0.00  0.00     0.024 A 
ATOM      8  C15 <0> d          -0.131  -2.848  -2.459  0.00  0.00     0.070 C 
ENDROOT
BRANCH   6   9
ATOM      9  O2  <0> d           0.051  -2.818   2.295  0.00  0.00    -0.291 OA
BRANCH   9  10
ATOM     10  C8  <0> d          -0.036  -4.172   2.211  0.00  0.00     0.078 A 
ATOM     11  C13 <0> d          -1.223  -4.813   2.536  0.00  0.00     0.039 A 
ATOM     12  C12 <0> d          -1.310  -6.189   2.445  0.00  0.00     0.026 A 
ATOM     13  C11 <0> d          -0.213  -6.928   2.042  0.00  0.00     0.059 A 
ATOM     14  C10 <0> d           0.972  -6.291   1.722  0.00  0.00     0.026 A 
ATOM     15  C9  <0> d           1.063  -4.915   1.806  0.00  0.00     0.039 A 
BRANCH  13  16
ATOM     16  S1  <0> d          -0.326  -8.683   1.934  0.00  0.00     0.171 S 
ATOM     17  O3  <0> d          -1.704  -8.944   1.711  0.00  0.00    -0.223 OA
ATOM     18  O4  <0> d           0.647  -9.050   0.965  0.00  0.00    -0.223 OA
ATOM     19  C14 <0> d           0.168  -9.283   3.573  0.00  0.00     0.167 C 
ENDBRANCH  13  16
ENDBRANCH   9  10
ENDBRANCH   6   9
BRANCH   7  20
ATOM     20  C7  <0> d           0.033   0.000   2.518  0.00  0.00     0.207 C 
BRANCH  20  21
ATOM     21  O1  <0> d          -1.298   0.208   2.995  0.00  0.00    -0.396 OA
ATOM     22  H7  <0> d          -1.344   0.665   3.846  0.00  0.00     0.209 HD
ENDBRANCH  20  21
ENDBRANCH   7  20
TORSDOF 5
