REMARK  4 active torsions:
REMARK  status: ('A' for Active; 'I' for Inactive)
REMARK    1  A    between atoms: C2_2  and  C3_3 
REMARK    2  A    between atoms: C3_3  and  C4_4 
REMARK    3  A    between atoms: C5_6  and  N4_16 
REMARK    4  A    between atoms: N2_7  and  C6_9 
ROOT
ATOM      1  C4  <0> d           0.857  -2.028   1.353  0.00  0.00     0.166 A 
ATOM      2  N1  <0> d          -0.062  -2.807   1.925  0.00  0.00    -0.046 NA
ATOM      3  C5  <0> d           0.132  -4.059   1.566  0.00  0.00     0.723 A 
ATOM      4  N2  <0> d           1.204  -4.091   0.742  0.00  0.00    -0.059 N 
ATOM      5  N3  <0> d           1.647  -2.764   0.619  0.00  0.00    -0.136 NA
ENDROOT
BRANCH   4   6
ATOM      6  C6  <0> d           1.759  -5.223   0.129  0.00  0.00     0.094 A 
ATOM      7  C11 <0> d           3.129  -5.443   0.182  0.00  0.00     0.040 A 
ATOM      8  C10 <0> d           3.672  -6.562  -0.419  0.00  0.00     0.021 A 
ATOM      9 Br1  <0> d           4.250  -4.215   1.083  0.00  0.00    -0.049 Br
ATOM     10  C9  <0> d           2.853  -7.457  -1.083  0.00  0.00     0.002 A 
ATOM     11  C8  <0> d           1.489  -7.238  -1.143  0.00  0.00     0.002 A 
ATOM     12  C7  <0> d           0.940  -6.124  -0.539  0.00  0.00     0.034 A 
ENDBRANCH   4   6
BRANCH   3  13
ATOM     13  N4  <0> d          -0.625  -5.146   1.962  0.00  0.00    -0.231 N 
ATOM     14  H12 <0> d          -1.429  -5.012   2.488  0.00  0.00     0.174 HD
ATOM     15  H13 <0> d          -0.352  -6.043   1.713  0.00  0.00     0.174 HD
ENDBRANCH   3  13
BRANCH   1  16
ATOM     16  C3  <0> d           0.963  -0.534   1.523  0.00  0.00     0.082 C 
BRANCH  16  17
ATOM     17  C2  <0> d           0.125   0.162   0.448  0.00  0.00     0.003 C 
ATOM     18  C1  <0> d           0.233   1.678   0.621  0.00  0.00     0.005 C 
ENDBRANCH  16  17
ENDBRANCH   1  16
TORSDOF 4
