REMARK  8 active torsions:
REMARK  status: ('A' for Active; 'I' for Inactive)
REMARK       I    between atoms: C2_2  and  N1_4 
REMARK    1  A    between atoms: N1_4  and  C3_5 
REMARK    2  A    between atoms: C4_6  and  O6_18 
REMARK    3  A    between atoms: C5_7  and  O4_14 
REMARK    4  A    between atoms: C6_8  and  C9_13 
REMARK    5  A    between atoms: C7_10  and  O3_11 
REMARK    6  A    between atoms: C9_13  and  N2_25 
REMARK    7  A    between atoms: O4_14  and  C10_15 
REMARK    8  A    between atoms: O6_18  and  C12_19 
ROOT
ATOM      1  C3  <0> d           1.248   1.716  -0.001  0.00  0.00     0.171 C 
ATOM      2  C4  <0> d           2.364   0.847   0.587  0.00  0.00     0.191 C 
ATOM      3  C5  <0> d           3.689   1.612   0.502  0.00  0.00     0.194 C 
ATOM      4  C6  <0> d           3.956   1.993  -0.957  0.00  0.00     0.182 C 
ATOM      5  O2  <0> d           2.866   2.774  -1.451  0.00  0.00    -0.349 OA
ATOM      6  C7  <0> d           1.609   2.093  -1.440  0.00  0.00     0.284 C 
ENDROOT
BRANCH   1   7
ATOM      7  N1  <0> d          -0.011   0.966   0.007  0.00  0.00    -0.349 N 
ATOM      8  C2  <0> d          -1.187   1.624   0.017  0.00  0.00     0.214 C 
ATOM      9  C1  <0> d          -2.482   0.853   0.018  0.00  0.00     0.117 C 
ATOM     10  O1  <0> d          -1.204   2.837   0.023  0.00  0.00    -0.274 OA
ATOM     11  H9  <0> d           0.002  -0.004   0.002  0.00  0.00     0.163 HD
ENDBRANCH   1   7
BRANCH   6  12
ATOM     12  O3  <0> d           0.599   2.950  -1.976  0.00  0.00    -0.364 OA
ATOM     13  C8  <0> d           0.718   3.180  -3.381  0.00  0.00     0.204 C 
ENDBRANCH   6  12
BRANCH   2  14
ATOM     14  O6  <0> d           2.066   0.546   1.976  0.00  0.00    -0.311 OA
BRANCH  14  15
ATOM     15  C12 <0> d           2.524  -0.620   2.459  0.00  0.00     0.255 C 
ATOM     16  O7  <0> d           3.153  -1.364   1.745  0.00  0.00    -0.266 OA
ATOM     17  C13 <0> d           2.253  -1.000   3.891  0.00  0.00     0.126 C 
ENDBRANCH  14  15
ENDBRANCH   2  14
BRANCH   3  18
ATOM     18  O4  <0> d           3.608   2.815   1.311  0.00  0.00    -0.311 OA
BRANCH  18  19
ATOM     19  C10 <0> d           4.751   3.264   1.852  0.00  0.00     0.255 C 
ATOM     20  O5  <0> d           5.786   2.671   1.655  0.00  0.00    -0.266 OA
ATOM     21  C11 <0> d           4.745   4.507   2.704  0.00  0.00     0.126 C 
ENDBRANCH  18  19
ENDBRANCH   3  18
BRANCH   4  22
ATOM     22  C9  <0> d           5.247   2.809  -1.042  0.00  0.00     0.264 C 
BRANCH  22  23
ATOM     23  N2  <0> d           5.505   3.154  -2.451  0.00  0.00    -0.077 N 
ATOM     24  H15 <0> d           4.718   3.674  -2.834  0.00  0.00     0.274 HD
ATOM     25  H16 <0> d           6.351   3.717  -2.524  0.00  0.00     0.274 HD
ATOM     26  H23 <0> d           5.630   2.290  -2.992  0.00  0.00     0.274 HD
ENDBRANCH  22  23
ENDBRANCH   4  22
TORSDOF 8
