REMARK  3 active torsions:
REMARK  status: ('A' for Active; 'I' for Inactive)
REMARK    1  A    between atoms: C2_2  and  C7_10 
REMARK    2  A    between atoms: C7_10  and  N1_11 
REMARK    3  A    between atoms: N1_11  and  C8_12 
ROOT
ATOM      1  C7  <0> d           1.147   3.595   0.010  0.00  0.00     0.271 C 
ENDROOT
BRANCH   1   2
ATOM      2  C2  <0> d           1.170   2.088   0.002  0.00  0.00    -0.027 A 
ATOM      3  C1  <0> d          -0.017   1.380   0.010  0.00  0.00     0.054 A 
ATOM      4  C6  <0> d           0.002  -0.004   0.002  0.00  0.00     0.158 A 
ATOM      5  C5  <0> d           1.212  -0.680  -0.013  0.00  0.00     0.193 A 
ATOM      6  F1  <0> d          -1.158  -0.696   0.010  0.00  0.00    -0.203 F 
ATOM      7  C4  <0> d           2.401   0.032  -0.021  0.00  0.00     0.158 A 
ATOM      8  F2  <0> d           1.232  -2.030  -0.021  0.00  0.00    -0.200 F 
ATOM      9  C3  <0> d           2.378   1.416  -0.013  0.00  0.00     0.054 A 
ATOM     10  F3  <0> d           3.582  -0.624  -0.036  0.00  0.00    -0.203 F 
ENDBRANCH   1   2
BRANCH   1  11
ATOM     11  N1  <0> d           1.153   4.078   1.397  0.00  0.00    -0.066 N 
ATOM     12  H6  <0> d           0.339   3.727   1.879  0.00  0.00     0.278 HD
ATOM     13  H13 <0> d           1.986   3.752   1.864  0.00  0.00     0.278 HD
BRANCH  11  14
ATOM     14  C8  <0> d           1.131   5.547   1.405  0.00  0.00     0.201 C 
ATOM     15  C11 <0> d           1.008   6.063   2.867  0.00  0.00     0.173 C 
ATOM     16  S1  <0> d           1.607   7.793   2.666  0.00  0.00     0.146 S 
ATOM     17  C10 <0> d           2.568   7.603   1.109  0.00  0.00     0.142 C 
ATOM     18  O1  <0> d           0.494   8.643   2.421  0.00  0.00    -0.228 OA
ATOM     19  O2  <0> d           2.502   8.100   3.726  0.00  0.00    -0.228 OA
ATOM     20  C9  <0> d           2.443   6.089   0.815  0.00  0.00     0.049 C 
ENDBRANCH  11  14
ENDBRANCH   1  11
TORSDOF 3
