REMARK  3 active torsions:
REMARK  status: ('A' for Active; 'I' for Inactive)
REMARK    1  A    between atoms: C5_5  and  C8_9 
REMARK    2  A    between atoms: C8_9  and  C9_10 
REMARK    3  A    between atoms: C8_9  and  O2_21 
ROOT
ATOM      1  C9  <0> d           1.482  -4.708   0.213  0.00  0.00    -0.025 A 
ATOM      2  C10 <0> d           2.299  -4.767  -0.901  0.00  0.00     0.012 A 
ATOM      3  C11 <0> d           3.603  -5.205  -0.781  0.00  0.00     0.031 A 
ATOM      4  C12 <0> d           4.094  -5.586   0.461  0.00  0.00     0.041 A 
ATOM      5  C13 <0> d           3.271  -5.525   1.578  0.00  0.00    -0.030 A 
ATOM      6  C14 <0> d           1.969  -5.082   1.452  0.00  0.00     0.019 A 
ATOM      7  C15 <0> d           3.803  -5.938   2.925  0.00  0.00     0.050 C 
ATOM      8  C16 <0> d           4.803  -7.081   2.751  0.00  0.00     0.108 C 
ATOM      9  C17 <0> d           5.792  -6.737   1.670  0.00  0.00     0.222 C 
ATOM     10  O1  <0> d           6.944  -7.102   1.774  0.00  0.00    -0.273 OA
ATOM     11  N2  <0> d           5.413  -6.030   0.590  0.00  0.00    -0.327 N 
ATOM     12  H17 <0> d           6.060  -5.826  -0.104  0.00  0.00     0.169 HD
ENDROOT
BRANCH   1  13
ATOM     13  C8  <0> d           0.059  -4.229   0.077  0.00  0.00     0.186 C 
BRANCH  13  14
ATOM     14  C5  <0> d           0.039  -2.724   0.021  0.00  0.00    -0.001 A 
ATOM     15  C4  <0> d           0.024  -2.067  -1.200  0.00  0.00     0.014 A 
ATOM     16  C3  <0> d           0.005  -0.681  -1.203  0.00  0.00     0.027 A 
ATOM     17  C2  <0> d           0.002  -0.004   0.002  0.00  0.00     0.031 A 
ATOM     18  C1  <0> d          -0.018   1.503   0.010  0.00  0.00     0.070 C 
ATOM     19  N1  <0> d           0.022  -0.662   1.145  0.00  0.00    -0.258 NA
ATOM     20  C6  <0> d           0.035  -1.980   1.186  0.00  0.00     0.040 A 
ATOM     21  C7  <0> d           0.050  -2.683   2.519  0.00  0.00     0.071 C 
ENDBRANCH  13  14
BRANCH  13  22
ATOM     22  O2  <0> d          -0.509  -4.759  -1.122  0.00  0.00    -0.386 OA
ATOM     23  H18 <0> d          -0.042  -4.497  -1.927  0.00  0.00     0.210 HD
ENDBRANCH  13  22
ENDBRANCH   1  13
TORSDOF 3
