REMARK  4 active torsions:
REMARK  status: ('A' for Active; 'I' for Inactive)
REMARK    1  A    between atoms: C3_3  and  O10_37 
REMARK    2  A    between atoms: C6_8  and  O8_32 
REMARK    3  A    between atoms: C17_21  and  O7_30 
REMARK    4  A    between atoms: O8_32  and  C25_33 
ROOT
ATOM      1  C1  <0> d           1.329  10.678  -2.252  0.00  0.00     0.044 C 
ATOM      2  C2  <0> d           1.375   9.760  -1.031  0.00  0.00     0.174 C 
ATOM      3  C3  <0> d           0.108   8.844  -1.007  0.00  0.00     0.194 C 
ATOM      4  C4  <0> d          -0.999   9.614  -0.347  0.00  0.00     0.299 C 
ATOM      5  O1  <0> d          -1.803  10.162  -1.064  0.00  0.00    -0.262 OA
ATOM      6  O2  <0> d          -1.079   9.774   0.981  0.00  0.00    -0.300 OA
ATOM      7  C5  <0> d          -0.779   8.576   1.775  0.00  0.00     0.121 C 
ATOM      8  C6  <0> d          -1.773   7.513   1.267  0.00  0.00     0.201 C 
ATOM      9  C7  <0> d          -1.053   6.249   0.897  0.00  0.00    -0.028 C 
ATOM     10  C8  <0> d          -1.296   5.068   1.434  0.00  0.00    -0.046 C 
ATOM     11  C9  <0> d          -0.822   3.818   0.800  0.00  0.00    -0.009 C 
ATOM     12  C10 <0> d           0.361   3.882   0.188  0.00  0.00    -0.018 C 
ATOM     13  C11 <0> d           1.110   2.796  -0.269  0.00  0.00     0.016 C 
ATOM     14  C12 <0> d           0.804   1.524  -0.457  0.00  0.00     0.083 C 
ATOM     15  C13 <0> d          -0.479   1.005  -0.388  0.00  0.00     0.283 C 
ATOM     16  O3  <0> d          -0.602  -0.199  -0.470  0.00  0.00    -0.260 OA
ATOM     17  O4  <0> d          -1.585   1.741  -0.264  0.00  0.00    -0.302 OA
ATOM     18  C14 <0> d          -1.752   2.644   0.818  0.00  0.00     0.092 C 
ATOM     19  C15 <0> d          -1.570   1.850   2.111  0.00  0.00     0.051 C 
ATOM     20  C16 <0> d          -3.206   3.122   0.725  0.00  0.00     0.051 C 
ATOM     21  C17 <0> d           0.985   5.238  -0.102  0.00  0.00     0.166 C 
ATOM     22  C18 <0> d          -0.059   6.348  -0.265  0.00  0.00     0.037 C 
ATOM     23  C19 <0> d           0.648   7.688  -0.165  0.00  0.00     0.130 C 
ATOM     24  C20 <0> d           0.595   8.124   1.299  0.00  0.00    -0.029 C 
ATOM     25  C21 <0> d           1.650   8.108   2.073  0.00  0.00     0.019 C 
ATOM     26  C22 <0> d           2.115   7.640  -0.535  0.00  0.00     0.277 C 
ATOM     27  O5  <0> d           2.909   6.763  -0.308  0.00  0.00    -0.264 OA
ATOM     28  O6  <0> d           2.460   8.791  -1.153  0.00  0.00    -0.312 OA
ATOM     29  C23 <0> d          -0.817   6.113  -1.570  0.00  0.00     0.025 C 
ATOM     30  C24 <0> d          -1.900   4.980   2.820  0.00  0.00     0.049 C 
ATOM     31  C27 <0> d          -0.860   8.797   3.287  0.00  0.00     0.055 C 
ENDROOT
BRANCH   8  32
ATOM     32  O8  <0> d          -2.853   7.359   2.202  0.00  0.00    -0.308 OA
BRANCH  32  33
ATOM     33  C25 <0> d          -4.072   7.126   1.691  0.00  0.00     0.255 C 
ATOM     34  O9  <0> d          -4.222   7.055   0.494  0.00  0.00    -0.266 OA
ATOM     35  C26 <0> d          -5.253   6.954   2.611  0.00  0.00     0.126 C 
ENDBRANCH  32  33
ENDBRANCH   8  32
BRANCH  21  36
ATOM     36  O7  <0> d           1.672   5.099  -1.359  0.00  0.00    -0.390 OA
ATOM     37  H20 <0> d           2.210   5.957  -1.789  0.00  0.00     0.210 HD
ENDBRANCH  21  36
BRANCH   3  38
ATOM     38  O10 <0> d          -0.221   8.539  -2.357  0.00  0.00    -0.376 OA
ATOM     39  H30 <0> d          -1.088   7.900  -2.581  0.00  0.00     0.211 HD
ENDBRANCH   3  38
TORSDOF 4
