REMARK  5 active torsions:
REMARK  status: ('A' for Active; 'I' for Inactive)
REMARK    1  A    between atoms: C4_7  and  C5_8 
REMARK    2  A    between atoms: C5_8  and  C6_9 
REMARK    3  A    between atoms: C6_9  and  C7_10 
REMARK       I    between atoms: C7_10  and  N3_12 
REMARK    4  A    between atoms: N3_12  and  C8_13 
REMARK    5  A    between atoms: C13_18  and  C14_19 
ROOT
ATOM      1  C8  <0> d          -2.619   0.885   6.432  0.00  0.00     0.047 A 
ATOM      2  C9  <0> d          -1.448   1.040   7.157  0.00  0.00     0.030 A 
ATOM      3  C10 <0> d          -1.499   1.463   8.472  0.00  0.00     0.002 A 
ATOM      4  C11 <0> d          -2.716   1.735   9.072  0.00  0.00     0.001 A 
ATOM      5  C12 <0> d          -3.890   1.586   8.363  0.00  0.00     0.016 A 
ATOM      6  C13 <0> d          -3.852   1.166   7.035  0.00  0.00     0.027 A 
ENDROOT
BRANCH   1   7
ATOM      7  N3  <0> d          -2.569   0.457   5.102  0.00  0.00    -0.326 N 
ATOM      8  C7  <0> d          -1.595  -0.384   4.701  0.00  0.00     0.222 C 
ATOM      9  O1  <0> d          -0.723  -0.715   5.475  0.00  0.00    -0.273 OA
ATOM     10  H10 <0> d          -3.236   0.765   4.468  0.00  0.00     0.169 HD
BRANCH   8  11
ATOM     11  C6  <0> d          -1.591  -0.913   3.289  0.00  0.00     0.109 C 
BRANCH  11  12
ATOM     12  C5  <0> d          -0.388  -1.839   3.096  0.00  0.00     0.068 C 
BRANCH  12  13
ATOM     13  C4  <0> d          -0.383  -2.367   1.685  0.00  0.00     0.036 A 
ATOM     14  C2  <0> d           0.144  -1.748   0.603  0.00  0.00    -0.012 A 
ATOM     15  C1  <0> d           0.830  -0.407   0.595  0.00  0.00     0.052 C 
ATOM     16  C3  <0> d          -0.057  -2.576  -0.507  0.00  0.00     0.058 A 
ATOM     17  N1  <0> d          -0.686  -3.651  -0.106  0.00  0.00    -0.179 NA
ATOM     18  C20 <0> d           0.377  -2.281  -1.919  0.00  0.00     0.072 C 
ATOM     19  N2  <0> d          -0.906  -3.541   1.273  0.00  0.00    -0.281 N 
ATOM     20  H1  <0> d          -1.352  -4.195   1.834  0.00  0.00     0.189 HD
ENDBRANCH  12  13
ENDBRANCH  11  12
ENDBRANCH   8  11
ENDBRANCH   1   7
BRANCH   6  21
ATOM     21  C14 <0> d          -5.108   1.010   6.267  0.00  0.00     0.157 C 
ATOM     22  C16 <0> d          -5.506  -0.330   5.817  0.00  0.00     0.275 C 
ATOM     23  N6  <0> d          -6.510  -0.438   4.919  0.00  0.00    -0.324 N 
ATOM     24  O2  <0> d          -4.938  -1.321   6.237  0.00  0.00    -0.266 OA
ATOM     25  C15 <0> d          -7.150   0.810   4.488  0.00  0.00     0.278 C 
ATOM     26  H15 <0> d          -6.802  -1.301   4.587  0.00  0.00     0.165 HD
ATOM     27  N5  <0> d          -6.950   2.004   5.372  0.00  0.00    -0.240 N 
ATOM     28  S1  <0> d          -8.964   0.618   4.765  0.00  0.00    -0.091 SA
ATOM     29  N4  <0> d          -5.827   2.070   6.006  0.00  0.00    -0.163 NA
ATOM     30  C18 <0> d          -8.058   2.830   5.367  0.00  0.00     0.036 C 
ATOM     31  C17 <0> d          -9.280   2.352   5.101  0.00  0.00     0.075 C 
ATOM     32  C19 <0> d          -7.887   4.298   5.666  0.00  0.00     0.070 C 
ENDBRANCH   6  21
TORSDOF 5
