REMARK  4 active torsions:
REMARK  status: ('A' for Active; 'I' for Inactive)
REMARK    1  A    between atoms: C3_3  and  O2_9 
REMARK    2  A    between atoms: O2_9  and  C7_10 
REMARK    3  A    between atoms: C7_10  and  C8_11 
REMARK    4  A    between atoms: C8_11  and  N2_12 
ROOT
ATOM      1  C1  <0> d          -2.426   4.175  -0.963  0.00  0.00     0.071 C 
ATOM      2  C2  <0> d          -1.733   3.018  -1.636  0.00  0.00     0.043 A 
ATOM      3  C3  <0> d          -1.780   1.788  -1.072  0.00  0.00     0.141 A 
ATOM      4  C4  <0> d          -1.124   0.708  -1.715  0.00  0.00     0.208 A 
ATOM      5  C5  <0> d          -0.441   0.955  -2.927  0.00  0.00     0.075 A 
ATOM      6  C6  <0> d          -0.431   2.206  -3.438  0.00  0.00     0.092 A 
ATOM      7  N1  <0> d          -1.071   3.219  -2.805  0.00  0.00    -0.367 N 
ATOM      8  O1  <0> d          -1.149  -0.415  -1.231  0.00  0.00    -0.285 OA
ATOM      9  H6  <0> d          -1.053   4.107  -3.194  0.00  0.00     0.165 HD
ENDROOT
BRANCH   3  10
ATOM     10  O2  <0> d          -2.449   1.590   0.097  0.00  0.00    -0.344 OA
BRANCH  10  11
ATOM     11  C7  <0> d          -1.667   1.234   1.239  0.00  0.00     0.203 C 
BRANCH  11  12
ATOM     12  C8  <0> d          -2.594   0.954   2.424  0.00  0.00     0.260 C 
BRANCH  12  13
ATOM     13  N2  <0> d          -3.422  -0.223   2.129  0.00  0.00    -0.077 N 
ATOM     14  C9  <0> d          -2.566  -1.413   2.037  0.00  0.00     0.269 C 
ATOM     15  C10 <0> d          -4.406  -0.410   3.204  0.00  0.00     0.269 C 
ATOM     16  H17 <0> d          -3.903  -0.085   1.253  0.00  0.00     0.279 HD
ENDBRANCH  12  13
ENDBRANCH  11  12
ENDBRANCH  10  11
ENDBRANCH   3  10
TORSDOF 4
