REMARK  5 active torsions:
REMARK  status: ('A' for Active; 'I' for Inactive)
REMARK    1  A    between atoms: C10_10  and  N1_11 
REMARK       I    between atoms: N1_11  and  C11_12 
REMARK    2  A    between atoms: C11_12  and  C12_14 
REMARK    3  A    between atoms: C12_14  and  N2_15 
REMARK    4  A    between atoms: C14_18  and  C16_22 
REMARK    5  A    between atoms: C16_22  and  C17_23 
ROOT
ATOM      1  N2  <0> d           6.883   2.950   0.685  0.00  0.00    -0.260 N 
ATOM      2  C13 <0> d           8.034   2.878  -0.013  0.00  0.00     0.251 A 
ATOM      3  O2  <0> d           8.729   1.899  -0.180  0.00  0.00    -0.271 OA
ATOM      4  C14 <0> d           8.277   4.276  -0.546  0.00  0.00     0.183 A 
ATOM      5  N3  <0> d           7.128   5.045  -0.039  0.00  0.00    -0.329 N 
ATOM      6  C15 <0> d           6.369   4.185   0.663  0.00  0.00     0.326 A 
ATOM      7  O3  <0> d           5.333   4.495   1.218  0.00  0.00    -0.247 OA
ATOM      8  H16 <0> d           6.951   5.988  -0.185  0.00  0.00     0.165 HD
ENDROOT
BRANCH   1   9
ATOM      9  C12 <0> d           6.269   1.814   1.377  0.00  0.00     0.239 C 
BRANCH   9  10
ATOM     10  C11 <0> d           5.330   1.101   0.438  0.00  0.00     0.236 C 
ATOM     11  N1  <0> d           4.649   0.018   0.860  0.00  0.00    -0.351 N 
ATOM     12  H13 <0> d           4.762  -0.302   1.769  0.00  0.00     0.163 HD
ATOM     13  O1  <0> d           5.189   1.502  -0.698  0.00  0.00    -0.272 OA
BRANCH  11  14
ATOM     14  C10 <0> d           3.736  -0.675  -0.053  0.00  0.00     0.118 C 
ATOM     15  C4  <0> d           2.393   0.006  -0.025  0.00  0.00    -0.029 A 
ATOM     16  C3  <0> d           2.372   1.395  -0.016  0.00  0.00     0.010 A 
ATOM     17  C5  <0> d           1.208  -0.694  -0.013  0.00  0.00    -0.050 A 
ATOM     18  C2  <0> d           1.174   2.078   0.002  0.00  0.00     0.001 A 
ATOM     19  C1  <0> d          -0.017   1.375   0.010  0.00  0.00     0.001 A 
ATOM     20  C6  <0> d           0.002  -0.004   0.002  0.00  0.00     0.007 A 
ATOM     21  C7  <0> d           1.155  -2.199  -0.005  0.00  0.00     0.039 C 
ATOM     22  C8  <0> d           2.493  -2.786  -0.452  0.00  0.00     0.007 C 
ATOM     23  C9  <0> d           3.607  -2.135   0.376  0.00  0.00     0.030 C 
ENDBRANCH  11  14
ENDBRANCH   9  10
ENDBRANCH   1   9
BRANCH   4  24
ATOM     24  C16 <0> d           9.590   4.840   0.001  0.00  0.00     0.071 C 
BRANCH  24  25
ATOM     25  C17 <0> d           9.868   6.176  -0.638  0.00  0.00    -0.048 A 
ATOM     26  C24 <0> d          10.552   6.425  -1.964  0.00  0.00     0.155 A 
ATOM     27  N4  <0> d          10.577   7.882  -2.136  0.00  0.00    -0.385 N 
ATOM     28  C23 <0> d          10.014   8.436  -1.091  0.00  0.00     0.038 A 
ATOM     29  H25 <0> d          10.952   8.355  -2.895  0.00  0.00     0.160 HD
ATOM     30  C18 <0> d           9.562   7.396  -0.140  0.00  0.00    -0.006 A 
ATOM     31  C22 <0> d           9.782   9.798  -0.750  0.00  0.00     0.030 A 
ATOM     32  C19 <0> d           8.902   7.827   1.099  0.00  0.00     0.014 A 
ATOM     33  C20 <0> d           8.732   9.149   1.325  0.00  0.00     0.001 A 
ATOM     34  C21 <0> d           9.168  10.116   0.409  0.00  0.00     0.002 A 
ENDBRANCH  24  25
ENDBRANCH   4  24
TORSDOF 5
