REMARK  7 active torsions:
REMARK  status: ('A' for Active; 'I' for Inactive)
REMARK    1  A    between atoms: C2_2  and  C3_3 
REMARK    2  A    between atoms: C3_3  and  C4_4 
REMARK    3  A    between atoms: C3_3  and  N3_20 
REMARK    4  A    between atoms: C8_8  and  S1_10 
REMARK    5  A    between atoms: S1_10  and  N1_13 
REMARK    6  A    between atoms: N1_13  and  C10_14 
REMARK    7  A    between atoms: C10_14  and  C11_15 
ROOT
ATOM      1  C4  <0> d           0.397  -1.971  -1.548  0.00  0.00    -0.026 A 
ATOM      2  C5  <0> d           1.244  -2.891  -0.958  0.00  0.00     0.009 A 
ATOM      3  C6  <0> d           1.053  -4.243  -1.172  0.00  0.00     0.002 A 
ATOM      4  C7  <0> d           0.015  -4.675  -1.976  0.00  0.00     0.025 A 
ATOM      5  C8  <0> d          -0.832  -3.756  -2.566  0.00  0.00     0.080 A 
ATOM      6  C9  <0> d          -0.644  -2.403  -2.348  0.00  0.00     0.034 A 
ENDROOT
BRANCH   5   7
ATOM      7  S1  <0> d          -2.155  -4.307  -3.591  0.00  0.00     0.259 S 
ATOM      8  O1  <0> d          -2.470  -3.229  -4.462  0.00  0.00    -0.201 OA
ATOM      9  O2  <0> d          -1.787  -5.592  -4.072  0.00  0.00    -0.201 OA
BRANCH   7  10
ATOM     10  N1  <0> d          -3.473  -4.527  -2.613  0.00  0.00    -0.309 N 
ATOM     11  H11 <0> d          -3.842  -5.415  -2.489  0.00  0.00     0.172 HD
BRANCH  10  12
ATOM     12  C10 <0> d          -4.083  -3.379  -1.936  0.00  0.00     0.199 C 
BRANCH  12  13
ATOM     13  C11 <0> d          -5.446  -3.765  -1.423  0.00  0.00     0.092 A 
ATOM     14  S2  <0> d          -6.931  -3.645  -2.207  0.00  0.00    -0.084 SA
ATOM     15  C13 <0> d          -7.952  -4.307  -0.900  0.00  0.00     0.071 A 
ATOM     16  C12 <0> d          -7.013  -4.557   0.049  0.00  0.00     0.124 A 
ATOM     17  N2  <0> d          -5.764  -4.269  -0.257  0.00  0.00    -0.256 NA
ENDBRANCH  12  13
ENDBRANCH  10  12
ENDBRANCH   7  10
ENDBRANCH   5   7
BRANCH   1  18
ATOM     18  C3  <0> d           0.606  -0.497  -1.314  0.00  0.00     0.218 C 
BRANCH  18  19
ATOM     19  C2  <0> d           0.025  -0.109   0.047  0.00  0.00     0.033 C 
ATOM     20  C1  <0> d           0.119   1.407   0.229  0.00  0.00     0.007 C 
ENDBRANCH  18  19
BRANCH  18  21
ATOM     21  N3  <0> d           2.043  -0.196  -1.337  0.00  0.00    -0.071 N 
ATOM     22  C14 <0> d           2.575  -0.449  -2.683  0.00  0.00     0.267 C 
ATOM     23  H16 <0> d           2.188   0.773  -1.095  0.00  0.00     0.277 HD
ATOM     24  H20 <0> d           2.521  -0.784  -0.671  0.00  0.00     0.277 HD
ENDBRANCH  18  21
ENDBRANCH   1  18
TORSDOF 7
