REMARK  5 active torsions:
REMARK  status: ('A' for Active; 'I' for Inactive)
REMARK    1  A    between atoms: C6_6  and  O2_23 
REMARK    2  A    between atoms: C7_7  and  C10_11 
REMARK    3  A    between atoms: C10_11  and  N1_12 
REMARK    4  A    between atoms: N1_12  and  C11_13 
REMARK    5  A    between atoms: C11_13  and  C13_15 
ROOT
ATOM      1  C10 <0> d           0.123  -4.885   3.559  0.00  0.00     0.274 C 
ENDROOT
BRANCH   1   2
ATOM      2  C7  <0> d          -0.359  -3.796   2.637  0.00  0.00     0.003 A 
ATOM      3  C6  <0> d          -1.600  -3.906   2.026  0.00  0.00     0.076 A 
ATOM      4  C5  <0> d          -2.038  -2.902   1.175  0.00  0.00     0.047 A 
ATOM      5  C4  <0> d          -1.242  -1.803   0.941  0.00  0.00    -0.020 A 
ATOM      6  C3  <0> d          -1.435  -0.572   0.076  0.00  0.00     0.073 C 
ATOM      7  C9  <0> d          -0.001  -1.679   1.553  0.00  0.00     0.076 A 
ATOM      8  C2  <0> d           0.002  -0.004   0.002  0.00  0.00     0.129 C 
ATOM      9  C1  <0> d          -0.019   1.526   0.010  0.00  0.00     0.040 C 
ATOM     10  O1  <0> d           0.612  -0.512   1.201  0.00  0.00    -0.345 OA
ATOM     11  C8  <0> d           0.435  -2.692   2.404  0.00  0.00     0.049 A 
BRANCH   3  12
ATOM     12  O2  <0> d          -2.382  -4.994   2.260  0.00  0.00    -0.355 OA
ATOM     13  C18 <0> d          -3.647  -5.038   1.597  0.00  0.00     0.210 C 
ENDBRANCH   3  12
ENDBRANCH   1   2
BRANCH   1  14
ATOM     14  N1  <0> d           0.653  -6.001   2.764  0.00  0.00    -0.060 N 
ATOM     15  H12 <0> d          -0.074  -6.364   2.167  0.00  0.00     0.278 HD
ATOM     16  H25 <0> d           1.422  -5.675   2.198  0.00  0.00     0.278 HD
BRANCH  14  17
ATOM     17  C11 <0> d           1.123  -7.063   3.664  0.00  0.00     0.253 C 
ATOM     18  C12 <0> d           2.309  -6.550   4.483  0.00  0.00     0.048 C 
BRANCH  17  19
ATOM     19  C13 <0> d           1.553  -8.257   2.850  0.00  0.00     0.160 A 
ATOM     20  N4  <0> d           1.250  -9.554   3.103  0.00  0.00    -0.319 N 
ATOM     21  C14 <0> d           1.835 -10.274   2.120  0.00  0.00     0.130 A 
ATOM     22  C15 <0> d           0.531 -10.424   4.041  0.00  0.00     0.132 C 
ATOM     23  N3  <0> d           2.460  -9.432   1.340  0.00  0.00    -0.135 NA
ATOM     24  C17 <0> d           1.540 -11.746   2.313  0.00  0.00     0.082 C 
ATOM     25  N2  <0> d           2.291  -8.234   1.774  0.00  0.00    -0.133 NA
ATOM     26  C16 <0> d           0.361 -11.773   3.308  0.00  0.00     0.028 C 
ENDBRANCH  17  19
ENDBRANCH  14  17
ENDBRANCH   1  14
TORSDOF 5
