REMARK  5 active torsions:
REMARK  status: ('A' for Active; 'I' for Inactive)
REMARK    1  A    between atoms: C4_6  and  C5_7 
REMARK    2  A    between atoms: C5_7  and  C6_8 
REMARK    3  A    between atoms: C5_7  and  N3_16 
REMARK    4  A    between atoms: C11_13  and  O1_14 
REMARK       I    between atoms: N3_16  and  C13_17 
REMARK    5  A    between atoms: C13_17  and  C14_19 
ROOT
ATOM      1  C5  <0> d           0.030  -0.354   2.521  0.00  0.00     0.191 C 
ENDROOT
BRANCH   1   2
ATOM      2  C4  <0> d           0.073  -0.821   1.089  0.00  0.00     0.133 A 
ATOM      3  N1  <0> d           0.007  -0.026  -0.001  0.00  0.00    -0.346 N 
ATOM      4  C1  <0> d          -0.118   1.433  -0.005  0.00  0.00     0.157 C 
ATOM      5  C2  <0> d           0.085  -0.838  -1.100  0.00  0.00     0.111 A 
ATOM      6  C3  <0> d           0.191  -2.101  -0.645  0.00  0.00     0.136 A 
ATOM      7  N2  <0> d           0.178  -2.061   0.696  0.00  0.00    -0.243 NA
ENDBRANCH   1   2
BRANCH   1   8
ATOM      8  C6  <0> d          -1.322  -0.665   3.109  0.00  0.00     0.005 A 
ATOM      9  C11 <0> d          -2.357   0.251   2.992  0.00  0.00     0.076 A 
ATOM     10  C10 <0> d          -3.603  -0.040   3.530  0.00  0.00     0.037 A 
ATOM     11  C9  <0> d          -3.805  -1.236   4.191  0.00  0.00     0.003 A 
ATOM     12  C8  <0> d          -2.770  -2.145   4.311  0.00  0.00     0.001 A 
ATOM     13  C7  <0> d          -1.530  -1.860   3.771  0.00  0.00     0.012 A 
BRANCH   9  14
ATOM     14  O1  <0> d          -2.153   1.429   2.347  0.00  0.00    -0.355 OA
ATOM     15  C12 <0> d          -3.264   2.325   2.264  0.00  0.00     0.210 C 
ENDBRANCH   9  14
ENDBRANCH   1   8
BRANCH   1  16
ATOM     16  N3  <0> d           1.068  -1.044   3.291  0.00  0.00    -0.341 N 
ATOM     17  C13 <0> d           2.317  -0.541   3.339  0.00  0.00     0.254 C 
ATOM     18  O2  <0> d           2.583   0.485   2.743  0.00  0.00    -0.268 OA
ATOM     19  H14 <0> d           0.856  -1.863   3.766  0.00  0.00     0.164 HD
BRANCH  17  20
ATOM     20  C14 <0> d           3.365  -1.237   4.116  0.00  0.00     0.050 A 
ATOM     21  C18 <0> d           4.662  -0.727   4.174  0.00  0.00     0.142 A 
ATOM     22  N4  <0> d           5.595  -1.344   4.872  0.00  0.00    -0.210 N 
ATOM     23  C17 <0> d           5.348  -2.463   5.528  0.00  0.00     0.125 A 
ATOM     24  O3  <0> d           6.899  -0.795   4.914  0.00  0.00    -0.082 OA
ATOM     25  C16 <0> d           4.088  -3.035   5.515  0.00  0.00     0.021 A 
ATOM     26  C15 <0> d           3.073  -2.422   4.802  0.00  0.00     0.020 A 
ENDBRANCH  17  20
ENDBRANCH   1  16
TORSDOF 5
