REMARK  3 active torsions:
REMARK  status: ('A' for Active; 'I' for Inactive)
REMARK    1  A    between atoms: C3_4  and  C6_8 
REMARK       I    between atoms: C6_8  and  N2_10 
REMARK    2  A    between atoms: N2_10  and  C7_11 
REMARK    3  A    between atoms: C10_14  and  C13_17 
ROOT
ATOM      1  C7  <0> d          -0.021   9.278  -2.202  0.00  0.00     0.034 A 
ATOM      2  C8  <0> d           1.310   9.146  -1.824  0.00  0.00     0.030 A 
ATOM      3  C9  <0> d           1.793   7.921  -1.416  0.00  0.00     0.016 A 
ATOM      4  C10 <0> d           0.945   6.815  -1.381  0.00  0.00    -0.005 A 
ATOM      5  C11 <0> d          -0.388   6.949  -1.766  0.00  0.00     0.016 A 
ATOM      6  C12 <0> d          -0.868   8.177  -2.169  0.00  0.00     0.030 A 
ENDROOT
BRANCH   4   7
ATOM      7  C13 <0> d           1.463   5.496  -0.943  0.00  0.00     0.102 A 
ATOM      8  N6  <0> d           2.721   5.234  -0.555  0.00  0.00    -0.059 NA
ATOM      9  C17 <0> d           2.818   3.955  -0.235  0.00  0.00     0.752 A 
ATOM     10  N3  <0> d           1.589   3.373  -0.420  0.00  0.00    -0.152 N 
ATOM     11  N5  <0> d           3.836   3.200   0.204  0.00  0.00     0.044 NA
ATOM     12  C14 <0> d           0.742   4.340  -0.864  0.00  0.00     0.148 A 
ATOM     13  C15 <0> d           1.428   2.038  -0.153  0.00  0.00     0.060 A 
ATOM     14  C21 <0> d           0.068   1.430  -0.355  0.00  0.00     0.060 C 
ATOM     15  C16 <0> d           2.495   1.334   0.279  0.00  0.00     0.081 A 
ATOM     16  C20 <0> d           0.164  -0.093  -0.429  0.00  0.00     0.006 C 
ATOM     17  C19 <0> d           0.977  -0.583   0.775  0.00  0.00     0.006 C 
ATOM     18  C18 <0> d           2.426  -0.139   0.589  0.00  0.00     0.063 C 
ATOM     19  N4  <0> d           3.674   1.951   0.446  0.00  0.00    -0.137 NA
ENDBRANCH   4   7
BRANCH   1  20
ATOM     20  N2  <0> d          -0.509  10.522  -2.617  0.00  0.00    -0.327 N 
ATOM     21  C6  <0> d           0.295  11.373  -3.284  0.00  0.00     0.228 C 
ATOM     22  O2  <0> d           1.411  11.024  -3.610  0.00  0.00    -0.273 OA
ATOM     23  H9  <0> d          -1.426  10.772  -2.424  0.00  0.00     0.169 HD
BRANCH  21  24
ATOM     24  C3  <0> d          -0.191  12.757  -3.627  0.00  0.00     0.105 C 
ATOM     25  C2  <0> d           0.893  13.552  -4.388  0.00  0.00     0.139 C 
ATOM     26  N1  <0> d           1.635  14.287  -3.358  0.00  0.00    -0.356 N 
ATOM     27  C1  <0> d           2.958  14.886  -3.560  0.00  0.00     0.152 C 
ATOM     28  C5  <0> d           0.947  14.342  -2.205  0.00  0.00     0.220 C 
ATOM     29  C4  <0> d          -0.370  13.612  -2.351  0.00  0.00     0.118 C 
ATOM     30  O1  <0> d           1.326  14.896  -1.195  0.00  0.00    -0.273 OA
ENDBRANCH  21  24
ENDBRANCH   1  20
TORSDOF 3
