REMARK  3 active torsions:
REMARK  status: ('A' for Active; 'I' for Inactive)
REMARK    1  A    between atoms: N2_11  and  S1_12 
REMARK    2  A    between atoms: S1_12  and  C9_15 
REMARK    3  A    between atoms: C9_15  and  C10_16 
ROOT
ATOM      1  C1  <0> d          -0.017   1.379   0.010  0.00  0.00     0.002 A 
ATOM      2  C2  <0> d           1.167   2.094   0.002  0.00  0.00     0.002 A 
ATOM      3  C3  <0> d           2.381   1.430  -0.011  0.00  0.00     0.033 A 
ATOM      4  C4  <0> d           2.406   0.047  -0.017  0.00  0.00     0.072 A 
ATOM      5  C5  <0> d           1.213  -0.677  -0.014  0.00  0.00     0.062 A 
ATOM      6  C6  <0> d           0.002  -0.004   0.002  0.00  0.00     0.032 A 
ATOM      7  N1  <0> d           1.254  -2.077  -0.032  0.00  0.00    -0.324 N 
ATOM      8  C7  <0> d           2.399  -2.734   0.233  0.00  0.00     0.241 C 
ATOM      9  O1  <0> d           2.423  -3.945   0.170  0.00  0.00    -0.271 OA
ATOM     10  C8  <0> d           3.651  -1.982   0.608  0.00  0.00     0.244 C 
ATOM     11  N2  <0> d           3.620  -0.655  -0.024  0.00  0.00    -0.265 N 
ATOM     12  H6  <0> d           0.449  -2.578  -0.238  0.00  0.00     0.169 HD
ENDROOT
BRANCH  11  13
ATOM     13  S1  <0> d           4.976  -0.009  -0.722  0.00  0.00     0.235 S 
ATOM     14  O2  <0> d           5.762  -1.133  -1.095  0.00  0.00    -0.205 OA
ATOM     15  O3  <0> d           4.484   0.889  -1.707  0.00  0.00    -0.205 OA
BRANCH  13  16
ATOM     16  C9  <0> d           5.793   0.911   0.611  0.00  0.00     0.196 C 
BRANCH  16  17
ATOM     17  C10 <0> d           7.072   1.557   0.074  0.00  0.00     0.201 C 
ATOM     18  N3  <0> d           7.974   0.513  -0.426  0.00  0.00    -0.070 N 
ATOM     19  C14 <0> d           9.171   1.127  -1.012  0.00  0.00     0.232 C 
ATOM     20  H19 <0> d           8.246  -0.090   0.337  0.00  0.00     0.277 HD
ATOM     21  H20 <0> d           7.499  -0.032  -1.129  0.00  0.00     0.277 HD
ATOM     22  C13 <0> d           9.940   1.888   0.070  0.00  0.00     0.027 C 
ATOM     23  C12 <0> d           9.040   2.979   0.657  0.00  0.00     0.004 C 
ATOM     24  C11 <0> d           7.760   2.334   1.199  0.00  0.00     0.034 C 
ENDBRANCH  16  17
ENDBRANCH  13  16
ENDBRANCH  11  13
TORSDOF 3
