REMARK  5 active torsions:
REMARK  status: ('A' for Active; 'I' for Inactive)
REMARK    1  A    between atoms: C5_5  and  N1_9 
REMARK       I    between atoms: N1_9  and  C9_10 
REMARK    2  A    between atoms: C9_10  and  C10_12 
REMARK       I    between atoms: C10_12  and  N2_14 
REMARK    3  A    between atoms: N2_14  and  C11_15 
REMARK    4  A    between atoms: C11_15  and  C12_16 
REMARK    5  A    between atoms: C12_16  and  N3_18 
ROOT
ATOM      1  C10 <0> d          -0.939  -6.501   0.744  0.00  0.00     0.309 C 
ATOM      2  O2  <0> d          -1.123  -7.113  -0.288  0.00  0.00    -0.262 OA
ATOM      3  N2  <0> d          -0.817  -7.166   1.910  0.00  0.00    -0.351 N 
ATOM      4  H10 <0> d          -0.669  -6.677   2.734  0.00  0.00     0.162 HD
ENDROOT
BRANCH   1   5
ATOM      5  C9  <0> d          -0.846  -5.010   0.721  0.00  0.00     0.314 C 
ATOM      6  N1  <0> d          -0.968  -4.345  -0.444  0.00  0.00    -0.318 N 
ATOM      7  H9  <0> d          -1.036  -4.836  -1.278  0.00  0.00     0.169 HD
ATOM      8  O1  <0> d          -0.661  -4.398   1.753  0.00  0.00    -0.262 OA
BRANCH   6   9
ATOM      9  C5  <0> d          -0.996  -2.948  -0.452  0.00  0.00     0.047 A 
ATOM     10  C4  <0> d           0.052  -2.228   0.107  0.00  0.00    -0.034 A 
ATOM     11  C3  <0> d           0.021  -0.847   0.097  0.00  0.00     0.015 A 
ATOM     12  C20 <0> d           1.222  -2.951   0.722  0.00  0.00     0.050 C 
ATOM     13  C2  <0> d          -1.052  -0.182  -0.468  0.00  0.00    -0.061 A 
ATOM     14  C1  <0> d          -1.082   1.325  -0.477  0.00  0.00     0.048 C 
ATOM     15  C7  <0> d          -2.099  -0.896  -1.020  0.00  0.00     0.015 A 
ATOM     16  C6  <0> d          -2.073  -2.277  -1.019  0.00  0.00    -0.034 A 
ATOM     17  C8  <0> d          -3.212  -3.054  -1.626  0.00  0.00     0.050 C 
ENDBRANCH   6   9
ENDBRANCH   1   5
BRANCH   3  18
ATOM     18  C11 <0> d          -0.908  -8.628   1.932  0.00  0.00     0.155 C 
BRANCH  18  19
ATOM     19  C12 <0> d          -0.868  -9.120   3.380  0.00  0.00     0.202 C 
ATOM     20  C13 <0> d          -1.056 -10.638   3.409  0.00  0.00     0.042 C 
BRANCH  19  21
ATOM     21  N3  <0> d          -1.946  -8.479   4.144  0.00  0.00    -0.065 N 
ATOM     22  C18 <0> d          -1.827  -8.848   5.560  0.00  0.00     0.239 C 
ATOM     23  C17 <0> d          -2.899  -8.118   6.373  0.00  0.00     0.007 C 
ATOM     24  C16 <0> d          -4.284  -8.517   5.856  0.00  0.00     0.007 C 
ATOM     25  C19 <0> d          -2.773  -8.507   7.848  0.00  0.00     0.011 C 
ATOM     26  C15 <0> d          -4.371  -8.195   4.361  0.00  0.00     0.028 C 
ATOM     27  C14 <0> d          -3.245  -8.922   3.622  0.00  0.00     0.235 C 
ATOM     28  H32 <0> d          -1.873  -7.477   4.052  0.00  0.00     0.280 HD
ENDBRANCH  19  21
ENDBRANCH  18  19
ENDBRANCH   3  18
TORSDOF 5
