REMARK  3 active torsions:
REMARK  status: ('A' for Active; 'I' for Inactive)
REMARK    1  A    between atoms: C3_3  and  N2_18 
REMARK    2  A    between atoms: C7_7  and  S1_8 
REMARK    3  A    between atoms: S1_8  and  N1_11 
ROOT
ATOM      1  C1  <0> d           0.104   1.158  -0.207  0.00  0.00     0.052 C 
ATOM      2  C2  <0> d           0.227  -0.336  -0.052  0.00  0.00    -0.013 A 
ATOM      3  C3  <0> d           0.261  -1.152  -1.176  0.00  0.00     0.033 A 
ATOM      4  C4  <0> d           0.375  -2.528  -1.029  0.00  0.00     0.029 A 
ATOM      5  C5  <0> d           0.454  -3.082   0.234  0.00  0.00     0.004 A 
ATOM      6  C6  <0> d           0.420  -2.267   1.351  0.00  0.00     0.026 A 
ATOM      7  C7  <0> d           0.312  -0.896   1.207  0.00  0.00     0.087 A 
ENDROOT
BRANCH   7   8
ATOM      8  S1  <0> d           0.276   0.138   2.634  0.00  0.00     0.261 S 
ATOM      9  O1  <0> d          -0.849   0.994   2.486  0.00  0.00    -0.200 OA
ATOM     10  O2  <0> d           0.441  -0.715   3.758  0.00  0.00    -0.200 OA
BRANCH   8  11
ATOM     11  N1  <0> d           1.618   1.105   2.572  0.00  0.00    -0.298 N 
ATOM     12  C11 <0> d           2.944   0.586   2.942  0.00  0.00     0.115 C 
ATOM     13  C10 <0> d           3.582   1.547   3.945  0.00  0.00     0.193 C 
ATOM     14  C12 <0> d           2.796  -0.798   3.579  0.00  0.00     0.035 C 
ATOM     15  O3  <0> d           3.546   2.874   3.416  0.00  0.00    -0.387 OA
ATOM     16  C9  <0> d           2.227   3.381   3.197  0.00  0.00     0.188 C 
ATOM     17  C8  <0> d           1.520   2.512   2.150  0.00  0.00     0.162 C 
ENDBRANCH   8  11
ENDBRANCH   7   8
BRANCH   3  18
ATOM     18  N2  <0> d           0.180  -0.589  -2.452  0.00  0.00    -0.399 N 
ATOM     19  H17 <0> d           0.100   0.373  -2.554  0.00  0.00     0.156 HD
ATOM     20  H18 <0> d           0.204  -1.159  -3.236  0.00  0.00     0.156 HD
ENDBRANCH   3  18
TORSDOF 3
