REMARK  7 active torsions:
REMARK  status: ('A' for Active; 'I' for Inactive)
REMARK    1  A    between atoms: C2_2  and  C3_3 
REMARK    2  A    between atoms: C3_3  and  C4_4 
REMARK    3  A    between atoms: C4_4  and  C6_6 
REMARK       I    between atoms: C6_6  and  N1_8 
REMARK    4  A    between atoms: C8_10  and  C15_18 
REMARK       I    between atoms: C15_18  and  N3_20 
REMARK    5  A    between atoms: N3_20  and  C16_21 
REMARK    6  A    between atoms: C16_21  and  C17_22 
REMARK    7  A    between atoms: C17_22  and  C18_23 
ROOT
ATOM      1  C6  <0> d           1.315  -2.550  -2.248  0.00  0.00     0.223 C 
ATOM      2  O1  <0> d           1.689  -1.681  -3.007  0.00  0.00    -0.273 OA
ATOM      3  N1  <0> d           1.443  -3.847  -2.594  0.00  0.00    -0.350 N 
ATOM      4  C7  <0> d           1.043  -5.039  -1.810  0.00  0.00     0.140 C 
ATOM      5  C8  <0> d           0.462  -6.017  -2.857  0.00  0.00     0.106 C 
ATOM      6  C9  <0> d           1.106  -5.595  -4.188  0.00  0.00    -0.007 C 
ATOM      7  C10 <0> d           2.010  -4.402  -3.846  0.00  0.00     0.136 C 
ATOM      8  C11 <0> d           0.031  -5.166  -5.182  0.00  0.00     0.039 C 
ATOM      9  C12 <0> d           0.691  -4.806  -6.516  0.00  0.00     0.233 C 
ATOM     10  N2  <0> d           1.426  -5.968  -7.030  0.00  0.00    -0.075 N 
ATOM     11  C13 <0> d           2.517  -6.316  -6.112  0.00  0.00     0.233 C 
ATOM     12  C14 <0> d           1.934  -6.740  -4.761  0.00  0.00     0.039 C 
ATOM     13  H21 <0> d           0.797  -6.751  -7.115  0.00  0.00     0.277 HD
ATOM     14  H39 <0> d           1.809  -5.747  -7.937  0.00  0.00     0.277 HD
ENDROOT
BRANCH   5  15
ATOM     15  C15 <0> d          -1.037  -5.878  -2.929  0.00  0.00     0.224 C 
ATOM     16  O2  <0> d          -1.560  -4.810  -2.690  0.00  0.00    -0.273 OA
ATOM     17  N3  <0> d          -1.797  -6.941  -3.259  0.00  0.00    -0.360 N 
ATOM     18  H26 <0> d          -1.379  -7.795  -3.450  0.00  0.00     0.162 HD
BRANCH  17  19
ATOM     19  C16 <0> d          -3.254  -6.806  -3.330  0.00  0.00     0.127 C 
BRANCH  19  20
ATOM     20  C17 <0> d          -3.872  -8.150  -3.722  0.00  0.00     0.060 C 
BRANCH  20  21
ATOM     21  C18 <0> d          -5.371  -8.011  -3.795  0.00  0.00    -0.029 A 
ATOM     22  C19 <0> d          -6.148  -7.538  -4.943  0.00  0.00    -0.001 A 
ATOM     23  C20 <0> d          -5.815  -7.101  -6.226  0.00  0.00     0.014 A 
ATOM     24  C24 <0> d          -7.497  -7.581  -4.544  0.00  0.00     0.049 A 
ATOM     25  C21 <0> d          -6.802  -6.716  -7.089  0.00  0.00     0.002 A 
ATOM     26  C22 <0> d          -8.134  -6.756  -6.700  0.00  0.00     0.009 A 
ATOM     27  C23 <0> d          -8.485  -7.184  -5.439  0.00  0.00    -0.034 A 
ATOM     28  C26 <0> d          -9.935  -7.222  -5.029  0.00  0.00     0.050 C 
ATOM     29  N4  <0> d          -7.522  -8.046  -3.248  0.00  0.00    -0.364 N 
ATOM     30  H35 <0> d          -8.324  -8.177  -2.719  0.00  0.00     0.165 HD
ATOM     31  C25 <0> d          -6.248  -8.303  -2.821  0.00  0.00     0.096 A 
ENDBRANCH  20  21
ENDBRANCH  19  20
ENDBRANCH  17  19
ENDBRANCH   5  15
BRANCH   1  32
ATOM     32  C4  <0> d           0.708  -2.181  -0.920  0.00  0.00     0.074 C 
ATOM     33  C5  <0> d           1.547  -2.783   0.209  0.00  0.00     0.020 C 
BRANCH  32  34
ATOM     34  C3  <0> d           0.680  -0.658  -0.778  0.00  0.00     0.013 C 
BRANCH  34  35
ATOM     35  C2  <0> d          -0.048  -0.279   0.514  0.00  0.00    -0.004 C 
ATOM     36  C1  <0> d          -0.076   1.244   0.656  0.00  0.00     0.005 C 
ENDBRANCH  34  35
ENDBRANCH  32  34
ENDBRANCH   1  32
TORSDOF 7
