REMARK  4 active torsions:
REMARK  status: ('A' for Active; 'I' for Inactive)
REMARK    1  A    between atoms: N1_5  and  C6_9 
REMARK    2  A    between atoms: C5_7  and  N2_8 
REMARK    3  A    between atoms: C6_9  and  C7_10 
REMARK    4  A    between atoms: C7_10  and  N3_11 
ROOT
ATOM      1  C7  <0> d           4.087  -0.972   1.400  0.00  0.00     0.255 C 
ENDROOT
BRANCH   1   2
ATOM      2  C6  <0> d           3.632  -0.709  -0.036  0.00  0.00     0.159 C 
BRANCH   2   3
ATOM      3  N1  <0> d           2.364   0.024  -0.020  0.00  0.00    -0.321 N 
ATOM      4  C3  <0> d           2.373   1.370  -0.013  0.00  0.00     0.247 A 
ATOM      5  C2  <0> d           1.164   2.084   0.002  0.00  0.00     0.077 A 
ATOM      6  O1  <0> d           3.436   1.972  -0.020  0.00  0.00    -0.268 OA
ATOM      7  C1  <0> d          -0.017   1.402   0.010  0.00  0.00     0.036 A 
ATOM      8  C5  <0> d           0.002  -0.004   0.002  0.00  0.00     0.041 A 
ATOM      9  C4  <0> d           1.190  -0.664  -0.013  0.00  0.00     0.123 A 
BRANCH   8  10
ATOM     10  N2  <0> d          -1.202  -0.724   0.010  0.00  0.00    -0.398 N 
ATOM     11  H6  <0> d          -2.050  -0.252   0.021  0.00  0.00     0.156 HD
ATOM     12  H7  <0> d          -1.188  -1.694   0.005  0.00  0.00     0.156 HD
ENDBRANCH   8  10
ENDBRANCH   2   3
ENDBRANCH   1   2
BRANCH   1  13
ATOM     13  N3  <0> d           5.359  -1.707   1.384  0.00  0.00    -0.061 N 
ATOM     14  C11 <0> d           5.737  -2.064   2.758  0.00  0.00     0.217 C 
ATOM     15  C10 <0> d           7.059  -2.835   2.734  0.00  0.00     0.152 C 
ATOM     16  C12 <0> d           4.652  -2.939   3.387  0.00  0.00     0.036 C 
ATOM     17  O2  <0> d           8.064  -2.024   2.122  0.00  0.00    -0.382 OA
ATOM     18  C15 <0> d           7.468  -3.180   4.167  0.00  0.00     0.034 C 
ATOM     19  C9  <0> d           7.735  -1.622   0.788  0.00  0.00     0.196 C 
ATOM     20  C8  <0> d           6.408  -0.860   0.798  0.00  0.00     0.261 C 
ATOM     21  C14 <0> d           6.385  -4.052   4.806  0.00  0.00     0.003 C 
ATOM     22  C13 <0> d           5.057  -3.294   4.820  0.00  0.00     0.002 C 
ATOM     23  H24 <0> d           5.256  -2.546   0.834  0.00  0.00     0.280 HD
ENDBRANCH   1  13
TORSDOF 4
