REMARK  4 active torsions:
REMARK  status: ('A' for Active; 'I' for Inactive)
REMARK    1  A    between atoms: N1_2  and  C3_4 
REMARK    2  A    between atoms: C6_7  and  C10_12 
REMARK    3  A    between atoms: C7_8  and  O1_10 
REMARK    4  A    between atoms: N2_16  and  C14_20 
ROOT
ATOM      1  C10 <0> d           2.446   1.358   0.755  0.00  0.00     0.049 C 
ATOM      2  C11 <0> d           2.591   0.029   1.004  0.00  0.00     0.104 A 
ATOM      3  C12 <0> d           3.807  -0.668   1.440  0.00  0.00     0.281 A 
ATOM      4  O2  <0> d           4.897  -0.172   1.654  0.00  0.00    -0.265 OA
ATOM      5  N2  <0> d           3.472  -1.969   1.559  0.00  0.00    -0.253 N 
ATOM      6  C13 <0> d           2.182  -2.139   1.232  0.00  0.00     0.186 A 
ATOM      7  S1  <0> d           1.369  -3.646   1.245  0.00  0.00    -0.040 SA
ATOM      8  N3  <0> d           1.613  -0.969   0.892  0.00  0.00    -0.328 N 
ATOM      9  H14 <0> d           0.691  -0.840   0.619  0.00  0.00     0.168 HD
ENDROOT
BRANCH   1  10
ATOM     10  C6  <0> d           1.200   1.862   0.170  0.00  0.00    -0.000 A 
ATOM     11  C5  <0> d           0.406   1.024  -0.624  0.00  0.00     0.016 A 
ATOM     12  C4  <0> d          -0.751   1.497  -1.172  0.00  0.00     0.030 A 
ATOM     13  C3  <0> d          -1.157   2.810  -0.939  0.00  0.00     0.032 A 
ATOM     14  C8  <0> d          -0.381   3.654  -0.153  0.00  0.00     0.066 A 
ATOM     15  C7  <0> d           0.797   3.189   0.404  0.00  0.00     0.080 A 
BRANCH  13  16
ATOM     16  N1  <0> d          -2.342   3.279  -1.498  0.00  0.00    -0.389 N 
ATOM     17  C1  <0> d          -2.768   4.660  -1.260  0.00  0.00     0.149 C 
ATOM     18  C2  <0> d          -3.162   2.392  -2.327  0.00  0.00     0.149 C 
ENDBRANCH  13  16
BRANCH  15  19
ATOM     19  O1  <0> d           1.558   4.009   1.171  0.00  0.00    -0.355 OA
ATOM     20  C9  <0> d           1.085   5.343   1.364  0.00  0.00     0.210 C 
ENDBRANCH  15  19
ENDBRANCH   1  10
BRANCH   5  21
ATOM     21  C14 <0> d           4.343  -2.992   1.959  0.00  0.00     0.045 A 
ATOM     22  C19 <0> d           4.453  -3.326   3.302  0.00  0.00     0.031 A 
ATOM     23  C18 <0> d           5.312  -4.334   3.694  0.00  0.00     0.021 A 
ATOM     24  C17 <0> d           6.063  -5.011   2.749  0.00  0.00     0.011 A 
ATOM     25  C16 <0> d           5.955  -4.679   1.410  0.00  0.00     0.021 A 
ATOM     26 Br1  <0> d           7.238  -6.390   3.288  0.00  0.00    -0.051 Br
ATOM     27  C15 <0> d           5.094  -3.675   1.012  0.00  0.00     0.031 A 
ENDBRANCH   5  21
TORSDOF 4
