REMARK  7 active torsions:
REMARK  status: ('A' for Active; 'I' for Inactive)
REMARK    1  A    between atoms: C2_2  and  N1_3 
REMARK    2  A    between atoms: N1_3  and  C3_4 
REMARK       I    between atoms: N1_3  and  C11_18 
REMARK    3  A    between atoms: C3_4  and  C4_5 
REMARK    4  A    between atoms: C4_5  and  C5_6 
REMARK    5  A    between atoms: C5_6  and  N2_7 
REMARK    6  A    between atoms: N2_7  and  S1_8 
REMARK    7  A    between atoms: S1_8  and  C6_11 
ROOT
ATOM      1  N2  <0> d           4.462  -3.465  -0.328  0.00  0.00    -0.315 N 
ATOM      2  H12 <0> d           3.815  -4.034   0.118  0.00  0.00     0.172 HD
ENDROOT
BRANCH   1   3
ATOM      3  C5  <0> d           4.076  -2.122  -0.769  0.00  0.00     0.134 C 
BRANCH   3   4
ATOM      4  C4  <0> d           2.551  -2.000  -0.755  0.00  0.00     0.040 C 
BRANCH   4   5
ATOM      5  C3  <0> d           2.147  -0.598  -1.215  0.00  0.00     0.127 C 
BRANCH   5   6
ATOM      6  N1  <0> d           0.687  -0.480  -1.202  0.00  0.00    -0.353 N 
ATOM      7  C11 <0> d          -0.025  -0.801  -2.300  0.00  0.00     0.215 C 
ATOM      8  O4  <0> d           0.533  -1.274  -3.268  0.00  0.00    -0.274 OA
ATOM      9  C12 <0> d          -1.514  -0.571  -2.327  0.00  0.00     0.117 C 
BRANCH   6  10
ATOM     10  C2  <0> d           0.001  -0.015   0.006  0.00  0.00     0.121 C 
ATOM     11  C1  <0> d          -0.224   1.495  -0.085  0.00  0.00     0.026 C 
ENDBRANCH   6  10
ENDBRANCH   5   6
ENDBRANCH   4   5
ENDBRANCH   3   4
ENDBRANCH   1   3
BRANCH   1  12
ATOM     12  S1  <0> d           6.003  -4.011  -0.591  0.00  0.00     0.263 S 
ATOM     13  O1  <0> d           6.072  -5.317  -0.034  0.00  0.00    -0.200 OA
ATOM     14  O2  <0> d           6.300  -3.749  -1.956  0.00  0.00    -0.200 OA
BRANCH  12  15
ATOM     15  C6  <0> d           7.085  -2.999   0.363  0.00  0.00     0.137 A 
ATOM     16  C8  <0> d           7.470  -3.232   1.633  0.00  0.00     0.100 A 
ATOM     17  O3  <0> d           8.293  -2.240   2.004  0.00  0.00    -0.216 OA
ATOM     18  C9  <0> d           7.052  -4.402   2.485  0.00  0.00     0.081 C 
ATOM     19  N3  <0> d           8.417  -1.345   0.913  0.00  0.00    -0.132 NA
ATOM     20  C7  <0> d           7.691  -1.805  -0.066  0.00  0.00     0.084 A 
ATOM     21  C10 <0> d           7.529  -1.169  -1.423  0.00  0.00     0.074 C 
ENDBRANCH  12  15
ENDBRANCH   1  12
TORSDOF 7
