REMARK  5 active torsions:
REMARK  status: ('A' for Active; 'I' for Inactive)
REMARK    1  A    between atoms: C3_3  and  S1_9 
REMARK    2  A    between atoms: S1_9  and  N3_12 
REMARK    3  A    between atoms: N3_12  and  C6_13 
REMARK    4  A    between atoms: N3_12  and  C9_17 
REMARK    5  A    between atoms: C6_13  and  C7_14 
ROOT
ATOM      1  C7  <0> d           1.947  -1.366  -5.341  0.00  0.00     0.144 C 
ATOM      2  C8  <0> d           2.494  -2.600  -5.929  0.00  0.00     0.060 C 
ATOM      3  N4  <0> d           2.916  -3.552  -6.382  0.00  0.00    -0.197 NA
ENDROOT
BRANCH   1   4
ATOM      4  C6  <0> d           2.176  -1.376  -3.829  0.00  0.00     0.150 C 
BRANCH   4   5
ATOM      5  N3  <0> d           1.515  -0.215  -3.227  0.00  0.00    -0.302 N 
BRANCH   5   6
ATOM      6  S1  <0> d          -0.024  -0.354  -2.633  0.00  0.00     0.265 S 
ATOM      7  O1  <0> d          -0.625  -1.449  -3.312  0.00  0.00    -0.200 OA
ATOM      8  O2  <0> d          -0.585   0.951  -2.647  0.00  0.00    -0.200 OA
BRANCH   6   9
ATOM      9  C3  <0> d           0.111  -0.826  -0.941  0.00  0.00     0.129 A 
ATOM     10  C2  <0> d           0.190   0.015   0.116  0.00  0.00     0.049 A 
ATOM     11  C1  <0> d           0.178   1.521   0.056  0.00  0.00     0.071 C 
ATOM     12  N2  <0> d           0.286  -0.735   1.234  0.00  0.00    -0.281 N 
ATOM     13  N1  <0> d           0.258  -2.083   0.851  0.00  0.00    -0.178 NA
ATOM     14  H1  <0> d           0.360  -0.401   2.141  0.00  0.00     0.189 HD
ATOM     15  C4  <0> d           0.156  -2.136  -0.452  0.00  0.00     0.076 A 
ATOM     16  C5  <0> d           0.096  -3.391  -1.283  0.00  0.00     0.074 C 
ENDBRANCH   6   9
ENDBRANCH   5   6
BRANCH   5  17
ATOM     17  C9  <0> d           2.216   1.069  -3.151  0.00  0.00     0.088 C 
ATOM     18  C10 <0> d           3.549   0.880  -2.424  0.00  0.00     0.032 C 
ATOM     19  C11 <0> d           2.476   1.592  -4.565  0.00  0.00     0.032 C 
ENDBRANCH   5  17
ENDBRANCH   4   5
ENDBRANCH   1   4
TORSDOF 5
