REMARK  5 active torsions:
REMARK  status: ('A' for Active; 'I' for Inactive)
REMARK    1  A    between atoms: C2_2  and  C3_3 
REMARK    2  A    between atoms: C3_3  and  N1_4 
REMARK    3  A    between atoms: C7_8  and  C11_14 
REMARK    4  A    between atoms: C11_14  and  C12_15 
REMARK    5  A    between atoms: C11_14  and  N2_19 
ROOT
ATOM      1  N1  <0> d           0.738  -1.962  -1.265  0.00  0.00    -0.291 N 
ATOM      2  C4  <0> d           1.726  -2.777  -0.712  0.00  0.00     0.073 A 
ATOM      3  C5  <0> d           2.906  -2.515  -0.034  0.00  0.00     0.033 A 
ATOM      4  C6  <0> d           3.695  -3.561   0.402  0.00  0.00     0.012 A 
ATOM      5  C7  <0> d           3.310  -4.869   0.164  0.00  0.00    -0.014 A 
ATOM      6  C8  <0> d           2.135  -5.138  -0.510  0.00  0.00     0.049 A 
ATOM      7  C9  <0> d           1.336  -4.094  -0.951  0.00  0.00     0.108 A 
ATOM      8  O1  <0> d           0.160  -4.050  -1.623  0.00  0.00    -0.259 OA
ATOM      9  C10 <0> d          -0.198  -2.769  -1.803  0.00  0.00     0.372 A 
ATOM     10  O2  <0> d          -1.207  -2.394  -2.368  0.00  0.00    -0.237 OA
ENDROOT
BRANCH   5  11
ATOM     11  C11 <0> d           4.176  -6.005   0.643  0.00  0.00     0.357 C 
BRANCH  11  12
ATOM     12  C12 <0> d           5.337  -6.208  -0.334  0.00  0.00     0.421 C 
ATOM     13  F1  <0> d           6.099  -5.037  -0.403  0.00  0.00    -0.168 F 
ATOM     14  F2  <0> d           6.141  -7.263   0.110  0.00  0.00    -0.168 F 
ATOM     15  F3  <0> d           4.831  -6.510  -1.603  0.00  0.00    -0.168 F 
ENDBRANCH  11  12
BRANCH  11  16
ATOM     16  N2  <0> d           4.708  -5.688   1.975  0.00  0.00     0.096 N 
ATOM     17  H12 <0> d           5.262  -4.846   1.952  0.00  0.00     0.314 HD
ATOM     18  H13 <0> d           3.964  -5.613   2.652  0.00  0.00     0.314 HD
ENDBRANCH  11  16
ENDBRANCH   5  11
BRANCH   1  19
ATOM     19  C3  <0> d           0.718  -0.497  -1.257  0.00  0.00     0.134 C 
BRANCH  19  20
ATOM     20  C2  <0> d           0.002  -0.004   0.002  0.00  0.00     0.016 C 
ATOM     21  C1  <0> d          -0.019   1.526   0.010  0.00  0.00     0.006 C 
ENDBRANCH  19  20
ENDBRANCH   1  19
TORSDOF 5
