REMARK  3 active torsions:
REMARK  status: ('A' for Active; 'I' for Inactive)
REMARK    1  A    between atoms: N3_9  and  C7_10 
REMARK    2  A    between atoms: C7_10  and  C8_11 
REMARK       I    between atoms: C8_11  and  N4_13 
REMARK    3  A    between atoms: N4_13  and  C9_14 
ROOT
ATOM      1  C8  <0> d          -3.095   0.429  -0.552  0.00  0.00     0.238 C 
ATOM      2  O1  <0> d          -3.072   0.866   0.579  0.00  0.00    -0.272 OA
ATOM      3  N4  <0> d          -2.185  -0.486  -0.940  0.00  0.00    -0.351 N 
ATOM      4  H8  <0> d          -2.206  -0.882  -1.966  0.00  0.00     0.163 HD
ENDROOT
BRANCH   1   5
ATOM      5  C7  <0> d          -4.142   0.909  -1.524  0.00  0.00     0.256 C 
BRANCH   5   6
ATOM      6  N3  <0> d          -5.005   1.893  -0.866  0.00  0.00    -0.240 N 
ATOM      7  C4  <0> d          -4.815   3.254  -0.822  0.00  0.00     0.085 A 
ATOM      8  C3  <0> d          -3.844   4.112  -1.328  0.00  0.00     0.034 A 
ATOM      9  C5  <0> d          -5.894   3.774  -0.086  0.00  0.00     0.109 A 
ATOM     10  C2  <0> d          -3.943   5.457  -1.106  0.00  0.00     0.002 A 
ATOM     11  C1  <0> d          -5.006   5.977  -0.379  0.00  0.00     0.003 A 
ATOM     12  C6  <0> d          -5.971   5.157   0.128  0.00  0.00     0.036 A 
ATOM     13  N1  <0> d          -6.676   2.739   0.281  0.00  0.00    -0.130 NA
ATOM     14  N2  <0> d          -6.189   1.633  -0.162  0.00  0.00    -0.065 NA
ENDBRANCH   5   6
ENDBRANCH   1   5
BRANCH   3  15
ATOM     15  C9  <0> d          -1.168  -0.953   0.006  0.00  0.00     0.120 C 
ATOM     16  C14 <0> d           0.002  -0.004   0.002  0.00  0.00    -0.004 A 
ATOM     17  C13 <0> d           1.296  -0.384  -0.012  0.00  0.00     0.061 A 
ATOM     18  C15 <0> d          -0.017   1.402   0.010  0.00  0.00     0.036 A 
ATOM     19  C12 <0> d           1.750  -1.824  -0.021  0.00  0.00     0.066 C 
ATOM     20  O2  <0> d           2.058   0.716  -0.014  0.00  0.00    -0.326 OA
ATOM     21  C11 <0> d           0.572  -2.707   0.405  0.00  0.00     0.009 C 
ATOM     22  C10 <0> d          -0.667  -2.340  -0.417  0.00  0.00     0.030 C 
ATOM     23  C16 <0> d           1.269   1.806  -0.000  0.00  0.00     0.142 A 
ENDBRANCH   3  15
TORSDOF 3
