REMARK  7 active torsions:
REMARK  status: ('A' for Active; 'I' for Inactive)
REMARK    1  A    between atoms: C3_3  and  C10_11 
REMARK    2  A    between atoms: C5_5  and  C7_7 
REMARK    3  A    between atoms: C8_8  and  C9_9 
REMARK    4  A    between atoms: C9_9  and  O1_10 
REMARK    5  A    between atoms: C10_11  and  N1_12 
REMARK       I    between atoms: N1_12  and  C11_13 
REMARK    6  A    between atoms: C11_13  and  C12_15 
REMARK    7  A    between atoms: C12_15  and  N2_16 
ROOT
ATOM      1  C1  <0> d          -0.017   1.375   0.010  0.00  0.00     0.002 A 
ATOM      2  C2  <0> d           1.170   2.086   0.002  0.00  0.00     0.009 A 
ATOM      3  C3  <0> d           2.382   1.420  -0.013  0.00  0.00    -0.039 A 
ATOM      4  C4  <0> d           2.415   0.041  -0.021  0.00  0.00     0.029 A 
ATOM      5  C5  <0> d           1.222  -0.682  -0.013  0.00  0.00     0.018 A 
ATOM      6  C6  <0> d           0.002  -0.004   0.002  0.00  0.00     0.020 A 
ENDROOT
BRANCH   3   7
ATOM      7  C10 <0> d           3.670   2.203  -0.023  0.00  0.00     0.161 C 
BRANCH   7   8
ATOM      8  N1  <0> d           4.102   2.449   1.355  0.00  0.00    -0.355 N 
ATOM      9  C11 <0> d           5.237   3.136   1.594  0.00  0.00     0.237 C 
ATOM     10  O2  <0> d           5.901   3.550   0.667  0.00  0.00    -0.272 OA
ATOM     11  H10 <0> d           3.571   2.118   2.097  0.00  0.00     0.162 HD
BRANCH   9  12
ATOM     12  C12 <0> d           5.680   3.390   3.011  0.00  0.00     0.254 C 
BRANCH  12  13
ATOM     13  N2  <0> d           6.932   4.150   3.003  0.00  0.00    -0.254 N 
ATOM     14  N4  <0> d           8.123   3.803   2.344  0.00  0.00    -0.164 NA
ATOM     15  C14 <0> d           8.984   4.754   2.595  0.00  0.00     0.256 A 
ATOM     16  N3  <0> d           8.406   5.667   3.375  0.00  0.00    -0.234 NA
ATOM     17  C13 <0> d           7.171   5.316   3.628  0.00  0.00     0.230 A 
ENDBRANCH  12  13
ENDBRANCH   9  12
ENDBRANCH   7   8
ENDBRANCH   3   7
BRANCH   5  18
ATOM     18  C7  <0> d           1.248  -2.114  -0.022  0.00  0.00    -0.065 C 
ATOM     19  C8  <0> d           1.270  -3.288  -0.029  0.00  0.00    -0.075 C 
BRANCH  19  20
ATOM     20  C9  <0> d           1.297  -4.760  -0.037  0.00  0.00     0.258 C 
BRANCH  20  21
ATOM     21  O1  <0> d          -0.041  -5.261  -0.027  0.00  0.00    -0.389 OA
ATOM     22  H7  <0> d          -0.099  -6.226  -0.032  0.00  0.00     0.210 HD
ENDBRANCH  20  21
ENDBRANCH  19  20
ENDBRANCH   5  18
TORSDOF 7
