REMARK  5 active torsions:
REMARK  status: ('A' for Active; 'I' for Inactive)
REMARK    1  A    between atoms: C4_6  and  C5_7 
REMARK    2  A    between atoms: C5_7  and  N3_17 
REMARK    3  A    between atoms: C10_12  and  C11_13 
REMARK    4  A    between atoms: C11_13  and  C12_14 
REMARK    5  A    between atoms: C12_14  and  O1_15 
ROOT
ATOM      1  C6  <0> d          -1.961   3.832  -0.723  0.00  0.00     0.235 C 
ATOM      2  C7  <0> d          -1.553   3.777   0.751  0.00  0.00     0.028 C 
ATOM      3  C8  <0> d          -1.641   2.332   1.248  0.00  0.00     0.004 C 
ATOM      4  C9  <0> d          -0.743   1.446   0.380  0.00  0.00     0.033 C 
ATOM      5  C10 <0> d          -1.174   1.569  -1.083  0.00  0.00     0.190 C 
ATOM      6  N3  <0> d          -1.042   2.979  -1.506  0.00  0.00    -0.061 N 
ATOM      7  H22 <0> d          -0.077   3.288  -1.339  0.00  0.00     0.280 HD
ENDROOT
BRANCH   6   8
ATOM      8  C5  <0> d          -1.343   3.104  -2.947  0.00  0.00     0.293 C 
BRANCH   8   9
ATOM      9  C4  <0> d          -1.136   4.537  -3.366  0.00  0.00     0.055 A 
ATOM     10  N1  <0> d          -2.051   5.551  -3.284  0.00  0.00    -0.347 N 
ATOM     11  C1  <0> d          -3.419   5.449  -2.770  0.00  0.00     0.157 C 
ATOM     12  C2  <0> d          -1.456   6.665  -3.764  0.00  0.00     0.209 A 
ATOM     13  N2  <0> d          -0.239   6.366  -4.127  0.00  0.00    -0.254 NA
ATOM     14  C3  <0> d          -0.013   5.065  -3.889  0.00  0.00     0.144 A 
ENDBRANCH   8   9
ENDBRANCH   6   8
BRANCH   5  15
ATOM     15  C11 <0> d          -0.265   0.701  -1.957  0.00  0.00     0.059 C 
BRANCH  15  16
ATOM     16  C12 <0> d          -0.476  -0.773  -1.606  0.00  0.00     0.166 C 
BRANCH  16  17
ATOM     17  O1  <0> d           0.277  -1.589  -2.505  0.00  0.00    -0.401 OA
ATOM     18  H21 <0> d           0.191  -2.538  -2.341  0.00  0.00     0.209 HD
ENDBRANCH  16  17
ENDBRANCH  15  16
ENDBRANCH   5  15
TORSDOF 5
