REMARK  7 active torsions:
REMARK  status: ('A' for Active; 'I' for Inactive)
REMARK    1  A    between atoms: C4_4  and  N1_9 
REMARK       I    between atoms: N1_9  and  C9_10 
REMARK    2  A    between atoms: C9_10  and  C10_12 
REMARK    3  A    between atoms: C10_12  and  C11_13 
REMARK    4  A    between atoms: C11_13  and  C12_14 
REMARK    5  A    between atoms: C12_14  and  C13_15 
REMARK    6  A    between atoms: C13_15  and  C14_16 
REMARK       I    between atoms: C14_16  and  N2_18 
REMARK    7  A    between atoms: N2_18  and  C15_19 
ROOT
ATOM      1  C11 <0> d           0.605   5.705  -6.055  0.00  0.00     0.010 C 
ENDROOT
BRANCH   1   2
ATOM      2  C10 <0> d           1.277   4.429  -5.545  0.00  0.00     0.103 C 
BRANCH   2   3
ATOM      3  C9  <0> d           0.781   4.120  -4.156  0.00  0.00     0.217 C 
ATOM      4  N1  <0> d           1.238   3.033  -3.503  0.00  0.00    -0.356 N 
ATOM      5  H15 <0> d           1.887   2.450  -3.927  0.00  0.00     0.162 HD
ATOM      6  O1  <0> d          -0.030   4.849  -3.626  0.00  0.00    -0.274 OA
BRANCH   4   7
ATOM      7  C4  <0> d           0.755   2.732  -2.150  0.00  0.00     0.089 C 
ATOM      8  C3  <0> d          -0.531   1.911  -2.245  0.00  0.00     0.063 C 
ATOM      9  C2  <0> d          -1.041   1.551  -0.853  0.00  0.00     0.121 C 
ATOM     10  C1  <0> d          -2.142   0.480  -1.024  0.00  0.00     0.046 C 
ATOM     11  C24 <0> d          -1.702   2.779  -0.216  0.00  0.00     0.046 C 
ATOM     12  N3  <0> d          -0.027   0.947   0.053  0.00  0.00    -0.059 N 
ATOM     13  C6  <0> d           1.321   1.577  -0.002  0.00  0.00     0.121 C 
ATOM     14  H45 <0> d           0.074  -0.043  -0.198  0.00  0.00     0.279 HD
ATOM     15  H46 <0> d          -0.375   1.023   1.016  0.00  0.00     0.279 HD
ATOM     16  C5  <0> d           1.806   1.898  -1.415  0.00  0.00     0.063 C 
ATOM     17  C7  <0> d           1.397   2.833   0.870  0.00  0.00     0.046 C 
ATOM     18  C8  <0> d           2.294   0.539   0.599  0.00  0.00     0.046 C 
ENDBRANCH   4   7
ENDBRANCH   2   3
ENDBRANCH   1   2
BRANCH   1  19
ATOM     19  C12 <0> d           1.109   6.019  -7.465  0.00  0.00     0.010 C 
BRANCH  19  20
ATOM     20  C13 <0> d           0.437   7.296  -7.974  0.00  0.00     0.103 C 
BRANCH  20  21
ATOM     21  C14 <0> d           0.933   7.605  -9.363  0.00  0.00     0.217 C 
ATOM     22  O2  <0> d           1.744   6.875  -9.894  0.00  0.00    -0.274 OA
ATOM     23  N2  <0> d           0.475   8.691 -10.016  0.00  0.00    -0.356 N 
ATOM     24  H24 <0> d          -0.174   9.274  -9.592  0.00  0.00     0.162 HD
BRANCH  23  25
ATOM     25  C15 <0> d           0.959   8.992 -11.370  0.00  0.00     0.089 C 
ATOM     26  C19 <0> d          -0.090   9.825 -12.105  0.00  0.00     0.063 C 
ATOM     27  C18 <0> d           0.396  10.171 -13.510  0.00  0.00     0.121 C 
ATOM     28  C20 <0> d           0.289   8.933 -14.409  0.00  0.00     0.046 C 
ATOM     29  C21 <0> d          -0.564  11.237 -14.085  0.00  0.00     0.046 C 
ATOM     30  N4  <0> d           1.754  10.774 -13.572  0.00  0.00    -0.059 N 
ATOM     31  C17 <0> d           2.762  10.156 -12.668  0.00  0.00     0.121 C 
ATOM     32  H47 <0> d           2.097  10.688 -14.536  0.00  0.00     0.279 HD
ATOM     33  H48 <0> d           1.673  11.768 -13.326  0.00  0.00     0.279 HD
ATOM     34  C16 <0> d           2.247   9.809 -11.274  0.00  0.00     0.063 C 
ATOM     35  C22 <0> d           3.399   8.915 -13.304  0.00  0.00     0.046 C 
ATOM     36  C23 <0> d           3.880  11.210 -12.503  0.00  0.00     0.046 C 
ENDBRANCH  23  25
ENDBRANCH  20  21
ENDBRANCH  19  20
ENDBRANCH   1  19
TORSDOF 7
