REMARK  3 active torsions:
REMARK  status: ('A' for Active; 'I' for Inactive)
REMARK    1  A    between atoms: C2_2  and  C3_3 
REMARK    2  A    between atoms: N1_13  and  C13_15 
REMARK    3  A    between atoms: C13_15  and  C15_17 
ROOT
ATOM      1  C3  <0> d           0.707  -0.490  -1.238  0.00  0.00    -0.056 A 
ATOM      2  C4  <0> d          -0.017  -0.717  -2.396  0.00  0.00     0.008 A 
ATOM      3  C5  <0> d           0.618  -1.162  -3.539  0.00  0.00     0.015 A 
ATOM      4  C6  <0> d           1.991  -1.381  -3.521  0.00  0.00    -0.003 A 
ATOM      5  C7  <0> d           2.722  -1.152  -2.347  0.00  0.00     0.081 A 
ATOM      6  C8  <0> d           2.074  -0.701  -1.212  0.00  0.00     0.044 A 
ATOM      7  O1  <0> d           4.062  -1.376  -2.353  0.00  0.00    -0.334 OA
ATOM      8  C9  <0> d           4.539  -2.428  -3.187  0.00  0.00     0.111 C 
ATOM      9  C10 <0> d           4.222  -3.792  -2.547  0.00  0.00     0.072 C 
ATOM     10  C11 <0> d           5.600  -4.450  -2.311  0.00  0.00     0.239 C 
ATOM     11  N1  <0> d           6.551  -3.311  -2.239  0.00  0.00    -0.054 N 
ATOM     12  C12 <0> d           6.075  -2.368  -3.283  0.00  0.00     0.278 C 
ATOM     13  C16 <0> d           3.936  -2.355  -4.561  0.00  0.00     0.014 C 
ATOM     14  C17 <0> d           2.710  -1.858  -4.722  0.00  0.00     0.013 C 
ATOM     15  H21 <0> d           6.514  -2.878  -1.328  0.00  0.00     0.281 HD
ENDROOT
BRANCH  11  16
ATOM     16  C13 <0> d           7.917  -3.763  -2.539  0.00  0.00     0.284 C 
ATOM     17  C14 <0> d           8.871  -2.568  -2.493  0.00  0.00     0.052 C 
BRANCH  16  18
ATOM     18  C15 <0> d           8.343  -4.787  -1.518  0.00  0.00     0.204 C 
ATOM     19  O2  <0> d           7.580  -5.110  -0.624  0.00  0.00    -0.646 OA
ATOM     20  O3  <0> d           9.450  -5.292  -1.587  0.00  0.00    -0.646 OA
ENDBRANCH  16  18
ENDBRANCH  11  16
BRANCH   1  21
ATOM     21  C2  <0> d           0.002  -0.004   0.002  0.00  0.00     0.034 C 
ATOM     22  C1  <0> d          -0.019   1.526   0.010  0.00  0.00     0.010 C 
ENDBRANCH   1  21
TORSDOF 3
