REMARK  4 active torsions:
REMARK  status: ('A' for Active; 'I' for Inactive)
REMARK    1  A    between atoms: C2_2  and  C3_3 
REMARK    2  A    between atoms: C4_6  and  N3_7 
REMARK       I    between atoms: N3_7  and  C5_8 
REMARK    3  A    between atoms: C5_8  and  C6_10 
REMARK    4  A    between atoms: C7_11  and  O3_22 
ROOT
ATOM      1  C6  <0> d           3.276  -2.529  -6.658  0.00  0.00     0.204 C 
ATOM      2  C7  <0> d           4.767  -2.828  -6.821  0.00  0.00     0.175 C 
ATOM      3  C8  <0> d           5.542  -1.536  -6.826  0.00  0.00    -0.001 A 
ATOM      4  C9  <0> d           6.809  -1.484  -6.279  0.00  0.00     0.012 A 
ATOM      5  C10 <0> d           7.517  -0.296  -6.285  0.00  0.00     0.001 A 
ATOM      6  C11 <0> d           6.960   0.842  -6.839  0.00  0.00     0.002 A 
ATOM      7  C12 <0> d           5.693   0.796  -7.388  0.00  0.00     0.030 A 
ATOM      8  C13 <0> d           4.980  -0.395  -7.383  0.00  0.00     0.045 A 
ATOM      9  N4  <0> d           3.697  -0.449  -7.939  0.00  0.00    -0.321 N 
ATOM     10  C14 <0> d           2.862  -1.453  -7.625  0.00  0.00     0.240 C 
ATOM     11  O2  <0> d           1.759  -1.492  -8.128  0.00  0.00    -0.272 OA
ATOM     12  C15 <0> d           3.263   0.597  -8.869  0.00  0.00     0.159 C 
ENDROOT
BRANCH   1  13
ATOM     13  C5  <0> d           3.010  -2.065  -5.249  0.00  0.00     0.239 C 
ATOM     14  N3  <0> d           1.756  -1.746  -4.870  0.00  0.00    -0.303 N 
ATOM     15  H16 <0> d           1.026  -1.815  -5.504  0.00  0.00     0.171 HD
ATOM     16  O1  <0> d           3.923  -1.979  -4.456  0.00  0.00    -0.272 OA
BRANCH  14  17
ATOM     17  C4  <0> d           1.511  -1.318  -3.570  0.00  0.00     0.196 A 
ATOM     18  N2  <0> d           2.358  -1.160  -2.572  0.00  0.00    -0.123 NA
ATOM     19  N1  <0> d           1.983  -0.759  -1.434  0.00  0.00    -0.145 NA
ATOM     20  C3  <0> d           0.707  -0.490  -1.238  0.00  0.00     0.100 A 
ATOM     21  S1  <0> d           0.050  -0.872  -2.855  0.00  0.00    -0.033 SA
BRANCH  20  22
ATOM     22  C2  <0> d           0.002  -0.004   0.002  0.00  0.00     0.064 C 
ATOM     23  C1  <0> d          -0.019   1.526   0.010  0.00  0.00     0.012 C 
ENDBRANCH  20  22
ENDBRANCH  14  17
ENDBRANCH   1  13
BRANCH   2  24
ATOM     24  O3  <0> d           4.982  -3.517  -8.054  0.00  0.00    -0.389 OA
ATOM     25  H15 <0> d           5.908  -3.739  -8.224  0.00  0.00     0.210 HD
ENDBRANCH   2  24
TORSDOF 4
