REMARK  6 active torsions:
REMARK  status: ('A' for Active; 'I' for Inactive)
REMARK    1  A    between atoms: C3_4  and  S1_7 
REMARK    2  A    between atoms: S1_7  and  C5_8 
REMARK    3  A    between atoms: C5_8  and  C6_9 
REMARK    4  A    between atoms: C6_9  and  C7_10 
REMARK    5  A    between atoms: C6_9  and  O1_17 
REMARK    6  A    between atoms: C11_14  and  N3_16 
ROOT
ATOM      1  C6  <0> d           0.080  -6.224  -1.304  0.00  0.00     0.160 C 
ENDROOT
BRANCH   1   2
ATOM      2  C5  <0> d           0.066  -4.902  -0.533  0.00  0.00     0.116 C 
BRANCH   2   3
ATOM      3  S1  <0> d           0.042  -3.518  -1.706  0.00  0.00    -0.124 SA
BRANCH   3   4
ATOM      4  C3  <0> d           0.027  -2.088  -0.677  0.00  0.00     0.036 A 
ATOM      5  C2  <0> d           0.008  -0.798  -1.101  0.00  0.00     0.131 A 
ATOM      6  N1  <0> d           0.002  -0.004   0.002  0.00  0.00    -0.284 N 
ATOM      7  C1  <0> d          -0.018   1.461   0.010  0.00  0.00     0.179 C 
ATOM      8  N2  <0> d           0.025  -0.835   1.130  0.00  0.00    -0.184 NA
ATOM      9  C4  <0> d           0.034  -2.079   0.725  0.00  0.00     0.158 A 
ENDBRANCH   3   4
ENDBRANCH   2   3
ENDBRANCH   1   2
BRANCH   1  10
ATOM     10  C7  <0> d          -0.024  -7.372  -0.334  0.00  0.00    -0.027 A 
ATOM     11  C12 <0> d          -1.239  -7.996  -0.131  0.00  0.00     0.038 A 
ATOM     12  C11 <0> d          -1.332  -9.058   0.760  0.00  0.00     0.026 A 
ATOM     13  C10 <0> d          -0.205  -9.482   1.451  0.00  0.00     0.029 A 
ATOM     14  C9  <0> d           1.006  -8.850   1.248  0.00  0.00     0.003 A 
ATOM     15  C8  <0> d           1.097  -7.796   0.357  0.00  0.00     0.010 A 
BRANCH  12  16
ATOM     16  N3  <0> d          -2.558  -9.696   0.963  0.00  0.00    -0.399 N 
ATOM     17  H13 <0> d          -2.623 -10.435   1.588  0.00  0.00     0.156 HD
ATOM     18  H14 <0> d          -3.345  -9.399   0.479  0.00  0.00     0.156 HD
ENDBRANCH  12  16
ENDBRANCH   1  10
BRANCH   1  19
ATOM     19  O1  <0> d           1.299  -6.332  -2.042  0.00  0.00    -0.390 OA
ATOM     20  H15 <0> d           2.094  -6.314  -1.492  0.00  0.00     0.210 HD
ENDBRANCH   1  19
TORSDOF 6
