REMARK  5 active torsions:
REMARK  status: ('A' for Active; 'I' for Inactive)
REMARK    1  A    between atoms: C3_4  and  C5_7 
REMARK    2  A    between atoms: C5_7  and  N2_8 
REMARK       I    between atoms: N2_8  and  C6_9 
REMARK    3  A    between atoms: C6_9  and  C7_11 
REMARK       I    between atoms: N3_13  and  C15_21 
REMARK    4  A    between atoms: C15_21  and  C16_23 
REMARK    5  A    between atoms: C21_28  and  O3_29 
ROOT
ATOM      1  C7  <0> d          -3.940  -4.367   3.038  0.00  0.00     0.106 C 
ATOM      2  C8  <0> d          -4.339  -3.030   3.703  0.00  0.00     0.141 C 
ATOM      3  N3  <0> d          -5.803  -2.933   3.499  0.00  0.00    -0.346 N 
ATOM      4  C9  <0> d          -6.296  -4.317   3.703  0.00  0.00     0.136 C 
ATOM      5  C10 <0> d          -5.226  -5.210   3.043  0.00  0.00    -0.007 C 
ATOM      6  C11 <0> d          -5.637  -5.556   1.615  0.00  0.00     0.039 C 
ATOM      7  C12 <0> d          -6.886  -6.441   1.648  0.00  0.00     0.233 C 
ATOM      8  N4  <0> d          -6.600  -7.665   2.407  0.00  0.00    -0.075 N 
ATOM      9  C13 <0> d          -6.297  -7.329   3.803  0.00  0.00     0.233 C 
ATOM     10  C14 <0> d          -5.023  -6.481   3.861  0.00  0.00     0.039 C 
ATOM     11  C15 <0> d          -6.525  -1.835   3.198  0.00  0.00     0.256 C 
ATOM     12  O2  <0> d          -5.962  -0.783   2.966  0.00  0.00    -0.267 OA
ATOM     13  H17 <0> d          -7.405  -8.273   2.376  0.00  0.00     0.277 HD
ATOM     14  H29 <0> d          -5.809  -8.136   1.996  0.00  0.00     0.277 HD
ENDROOT
BRANCH   1  15
ATOM     15  C6  <0> d          -3.472  -4.131   1.625  0.00  0.00     0.224 C 
ATOM     16  N2  <0> d          -2.549  -4.945   1.076  0.00  0.00    -0.355 N 
ATOM     17  H8  <0> d          -2.185  -5.683   1.591  0.00  0.00     0.162 HD
ATOM     18  O1  <0> d          -3.927  -3.210   0.981  0.00  0.00    -0.273 OA
BRANCH  16  19
ATOM     19  C5  <0> d          -2.094  -4.716  -0.297  0.00  0.00     0.182 C 
BRANCH  19  20
ATOM     20  C3  <0> d          -1.068  -5.757  -0.667  0.00  0.00     0.059 A 
ATOM     21  N1  <0> d           0.206  -5.605  -0.366  0.00  0.00    -0.249 NA
ATOM     22  C2  <0> d           1.095  -6.512  -0.689  0.00  0.00     0.071 A 
ATOM     23  C1  <0> d           2.579  -6.503  -0.426  0.00  0.00     0.078 C 
ATOM     24  S1  <0> d           0.179  -7.686  -1.473  0.00  0.00    -0.085 SA
ATOM     25  C4  <0> d          -1.415  -6.893  -1.325  0.00  0.00     0.080 A 
ENDBRANCH  19  20
ENDBRANCH  16  19
ENDBRANCH   1  15
BRANCH  11  26
ATOM     26  C16 <0> d          -7.997  -1.910   3.149  0.00  0.00     0.065 A 
ATOM     27  C21 <0> d          -8.712  -1.144   2.218  0.00  0.00     0.084 A 
ATOM     28  C20 <0> d         -10.096  -1.227   2.178  0.00  0.00     0.038 A 
ATOM     29  C19 <0> d         -10.766  -2.052   3.059  0.00  0.00     0.003 A 
ATOM     30  C18 <0> d         -10.063  -2.807   3.985  0.00  0.00     0.001 A 
ATOM     31  C17 <0> d          -8.688  -2.741   4.035  0.00  0.00     0.020 A 
BRANCH  27  32
ATOM     32  O3  <0> d          -8.052  -0.330   1.357  0.00  0.00    -0.355 OA
ATOM     33  C22 <0> d          -8.847   0.420   0.436  0.00  0.00     0.210 C 
ENDBRANCH  27  32
ENDBRANCH  11  26
TORSDOF 5
