REMARK  7 active torsions:
REMARK  status: ('A' for Active; 'I' for Inactive)
REMARK    1  A    between atoms: C7_7  and  N1_8 
REMARK       I    between atoms: N1_8  and  C8_9 
REMARK    2  A    between atoms: C8_9  and  C9_11 
REMARK    3  A    between atoms: C9_11  and  N2_12 
REMARK       I    between atoms: N2_12  and  C10_13 
REMARK    4  A    between atoms: C10_13  and  C11_15 
REMARK    5  A    between atoms: C11_15  and  S1_17 
REMARK    6  A    between atoms: S1_17  and  C13_18 
REMARK    7  A    between atoms: N5_22  and  C15_23 
ROOT
ATOM      1  N2  <0> d          -0.231  -0.746   5.978  0.00  0.00    -0.351 N 
ATOM      2  C10 <0> d          -0.311  -0.271   7.236  0.00  0.00     0.232 C 
ATOM      3  O2  <0> d          -0.268   0.924   7.437  0.00  0.00    -0.272 OA
ATOM      4  H11 <0> d          -0.265  -1.702   5.817  0.00  0.00     0.163 HD
ENDROOT
BRANCH   2   5
ATOM      5  C11 <0> d          -0.455  -1.225   8.394  0.00  0.00     0.143 C 
ATOM      6  C12 <0> d          -1.915  -1.670   8.509  0.00  0.00     0.031 C 
BRANCH   5   7
ATOM      7  S1  <0> d           0.047  -0.395   9.927  0.00  0.00    -0.076 SA
BRANCH   7   8
ATOM      8  C13 <0> d          -0.035  -1.666  11.145  0.00  0.00     0.196 A 
ATOM      9  N5  <0> d           0.254  -1.536  12.476  0.00  0.00    -0.282 N 
ATOM     10  C14 <0> d           0.047  -2.776  13.021  0.00  0.00     0.241 A 
ATOM     11  N4  <0> d          -0.329  -3.566  12.055  0.00  0.00    -0.142 NA
ATOM     12  N3  <0> d          -0.379  -2.917  10.947  0.00  0.00    -0.123 NA
BRANCH   9  13
ATOM     13  C15 <0> d           0.672  -0.376  13.144  0.00  0.00     0.044 A 
ATOM     14  C20 <0> d           0.032   0.025  14.308  0.00  0.00     0.054 A 
ATOM     15  C19 <0> d           0.451   1.165  14.968  0.00  0.00     0.042 A 
ATOM     16  C18 <0> d           1.499   1.913  14.461  0.00  0.00    -0.040 A 
ATOM     17 Cl1  <0> d          -0.344   1.664  16.428  0.00  0.00    -0.084 Cl
ATOM     18  C17 <0> d           2.134   1.518  13.298  0.00  0.00     0.011 A 
ATOM     19  C21 <0> d           1.949   3.160  15.178  0.00  0.00     0.050 C 
ATOM     20  C16 <0> d           1.724   0.376  12.639  0.00  0.00     0.031 A 
ENDBRANCH   9  13
ENDBRANCH   7   8
ENDBRANCH   5   7
ENDBRANCH   2   5
BRANCH   1  21
ATOM     21  C9  <0> d          -0.090   0.181   4.852  0.00  0.00     0.225 C 
BRANCH  21  22
ATOM     22  C8  <0> d          -0.022  -0.598   3.564  0.00  0.00     0.239 C 
ATOM     23  N1  <0> d           0.108   0.050   2.390  0.00  0.00    -0.325 N 
ATOM     24  H8  <0> d           0.224   1.013   2.378  0.00  0.00     0.169 HD
ATOM     25  O1  <0> d          -0.085  -1.810   3.584  0.00  0.00    -0.271 OA
BRANCH  23  26
ATOM     26  C7  <0> d           0.076  -0.666   1.188  0.00  0.00     0.046 A 
ATOM     27  C2  <0> d           1.249  -0.887   0.479  0.00  0.00    -0.035 A 
ATOM     28  C1  <0> d           2.558  -0.356   1.002  0.00  0.00     0.050 C 
ATOM     29  C3  <0> d           1.214  -1.599  -0.704  0.00  0.00     0.009 A 
ATOM     30  C4  <0> d           0.013  -2.087  -1.185  0.00  0.00     0.001 A 
ATOM     31  C5  <0> d          -1.158  -1.863  -0.484  0.00  0.00     0.009 A 
ATOM     32  C6  <0> d          -1.130  -1.152   0.700  0.00  0.00    -0.035 A 
ATOM     33  C22 <0> d          -2.406  -0.908   1.463  0.00  0.00     0.050 C 
ENDBRANCH  23  26
ENDBRANCH  21  22
ENDBRANCH   1  21
TORSDOF 7
