REMARK  9 active torsions:
REMARK  status: ('A' for Active; 'I' for Inactive)
REMARK    1  A    between atoms: N1_2  and  C3_4 
REMARK    2  A    between atoms: C3_4  and  C4_5 
REMARK    3  A    between atoms: C3_4  and  C19_27 
REMARK    4  A    between atoms: C4_5  and  N2_6 
REMARK    5  A    between atoms: N2_6  and  C5_7 
REMARK    6  A    between atoms: C5_7  and  C6_8 
REMARK    7  A    between atoms: C5_7  and  C12_14 
REMARK       I    between atoms: C12_14  and  N3_16 
REMARK    8  A    between atoms: N3_16  and  C13_17 
REMARK    9  A    between atoms: C16_20  and  N4_24 
ROOT
ATOM      1  C5  <0> d          -0.019  -4.715   0.600  0.00  0.00     0.345 C 
ENDROOT
BRANCH   1   2
ATOM      2  N2  <0> d          -0.154  -3.265   0.798  0.00  0.00     0.103 N 
ATOM      3  H11 <0> d           0.749  -2.816   0.802  0.00  0.00     0.317 HD
BRANCH   2   4
ATOM      4  C4  <0> d          -1.031  -2.674  -0.221  0.00  0.00     0.309 C 
BRANCH   4   5
ATOM      5  C3  <0> d          -1.248  -1.192   0.090  0.00  0.00     0.248 C 
BRANCH   5   6
ATOM      6  N1  <0> d          -2.097  -0.593  -0.949  0.00  0.00    -0.069 N 
ATOM      7  C1  <0> d          -2.225   0.850  -0.704  0.00  0.00     0.270 C 
ATOM      8  C2  <0> d          -1.487  -0.813  -2.267  0.00  0.00     0.270 C 
ATOM      9  H26 <0> d          -3.010  -1.021  -0.925  0.00  0.00     0.279 HD
ENDBRANCH   5   6
BRANCH   5  10
ATOM     10  C19 <0> d          -1.921  -1.053   1.431  0.00  0.00    -0.026 A 
ATOM     11  C24 <0> d          -1.173  -0.739   2.550  0.00  0.00     0.009 A 
ATOM     12  C23 <0> d          -1.791  -0.607   3.780  0.00  0.00     0.001 A 
ATOM     13  C22 <0> d          -3.155  -0.798   3.891  0.00  0.00     0.000 A 
ATOM     14  C21 <0> d          -3.902  -1.118   2.773  0.00  0.00     0.001 A 
ATOM     15  C20 <0> d          -3.285  -1.245   1.543  0.00  0.00     0.009 A 
ENDBRANCH   5  10
ENDBRANCH   4   5
ENDBRANCH   2   4
ENDBRANCH   1   2
BRANCH   1  16
ATOM     16  C6  <0> d           1.071  -4.986  -0.404  0.00  0.00    -0.016 A 
ATOM     17  C11 <0> d           0.909  -5.982  -1.349  0.00  0.00     0.010 A 
ATOM     18  C10 <0> d           1.908  -6.228  -2.272  0.00  0.00     0.001 A 
ATOM     19  C9  <0> d           3.073  -5.483  -2.245  0.00  0.00     0.000 A 
ATOM     20  C8  <0> d           3.237  -4.491  -1.297  0.00  0.00     0.001 A 
ATOM     21  C7  <0> d           2.236  -4.242  -0.376  0.00  0.00     0.010 A 
ENDBRANCH   1  16
BRANCH   1  22
ATOM     22  C12 <0> d           0.330  -5.370   1.911  0.00  0.00     0.260 C 
ATOM     23  O1  <0> d           0.455  -4.696   2.912  0.00  0.00    -0.270 OA
ATOM     24  N3  <0> d           0.504  -6.705   1.972  0.00  0.00    -0.324 N 
ATOM     25  H17 <0> d           0.490  -7.234   1.159  0.00  0.00     0.169 HD
BRANCH  24  26
ATOM     26  C13 <0> d           0.705  -7.330   3.208  0.00  0.00     0.052 A 
ATOM     27  C18 <0> d           1.523  -8.449   3.299  0.00  0.00     0.040 A 
ATOM     28  C17 <0> d           1.724  -9.059   4.522  0.00  0.00     0.057 A 
ATOM     29 Br1  <0> d           2.366  -9.133   1.750  0.00  0.00    -0.049 Br
ATOM     30  C16 <0> d           1.103  -8.563   5.654  0.00  0.00     0.104 A 
ATOM     31  C15 <0> d           0.283  -7.452   5.566  0.00  0.00     0.038 A 
ATOM     32  C14 <0> d           0.083  -6.834   4.347  0.00  0.00     0.033 A 
BRANCH  30  33
ATOM     33  N4  <0> d           1.316  -9.222   6.962  0.00  0.00    -0.116 N 
ATOM     34  O2  <0> d           0.773  -8.789   7.952  0.00  0.00    -0.532 OA
ATOM     35  O3  <0> d           2.032 -10.193   7.040  0.00  0.00    -0.532 OA
ENDBRANCH  30  33
ENDBRANCH  24  26
ENDBRANCH   1  22
TORSDOF 9
