REMARK  7 active torsions:
REMARK  status: ('A' for Active; 'I' for Inactive)
REMARK    1  A    between atoms: C2_2  and  C3_4 
REMARK    2  A    between atoms: C3_4  and  O7_32 
REMARK    3  A    between atoms: C13_14  and  O5_27 
REMARK    4  A    between atoms: C14_15  and  O4_26 
REMARK    5  A    between atoms: C18_19  and  O2_21 
REMARK    6  A    between atoms: O2_21  and  C20_22 
REMARK    7  A    between atoms: O5_27  and  C23_28 
ROOT
ATOM      1  C3  <0> d          -1.305  -0.788  -0.018  0.00  0.00     0.125 C 
ATOM      2  C4  <0> d          -1.786  -1.111  -1.457  0.00  0.00     0.047 C 
ATOM      3  C5  <0> d          -2.048  -2.646  -1.496  0.00  0.00     0.009 C 
ATOM      4  C6  <0> d          -2.235  -2.961  -0.004  0.00  0.00     0.002 C 
ATOM      5  C7  <0> d          -1.060  -2.177   0.615  0.00  0.00    -0.002 C 
ATOM      6  C8  <0> d          -1.125  -2.218   2.119  0.00  0.00     0.013 C 
ATOM      7  C9  <0> d          -1.402  -3.638   2.638  0.00  0.00     0.007 C 
ATOM      8  C10 <0> d          -1.306  -4.688   1.547  0.00  0.00     0.001 C 
ATOM      9  C11 <0> d          -2.280  -4.400   0.409  0.00  0.00    -0.002 C 
ATOM     10  C12 <0> d          -2.031  -5.377  -0.733  0.00  0.00     0.041 C 
ATOM     11  C13 <0> d          -2.191  -6.818  -0.243  0.00  0.00     0.167 C 
ATOM     12  C14 <0> d          -2.516  -6.879   1.243  0.00  0.00     0.094 C 
ATOM     13  C15 <0> d          -1.501  -6.107   2.079  0.00  0.00    -0.006 C 
ATOM     14  C16 <0> d          -1.963  -6.096   3.534  0.00  0.00     0.015 C 
ATOM     15  C17 <0> d          -2.083  -7.525   4.061  0.00  0.00     0.033 C 
ATOM     16  C18 <0> d          -2.996  -8.372   3.180  0.00  0.00     0.135 C 
ATOM     17  C19 <0> d          -2.545  -8.340   1.719  0.00  0.00     0.074 C 
ATOM     18  C22 <0> d          -0.127  -6.797   2.005  0.00  0.00     0.019 C 
ATOM     19  C25 <0> d           0.308  -2.631   0.103  0.00  0.00     0.019 C 
ENDROOT
BRANCH   1  20
ATOM     20  C2  <0> d          -0.020  -0.009  -0.052  0.00  0.00     0.158 C 
ATOM     21  C1  <0> d           0.415   0.779   1.156  0.00  0.00     0.094 C 
ATOM     22  O1  <0> d           0.664  -0.015  -1.048  0.00  0.00    -0.295 OA
ENDBRANCH   1  20
BRANCH   1  23
ATOM     23  O7  <0> d          -2.312  -0.089   0.703  0.00  0.00    -0.381 OA
ATOM     24  H38 <0> d          -2.525   0.782   0.339  0.00  0.00     0.211 HD
ENDBRANCH   1  23
BRANCH  11  25
ATOM     25  O5  <0> d          -3.251  -7.441  -0.983  0.00  0.00    -0.313 OA
BRANCH  25  26
ATOM     26  C23 <0> d          -2.912  -8.073  -2.118  0.00  0.00     0.255 C 
ATOM     27  O6  <0> d          -1.757  -8.098  -2.474  0.00  0.00    -0.266 OA
ATOM     28  C24 <0> d          -3.971  -8.751  -2.948  0.00  0.00     0.126 C 
ENDBRANCH  25  26
ENDBRANCH  11  25
BRANCH  12  29
ATOM     29  O4  <0> d          -3.837  -6.365   1.470  0.00  0.00    -0.386 OA
ATOM     30  H31 <0> d          -4.533  -6.851   1.008  0.00  0.00     0.210 HD
ENDBRANCH  12  29
BRANCH  16  31
ATOM     31  O2  <0> d          -2.977  -9.726   3.646  0.00  0.00    -0.316 OA
BRANCH  31  32
ATOM     32  C20 <0> d          -3.889 -10.066   4.570  0.00  0.00     0.255 C 
ATOM     33  O3  <0> d          -4.677  -9.244   4.972  0.00  0.00    -0.266 OA
ATOM     34  C21 <0> d          -3.929 -11.474   5.107  0.00  0.00     0.126 C 
ENDBRANCH  31  32
ENDBRANCH  16  31
TORSDOF 7
