REMARK  3 active torsions:
REMARK  status: ('A' for Active; 'I' for Inactive)
REMARK    1  A    between atoms: C10_10  and  C11_11 
REMARK    2  A    between atoms: C11_11  and  C12_12 
REMARK    3  A    between atoms: C12_12  and  O1_13 
ROOT
ATOM      1  C1  <0> d          -0.673   3.096   1.316  0.00  0.00     0.046 C 
ATOM      2  C2  <0> d          -0.705   1.566   1.295  0.00  0.00     0.126 C 
ATOM      3  C3  <0> d          -0.013   1.087   0.008  0.00  0.00     0.044 C 
ATOM      4  C4  <0> d          -0.755   1.597  -1.223  0.00  0.00     0.071 C 
ATOM      5  C5  <0> d          -2.213   1.145  -1.209  0.00  0.00     0.164 C 
ATOM      6  C6  <0> d          -2.905   1.598   0.079  0.00  0.00     0.075 C 
ATOM      7  C7  <0> d          -2.141   1.050   1.278  0.00  0.00     0.026 C 
ATOM      8  C8  <0> d          -2.836   1.413   2.589  0.00  0.00     0.009 C 
ATOM      9  C9  <0> d          -2.106   0.692   3.724  0.00  0.00     0.033 C 
ATOM     10  C10 <0> d          -0.625   1.040   3.739  0.00  0.00     0.189 C 
ATOM     11  O2  <0> d          -2.270  -0.288  -1.300  0.00  0.00    -0.353 OA
ATOM     12  C13 <0> d          -3.425  -0.565  -2.127  0.00  0.00     0.197 C 
ATOM     13  C14 <0> d          -3.376   0.607  -3.139  0.00  0.00     0.197 C 
ATOM     14  O3  <0> d          -2.899   1.706  -2.338  0.00  0.00    -0.353 OA
ATOM     15  N1  <0> d           0.078   1.007   2.436  0.00  0.00    -0.062 N 
ATOM     16  H25 <0> d           0.946   1.549   2.526  0.00  0.00     0.278 HD
ATOM     17  H26 <0> d           0.306   0.029   2.219  0.00  0.00     0.278 HD
ENDROOT
BRANCH  10  18
ATOM     18  C11 <0> d          -0.402   2.362   4.478  0.00  0.00     0.059 C 
BRANCH  18  19
ATOM     19  C12 <0> d           1.086   2.526   4.793  0.00  0.00     0.166 C 
BRANCH  19  20
ATOM     20  O1  <0> d           1.294   3.760   5.483  0.00  0.00    -0.401 OA
ATOM     21  H20 <0> d           2.217   3.931   5.715  0.00  0.00     0.209 HD
ENDBRANCH  19  20
ENDBRANCH  18  19
ENDBRANCH  10  18
TORSDOF 3
