REMARK  6 active torsions:
REMARK  status: ('A' for Active; 'I' for Inactive)
REMARK    1  A    between atoms: N1_3  and  C5_10 
REMARK    2  A    between atoms: C5_10  and  C6_11 
REMARK    3  A    between atoms: C7_14  and  S1_16 
REMARK    4  A    between atoms: S1_16  and  C8_17 
REMARK    5  A    between atoms: C8_17  and  C9_18 
REMARK       I    between atoms: C9_18  and  N5_20 
REMARK    6  A    between atoms: N5_20  and  C10_21 
ROOT
ATOM      1  C6  <0> d           2.837   0.915  -1.441  0.00  0.00     0.188 A 
ATOM      2  N3  <0> d           3.577   1.699  -2.168  0.00  0.00    -0.124 NA
ATOM      3  N4  <0> d           3.737   1.181  -3.335  0.00  0.00    -0.114 NA
ATOM      4  C7  <0> d           3.099   0.037  -3.393  0.00  0.00     0.231 A 
ATOM      5  O3  <0> d           2.521  -0.158  -2.192  0.00  0.00    -0.267 OA
ENDROOT
BRANCH   4   6
ATOM      6  S1  <0> d           3.021  -1.047  -4.779  0.00  0.00    -0.073 SA
BRANCH   6   7
ATOM      7  C8  <0> d           4.025  -0.116  -5.963  0.00  0.00     0.185 C 
BRANCH   7   8
ATOM      8  C9  <0> d           4.100  -0.875  -7.263  0.00  0.00     0.227 C 
ATOM      9  O4  <0> d           3.531  -1.939  -7.378  0.00  0.00    -0.273 OA
ATOM     10  N5  <0> d           4.800  -0.369  -8.298  0.00  0.00    -0.355 N 
ATOM     11  H9  <0> d           5.316   0.596  -8.194  0.00  0.00     0.162 HD
BRANCH  10  12
ATOM     12  C10 <0> d           4.873  -1.107  -9.562  0.00  0.00     0.099 C 
ATOM     13  C13 <0> d           6.160  -0.700 -10.320  0.00  0.00     0.165 C 
ATOM     14  S2  <0> d           5.657  -0.855 -12.082  0.00  0.00     0.146 S 
ATOM     15  C12 <0> d           3.887  -1.314 -11.855  0.00  0.00     0.142 C 
ATOM     16  O5  <0> d           5.727   0.425 -12.697  0.00  0.00    -0.228 OA
ATOM     17  O6  <0> d           6.348  -1.951 -12.666  0.00  0.00    -0.228 OA
ATOM     18  C11 <0> d           3.637  -0.780 -10.416  0.00  0.00     0.041 C 
ENDBRANCH  10  12
ENDBRANCH   7   8
ENDBRANCH   6   7
ENDBRANCH   4   6
BRANCH   1  19
ATOM     19  C5  <0> d           2.416   1.158  -0.015  0.00  0.00     0.221 C 
BRANCH  19  20
ATOM     20  N1  <0> d           1.147   1.891   0.001  0.00  0.00    -0.302 N 
ATOM     21  C2  <0> d           1.154   3.259   0.008  0.00  0.00     0.101 A 
ATOM     22  C1  <0> d          -0.015   3.934   0.022  0.00  0.00     0.092 A 
ATOM     23  C4  <0> d          -1.230   3.207   0.030  0.00  0.00     0.250 A 
ATOM     24  N2  <0> d          -1.194   1.859   0.018  0.00  0.00    -0.275 N 
ATOM     25  O2  <0> d          -2.297   3.794   0.043  0.00  0.00    -0.268 OA
ATOM     26  C3  <0> d          -0.014   1.212   0.009  0.00  0.00     0.329 A 
ATOM     27  H1  <0> d          -2.135   1.289   0.015  0.00  0.00     0.173 HD
ATOM     28  O1  <0> d           0.002  -0.004   0.002  0.00  0.00    -0.246 OA
ENDBRANCH  19  20
ENDBRANCH   1  19
TORSDOF 6
