REMARK  5 active torsions:
REMARK  status: ('A' for Active; 'I' for Inactive)
REMARK    1  A    between atoms: C2_2  and  C3_3 
REMARK    2  A    between atoms: C2_2  and  N2_13 
REMARK       I    between atoms: C3_3  and  N1_5 
REMARK    3  A    between atoms: N1_5  and  C4_6 
REMARK    4  A    between atoms: C4_6  and  C5_7 
REMARK    5  A    between atoms: N2_13  and  S2_14 
ROOT
ATOM      1  C3  <0> d           0.731  -0.503   1.223  0.00  0.00     0.240 C 
ATOM      2  O1  <0> d           0.159  -1.213   2.023  0.00  0.00    -0.271 OA
ATOM      3  N1  <0> d           2.019  -0.161   1.426  0.00  0.00    -0.355 N 
ATOM      4  H5  <0> d           2.476   0.406   0.786  0.00  0.00     0.162 HD
ENDROOT
BRANCH   1   5
ATOM      5  C2  <0> d           0.002  -0.004   0.002  0.00  0.00     0.180 C 
ATOM      6  C1  <0> d          -0.019   1.526   0.010  0.00  0.00     0.043 C 
BRANCH   5   7
ATOM      7  N2  <0> d          -1.372  -0.511   0.012  0.00  0.00    -0.306 N 
ATOM      8  H10 <0> d          -1.845  -0.615   0.853  0.00  0.00     0.173 HD
BRANCH   7   9
ATOM      9  S2  <0> d          -2.119  -0.907  -1.411  0.00  0.00     0.223 S 
ATOM     10  O2  <0> d          -3.422  -1.330  -1.032  0.00  0.00    -0.206 OA
ATOM     11  O3  <0> d          -1.941   0.231  -2.243  0.00  0.00    -0.206 OA
ATOM     12  C9  <0> d          -1.171  -2.311  -2.061  0.00  0.00     0.185 C 
ENDBRANCH   7   9
ENDBRANCH   5   7
ENDBRANCH   1   5
BRANCH   3  13
ATOM     13  C4  <0> d           2.727  -0.647   2.613  0.00  0.00     0.168 C 
BRANCH  13  14
ATOM     14  C5  <0> d           4.141  -0.125   2.602  0.00  0.00     0.001 A 
ATOM     15  S1  <0> d           5.605  -0.859   1.891  0.00  0.00    -0.086 SA
ATOM     16  C8  <0> d           6.771   0.415   2.343  0.00  0.00     0.051 A 
ATOM     17  C7  <0> d           5.980   1.298   3.002  0.00  0.00     0.028 A 
ATOM     18 Br1  <0> d           8.628   0.506   1.998  0.00  0.00    -0.043 Br
ATOM     19  C6  <0> d           4.632   1.020   3.135  0.00  0.00     0.018 A 
ENDBRANCH  13  14
ENDBRANCH   3  13
TORSDOF 5
