REMARK  7 active torsions:
REMARK  status: ('A' for Active; 'I' for Inactive)
REMARK    1  A    between atoms: C2_2  and  C3_3 
REMARK    2  A    between atoms: C2_2  and  N1_9 
REMARK       I    between atoms: N1_9  and  C9_10 
REMARK    3  A    between atoms: C9_10  and  C10_12 
REMARK    4  A    between atoms: C15_17  and  N2_18 
REMARK       I    between atoms: N2_18  and  C16_19 
REMARK    5  A    between atoms: C16_19  and  C17_21 
REMARK    6  A    between atoms: C20_24  and  N3_27 
REMARK    7  A    between atoms: N3_27  and  S1_28 
ROOT
ATOM      1  C10 <0> d          -7.070   4.995  -0.677  0.00  0.00     0.058 A 
ATOM      2  C11 <0> d          -8.329   5.471  -1.052  0.00  0.00     0.019 A 
ATOM      3  C12 <0> d          -9.125   4.720  -1.890  0.00  0.00     0.001 A 
ATOM      4  C13 <0> d          -8.682   3.496  -2.366  0.00  0.00     0.002 A 
ATOM      5  C14 <0> d          -7.439   3.016  -2.007  0.00  0.00     0.030 A 
ATOM      6  C15 <0> d          -6.622   3.759  -1.164  0.00  0.00     0.050 A 
ENDROOT
BRANCH   6   7
ATOM      7  N2  <0> d          -5.369   3.276  -0.801  0.00  0.00    -0.322 N 
ATOM      8  C16 <0> d          -4.628   2.585  -1.691  0.00  0.00     0.256 C 
ATOM      9  O2  <0> d          -5.089   2.312  -2.782  0.00  0.00    -0.267 OA
ATOM     10  H15 <0> d          -5.028   3.436   0.093  0.00  0.00     0.169 HD
BRANCH   8  11
ATOM     11  C17 <0> d          -3.260   2.162  -1.340  0.00  0.00     0.032 A 
ATOM     12  C22 <0> d          -2.729   2.476  -0.086  0.00  0.00     0.019 A 
ATOM     13  C21 <0> d          -1.453   2.076   0.240  0.00  0.00     0.031 A 
ATOM     14  C20 <0> d          -0.687   1.368  -0.683  0.00  0.00     0.042 A 
ATOM     15  C19 <0> d          -1.213   1.053  -1.933  0.00  0.00     0.031 A 
ATOM     16  C18 <0> d          -2.490   1.446  -2.263  0.00  0.00     0.019 A 
BRANCH  14  17
ATOM     17  N3  <0> d           0.603   0.970  -0.353  0.00  0.00    -0.285 N 
ATOM     18  H20 <0> d           0.900   0.069  -0.557  0.00  0.00     0.178 HD
BRANCH  17  19
ATOM     19  S1  <0> d           1.636   2.035   0.383  0.00  0.00     0.227 S 
ATOM     20  O3  <0> d           0.927   2.497   1.524  0.00  0.00    -0.206 OA
ATOM     21  O4  <0> d           2.854   1.318   0.527  0.00  0.00    -0.206 OA
ATOM     22  C23 <0> d           1.843   3.384  -0.812  0.00  0.00     0.186 C 
ENDBRANCH  17  19
ENDBRANCH  14  17
ENDBRANCH   8  11
ENDBRANCH   6   7
BRANCH   1  23
ATOM     23  C9  <0> d          -6.215   5.791   0.224  0.00  0.00     0.254 C 
ATOM     24  N1  <0> d          -6.690   6.925   0.777  0.00  0.00    -0.349 N 
ATOM     25  H10 <0> d          -7.595   7.217   0.583  0.00  0.00     0.163 HD
ATOM     26  O1  <0> d          -5.081   5.425   0.467  0.00  0.00    -0.268 OA
BRANCH  24  27
ATOM     27  C2  <0> d          -5.841   7.715   1.672  0.00  0.00     0.114 C 
ATOM     28  C1  <0> d          -5.936   7.155   3.092  0.00  0.00     0.037 C 
BRANCH  27  29
ATOM     29  C3  <0> d          -6.303   9.150   1.665  0.00  0.00    -0.036 A 
ATOM     30  C8  <0> d          -5.375  10.175   1.672  0.00  0.00     0.009 A 
ATOM     31  C7  <0> d          -5.798  11.490   1.666  0.00  0.00     0.001 A 
ATOM     32  C6  <0> d          -7.150  11.781   1.653  0.00  0.00     0.000 A 
ATOM     33  C5  <0> d          -8.077  10.757   1.645  0.00  0.00     0.001 A 
ATOM     34  C4  <0> d          -7.654   9.441   1.646  0.00  0.00     0.009 A 
ENDBRANCH  27  29
ENDBRANCH  24  27
ENDBRANCH   1  23
TORSDOF 7
