REMARK  7 active torsions:
REMARK  status: ('A' for Active; 'I' for Inactive)
REMARK    1  A    between atoms: C2_2  and  N1_3 
REMARK    2  A    between atoms: N1_3  and  C3_4 
REMARK       I    between atoms: N1_3  and  C5_6 
REMARK    3  A    between atoms: C5_6  and  C6_8 
REMARK    4  A    between atoms: C10_12  and  N2_14 
REMARK       I    between atoms: N2_14  and  C12_15 
REMARK    5  A    between atoms: C12_15  and  C13_17 
REMARK    6  A    between atoms: C13_17  and  N3_19 
REMARK    7  A    between atoms: C18_23  and  C19_24 
ROOT
ATOM      1  N2  <0> d           4.663  -2.597   3.042  0.00  0.00    -0.325 N 
ATOM      2  C12 <0> d           5.584  -3.017   3.932  0.00  0.00     0.253 C 
ATOM      3  O2  <0> d           5.232  -3.493   4.991  0.00  0.00    -0.271 OA
ATOM      4  H17 <0> d           4.941  -2.287   2.167  0.00  0.00     0.169 HD
ENDROOT
BRANCH   1   5
ATOM      5  C10 <0> d           3.306  -2.609   3.382  0.00  0.00     0.035 A 
ATOM      6  C9  <0> d           2.348  -2.860   2.408  0.00  0.00     0.029 A 
ATOM      7  C8  <0> d           1.005  -2.873   2.739  0.00  0.00     0.003 A 
ATOM      8  C7  <0> d           0.608  -2.637   4.039  0.00  0.00     0.017 A 
ATOM      9  C6  <0> d           1.563  -2.384   5.025  0.00  0.00     0.034 A 
ATOM     10  C11 <0> d           2.916  -2.365   4.691  0.00  0.00     0.046 A 
BRANCH   9  11
ATOM     11  C5  <0> d           1.140  -2.131   6.419  0.00  0.00     0.253 C 
ATOM     12  N1  <0> d           0.134  -2.848   6.959  0.00  0.00    -0.349 N 
ATOM     13  O1  <0> d           1.699  -1.277   7.079  0.00  0.00    -0.267 OA
BRANCH  12  14
ATOM     14  C2  <0> d          -0.324  -2.558   8.320  0.00  0.00     0.121 C 
ATOM     15  C1  <0> d           0.471  -3.404   9.316  0.00  0.00     0.026 C 
ENDBRANCH  12  14
BRANCH  12  16
ATOM     16  C3  <0> d          -0.502  -3.916   6.184  0.00  0.00     0.121 C 
ATOM     17  C4  <0> d          -1.868  -3.441   5.685  0.00  0.00     0.026 C 
ENDBRANCH  12  16
ENDBRANCH   9  11
ENDBRANCH   1   5
BRANCH   2  18
ATOM     18  C13 <0> d           7.052  -2.895   3.612  0.00  0.00     0.276 C 
ATOM     19  C14 <0> d           7.403  -1.423   3.382  0.00  0.00     0.050 C 
BRANCH  18  20
ATOM     20  N3  <0> d           7.843  -3.418   4.734  0.00  0.00    -0.050 N 
ATOM     21  C18 <0> d           7.644  -4.875   4.844  0.00  0.00     0.229 C 
ATOM     22  C17 <0> d           9.029  -5.538   4.690  0.00  0.00     0.040 C 
ATOM     23  C16 <0> d          10.008  -4.396   5.069  0.00  0.00     0.030 C 
ATOM     24  C15 <0> d           9.278  -3.156   4.495  0.00  0.00     0.236 C 
ATOM     25  H30 <0> d           7.556  -2.970   5.591  0.00  0.00     0.281 HD
BRANCH  21  26
ATOM     26  C19 <0> d           6.723  -5.351   3.751  0.00  0.00     0.013 A 
ATOM     27  S1  <0> d           6.947  -5.279   1.981  0.00  0.00    -0.104 SA
ATOM     28  C22 <0> d           5.408  -6.047   1.501  0.00  0.00     0.050 A 
ATOM     29  C21 <0> d           4.832  -6.296   2.703  0.00  0.00     0.008 A 
ATOM     30  C20 <0> d           5.506  -5.939   3.856  0.00  0.00     0.017 A 
ENDBRANCH  21  26
ENDBRANCH  18  20
ENDBRANCH   2  18
TORSDOF 7
