REMARK  4 active torsions:
REMARK  status: ('A' for Active; 'I' for Inactive)
REMARK    1  A    between atoms: C2_2  and  N1_3 
REMARK    2  A    between atoms: N1_3  and  C3_4 
REMARK    3  A    between atoms: C3_4  and  C4_5 
REMARK    4  A    between atoms: C3_4  and  C12_16 
ROOT
ATOM      1  C3  <0> d           0.710  -1.947  -1.215  0.00  0.00     0.256 C 
ENDROOT
BRANCH   1   2
ATOM      2  N1  <0> d           0.690  -0.478  -1.207  0.00  0.00    -0.063 N 
ATOM      3  H8  <0> d           0.202  -0.144  -2.024  0.00  0.00     0.278 HD
ATOM      4  H17 <0> d           1.636  -0.129  -1.214  0.00  0.00     0.278 HD
BRANCH   2   5
ATOM      5  C2  <0> d           0.002  -0.004   0.002  0.00  0.00     0.229 C 
ATOM      6  C1  <0> d          -0.019   1.526   0.010  0.00  0.00     0.034 C 
ENDBRANCH   2   5
ENDBRANCH   1   2
BRANCH   1   7
ATOM      7  C4  <0> d           1.304  -2.434  -2.511  0.00  0.00    -0.003 A 
ATOM      8  C9  <0> d           0.980  -3.690  -2.990  0.00  0.00     0.022 A 
ATOM      9  C8  <0> d           1.522  -4.138  -4.181  0.00  0.00     0.059 A 
ATOM     10 Br1  <0> d          -0.211  -4.792  -2.020  0.00  0.00    -0.050 Br
ATOM     11  C7  <0> d           2.400  -3.334  -4.892  0.00  0.00     0.103 A 
ATOM     12  C6  <0> d           2.728  -2.073  -4.408  0.00  0.00     0.102 A 
ATOM     13  O1  <0> d           2.934  -3.794  -6.056  0.00  0.00    -0.346 OA
ATOM     14  C5  <0> d           2.178  -1.627  -3.216  0.00  0.00     0.050 A 
ATOM     15  O2  <0> d           3.584  -1.265  -5.092  0.00  0.00    -0.346 OA
ATOM     16  C11 <0> d           4.404  -1.891  -6.085  0.00  0.00     0.202 C 
ATOM     17  C10 <0> d           3.517  -2.818  -6.926  0.00  0.00     0.202 C 
ENDBRANCH   1   7
BRANCH   1  18
ATOM     18  C12 <0> d           1.542  -2.444  -0.061  0.00  0.00     0.013 A 
ATOM     19  C14 <0> d           2.746  -1.888   0.385  0.00  0.00     0.149 A 
ATOM     20  N3  <0> d           3.167  -2.590   1.406  0.00  0.00    -0.187 NA
ATOM     21  N2  <0> d           2.248  -3.623   1.635  0.00  0.00    -0.289 N 
ATOM     22  C13 <0> d           1.261  -3.511   0.722  0.00  0.00     0.120 A 
ATOM     23  H2  <0> d           2.311  -4.299   2.328  0.00  0.00     0.188 HD
ENDBRANCH   1  18
TORSDOF 4
