REMARK  5 active torsions:
REMARK  status: ('A' for Active; 'I' for Inactive)
REMARK    1  A    between atoms: C3_3  and  N1_9 
REMARK       I    between atoms: N1_9  and  C8_10 
REMARK    2  A    between atoms: C8_10  and  C9_12 
REMARK       I    between atoms: C9_12  and  N2_14 
REMARK    3  A    between atoms: N2_14  and  C10_15 
REMARK    4  A    between atoms: C10_15  and  C11_16 
REMARK    5  A    between atoms: C11_16  and  N3_18 
ROOT
ATOM      1  C9  <0> d           0.224   0.099  -4.861  0.00  0.00     0.309 C 
ATOM      2  O2  <0> d           0.197   1.312  -4.853  0.00  0.00    -0.262 OA
ATOM      3  N2  <0> d           0.322  -0.564  -6.031  0.00  0.00    -0.351 N 
ATOM      4  H9  <0> d           0.345  -1.534  -6.038  0.00  0.00     0.162 HD
ENDROOT
BRANCH   1   5
ATOM      5  C8  <0> d           0.150  -0.659  -3.577  0.00  0.00     0.313 C 
ATOM      6  N1  <0> d           0.052   0.004  -2.408  0.00  0.00    -0.318 N 
ATOM      7  H8  <0> d          -0.055   0.968  -2.404  0.00  0.00     0.169 HD
ATOM      8  O1  <0> d           0.178  -1.872  -3.586  0.00  0.00    -0.262 OA
BRANCH   6   9
ATOM      9  C3  <0> d           0.105  -0.697  -1.200  0.00  0.00     0.042 A 
ATOM     10  C2  <0> d          -0.485  -0.166  -0.060  0.00  0.00    -0.013 A 
ATOM     11  C1  <0> d          -1.183   1.169  -0.124  0.00  0.00     0.052 C 
ATOM     12  C7  <0> d          -0.427  -0.860   1.133  0.00  0.00     0.042 A 
ATOM     13  C6  <0> d           0.209  -2.088   1.191  0.00  0.00     0.024 A 
ATOM     14 Cl1  <0> d          -1.158  -0.194   2.560  0.00  0.00    -0.084 Cl
ATOM     15  C5  <0> d           0.797  -2.619   0.058  0.00  0.00     0.004 A 
ATOM     16  C4  <0> d           0.747  -1.927  -1.137  0.00  0.00     0.030 A 
ENDBRANCH   6   9
ENDBRANCH   1   5
BRANCH   3  17
ATOM     17  C10 <0> d           0.395   0.180  -7.291  0.00  0.00     0.155 C 
BRANCH  17  18
ATOM     18  C11 <0> d           0.374  -0.802  -8.464  0.00  0.00     0.202 C 
ATOM     19  C12 <0> d          -0.931  -1.599  -8.438  0.00  0.00     0.042 C 
BRANCH  18  20
ATOM     20  N3  <0> d           0.468  -0.057  -9.727  0.00  0.00    -0.066 N 
ATOM     21  C16 <0> d           0.334  -0.981 -10.875  0.00  0.00     0.235 C 
ATOM     22  C15 <0> d           1.263  -0.459 -11.986  0.00  0.00     0.029 C 
ATOM     23  C14 <0> d           1.949   0.790 -11.385  0.00  0.00     0.029 C 
ATOM     24  C13 <0> d           1.813   0.559  -9.859  0.00  0.00     0.235 C 
ATOM     25  H23 <0> d          -0.247   0.654  -9.767  0.00  0.00     0.280 HD
ENDBRANCH  18  20
ENDBRANCH  17  18
ENDBRANCH   3  17
TORSDOF 5
