REMARK  4 active torsions:
REMARK  status: ('A' for Active; 'I' for Inactive)
REMARK    1  A    between atoms: C5_6  and  C6_7 
REMARK    2  A    between atoms: C5_6  and  N4_24 
REMARK    3  A    between atoms: C6_7  and  S1_8 
REMARK    4  A    between atoms: S1_8  and  C7_9 
ROOT
ATOM      1  C7  <0> d          -0.897   3.638   0.030  0.00  0.00     0.065 A 
ATOM      2  C8  <0> d          -1.124   2.261   0.019  0.00  0.00     0.096 A 
ATOM      3  C9  <0> d          -0.017   1.398   0.010  0.00  0.00     0.081 A 
ATOM      4  C10 <0> d           1.226   2.028   0.001  0.00  0.00     0.102 A 
ATOM      5  S2  <0> d           0.833   3.756   0.014  0.00  0.00    -0.074 SA
ATOM      6  C11 <0> d           2.414   1.295  -0.014  0.00  0.00     0.268 A 
ATOM      7  O2  <0> d           3.491   1.866  -0.020  0.00  0.00    -0.267 OA
ATOM      8  N1  <0> d           2.355  -0.055  -0.021  0.00  0.00    -0.274 N 
ATOM      9  H1  <0> d           3.198  -0.593  -0.032  0.00  0.00     0.173 HD
ATOM     10  C12 <0> d           1.163  -0.676  -0.013  0.00  0.00     0.327 A 
ATOM     11  O3  <0> d           1.135  -1.891  -0.020  0.00  0.00    -0.247 OA
ATOM     12  N2  <0> d           0.002  -0.004   0.002  0.00  0.00    -0.306 N 
ATOM     13  H2  <0> d          -0.861  -0.510   0.008  0.00  0.00     0.171 HD
ATOM     14  C13 <0> d          -2.458   1.741   0.022  0.00  0.00     0.103 C 
ATOM     15  N3  <0> d          -3.516   1.327   0.024  0.00  0.00    -0.191 NA
ENDROOT
BRANCH   1  16
ATOM     16  S1  <0> d          -2.082   4.942   0.049  0.00  0.00    -0.119 SA
BRANCH  16  17
ATOM     17  C6  <0> d          -0.974   6.373   0.045  0.00  0.00     0.107 C 
BRANCH  17  18
ATOM     18  C5  <0> d          -1.803   7.659   0.060  0.00  0.00     0.245 C 
BRANCH  18  19
ATOM     19  N4  <0> d          -0.886   8.820   0.037  0.00  0.00    -0.066 N 
ATOM     20  C1  <0> d          -0.134   8.895   1.307  0.00  0.00     0.261 C 
ATOM     21  C2  <0> d           0.831  10.082   1.237  0.00  0.00     0.195 C 
ATOM     22  O1  <0> d           0.088  11.278   0.988  0.00  0.00    -0.388 OA
ATOM     23  C3  <0> d          -0.673  11.242  -0.223  0.00  0.00     0.195 C 
ATOM     24  C4  <0> d          -1.653  10.066  -0.168  0.00  0.00     0.261 C 
ATOM     25  H15 <0> d          -0.222   8.705  -0.738  0.00  0.00     0.280 HD
ENDBRANCH  18  19
ENDBRANCH  17  18
ENDBRANCH  16  17
ENDBRANCH   1  16
TORSDOF 4
