REMARK  5 active torsions:
REMARK  status: ('A' for Active; 'I' for Inactive)
REMARK    1  A    between atoms: C2_2  and  N1_3 
REMARK    2  A    between atoms: N1_3  and  C3_4 
REMARK    3  A    between atoms: C3_4  and  C4_5 
REMARK    4  A    between atoms: C4_5  and  C6_7 
REMARK       I    between atoms: C6_7  and  N2_9 
REMARK    5  A    between atoms: N2_9  and  C7_10 
ROOT
ATOM      1  C7  <0> d           1.915  -6.004  -3.588  0.00  0.00     0.059 A 
ATOM      2  C8  <0> d           1.845  -6.709  -2.393  0.00  0.00     0.070 A 
ATOM      3  C9  <0> d           1.855  -8.092  -2.409  0.00  0.00     0.098 A 
ATOM      4  C10 <0> d           1.937  -8.774  -3.623  0.00  0.00     0.070 A 
ATOM      5  C11 <0> d           2.008  -8.069  -4.812  0.00  0.00     0.058 A 
ATOM      6  C12 <0> d           1.991  -6.685  -4.796  0.00  0.00     0.063 A 
ATOM      7 Cl1  <0> d           2.071  -5.800  -6.287  0.00  0.00    -0.082 Cl
ATOM      8  N3  <0> d           1.948 -10.178  -3.621  0.00  0.00    -0.323 N 
ATOM      9  C13 <0> d           1.567 -10.834  -2.503  0.00  0.00     0.246 C 
ATOM     10  O2  <0> d           1.597 -12.046  -2.468  0.00  0.00    -0.271 OA
ATOM     11  C14 <0> d           1.103 -10.053  -1.300  0.00  0.00     0.278 C 
ATOM     12  O3  <0> d           1.786  -8.798  -1.249  0.00  0.00    -0.340 OA
ATOM     13  H16 <0> d           2.226 -10.669  -4.410  0.00  0.00     0.169 HD
ENDROOT
BRANCH   1  14
ATOM     14  N2  <0> d           1.904  -4.603  -3.575  0.00  0.00    -0.325 N 
ATOM     15  C6  <0> d           1.342  -3.943  -2.543  0.00  0.00     0.227 C 
ATOM     16  O1  <0> d           0.759  -4.558  -1.675  0.00  0.00    -0.273 OA
ATOM     17  H13 <0> d           2.300  -4.108  -4.309  0.00  0.00     0.169 HD
BRANCH  15  18
ATOM     18  C4  <0> d           1.439  -2.441  -2.466  0.00  0.00     0.100 C 
ATOM     19  C5  <0> d           2.911  -2.027  -2.412  0.00  0.00     0.021 C 
BRANCH  18  20
ATOM     20  C3  <0> d           0.724  -1.947  -1.206  0.00  0.00     0.245 C 
BRANCH  20  21
ATOM     21  N1  <0> d           0.715  -0.478  -1.193  0.00  0.00    -0.075 N 
ATOM     22  H7  <0> d           0.230  -0.138  -2.010  0.00  0.00     0.277 HD
ATOM     23  H19 <0> d           1.664  -0.136  -1.197  0.00  0.00     0.277 HD
BRANCH  21  24
ATOM     24  C2  <0> d           0.028  -0.004   0.016  0.00  0.00     0.228 C 
ATOM     25  C1  <0> d           0.018   1.525   0.031  0.00  0.00     0.034 C 
ENDBRANCH  21  24
ENDBRANCH  20  21
ENDBRANCH  18  20
ENDBRANCH  15  18
ENDBRANCH   1  14
TORSDOF 5
