REMARK  4 active torsions:
REMARK  status: ('A' for Active; 'I' for Inactive)
REMARK    1  A    between atoms: C3_3  and  C10_13 
REMARK    2  A    between atoms: C4_5  and  C5_6 
REMARK    3  A    between atoms: C5_6  and  N1_7 
REMARK    4  A    between atoms: C8_10  and  O2_12 
ROOT
ATOM      1  C5  <0> d          -1.116  -0.533  -0.898  0.00  0.00     0.266 C 
ENDROOT
BRANCH   1   2
ATOM      2  C4  <0> d           0.002  -0.004   0.002  0.00  0.00     0.148 C 
ATOM      3  C1  <0> d          -0.019   1.540   0.011  0.00  0.00     0.036 C 
ATOM      4  C2  <0> d           1.494   1.890  -0.002  0.00  0.00     0.045 C 
ATOM      5  C3  <0> d           2.056   0.734  -0.867  0.00  0.00     0.222 C 
ATOM      6  O1  <0> d           1.275  -0.417  -0.510  0.00  0.00    -0.368 OA
BRANCH   5   7
ATOM      7  C10 <0> d           3.511   0.501  -0.548  0.00  0.00     0.203 C 
ATOM      8  O3  <0> d           3.863  -0.551  -0.042  0.00  0.00    -0.646 OA
ATOM      9  O4  <0> d           4.335   1.364  -0.795  0.00  0.00    -0.646 OA
ENDBRANCH   5   7
ENDBRANCH   1   2
BRANCH   1  10
ATOM     10  N1  <0> d          -1.165  -1.999  -0.808  0.00  0.00    -0.066 N 
ATOM     11  C9  <0> d          -2.319  -2.528  -1.579  0.00  0.00     0.266 C 
ATOM     12  C8  <0> d          -1.949  -3.998  -1.873  0.00  0.00     0.145 C 
ATOM     13  C7  <0> d          -0.409  -4.045  -1.800  0.00  0.00     0.061 C 
ATOM     14  C6  <0> d           0.022  -2.601  -1.467  0.00  0.00     0.237 C 
ATOM     15  H17 <0> d          -1.222  -2.291   0.157  0.00  0.00     0.280 HD
BRANCH  12  16
ATOM     16  O2  <0> d          -2.395  -4.373  -3.178  0.00  0.00    -0.394 OA
ATOM     17  H16 <0> d          -2.151  -5.273  -3.434  0.00  0.00     0.210 HD
ENDBRANCH  12  16
ENDBRANCH   1  10
TORSDOF 4
