REMARK  6 active torsions:
REMARK  status: ('A' for Active; 'I' for Inactive)
REMARK    1  A    between atoms: C2_2  and  C4_4 
REMARK    2  A    between atoms: C4_4  and  C5_6 
REMARK    3  A    between atoms: N1_10  and  C15_19 
REMARK    4  A    between atoms: C8_11  and  C9_12 
REMARK    5  A    between atoms: C15_19  and  C16_20 
REMARK    6  A    between atoms: C16_20  and  N2_21 
ROOT
ATOM      1  C5  <0> d          -0.007  -1.040   2.557  0.00  0.00     0.057 A 
ATOM      2  C6  <0> d           0.323  -1.448   3.807  0.00  0.00     0.187 A 
ATOM      3  C7  <0> d          -0.897  -1.484   4.644  0.00  0.00     0.281 A 
ATOM      4  O2  <0> d          -0.932  -1.809   5.814  0.00  0.00    -0.265 OA
ATOM      5  N1  <0> d          -1.963  -1.102   3.916  0.00  0.00    -0.332 N 
ATOM      6  C8  <0> d          -1.497  -0.789   2.561  0.00  0.00     0.161 A 
ATOM      7  O3  <0> d           1.568  -1.771   4.223  0.00  0.00    -0.185 OA
ENDROOT
BRANCH   5   8
ATOM      8  C15 <0> d          -3.345  -1.010   4.396  0.00  0.00     0.155 C 
BRANCH   8   9
ATOM      9  C16 <0> d          -3.600   0.393   4.950  0.00  0.00     0.254 C 
BRANCH   9  10
ATOM     10  N2  <0> d          -4.985   0.485   5.430  0.00  0.00    -0.070 N 
ATOM     11  C21 <0> d          -5.194   1.789   6.069  0.00  0.00     0.235 C 
ATOM     12  C20 <0> d          -6.611   1.859   6.643  0.00  0.00     0.028 C 
ATOM     13  C19 <0> d          -7.624   1.676   5.510  0.00  0.00     0.003 C 
ATOM     14  C18 <0> d          -7.350   0.346   4.803  0.00  0.00     0.028 C 
ATOM     15  C17 <0> d          -5.905   0.332   4.297  0.00  0.00     0.235 C 
ATOM     16  H27 <0> d          -5.157  -0.249   6.101  0.00  0.00     0.279 HD
ENDBRANCH   9  10
ENDBRANCH   8   9
ENDBRANCH   5   8
BRANCH   6  17
ATOM     17  C9  <0> d          -2.177  -1.690   1.562  0.00  0.00    -0.029 A 
ATOM     18  C14 <0> d          -2.661  -1.167   0.377  0.00  0.00     0.028 A 
ATOM     19  C13 <0> d          -3.280  -1.995  -0.542  0.00  0.00     0.011 A 
ATOM     20  C12 <0> d          -3.424  -3.344  -0.270  0.00  0.00     0.019 A 
ATOM     21 Br1  <0> d          -3.934  -1.282  -2.167  0.00  0.00    -0.051 Br
ATOM     22  C11 <0> d          -2.945  -3.864   0.917  0.00  0.00     0.002 A 
ATOM     23  C10 <0> d          -2.322  -3.038   1.833  0.00  0.00     0.009 A 
ENDBRANCH   6  17
BRANCH   1  24
ATOM     24  C4  <0> d           0.874  -0.876   1.462  0.00  0.00     0.164 C 
ATOM     25  O1  <0> d           0.461  -0.428   0.412  0.00  0.00    -0.292 OA
BRANCH  24  26
ATOM     26  C2  <0> d           2.325  -1.257   1.599  0.00  0.00     0.052 C 
ATOM     27  C1  <0> d           2.481  -2.763   1.372  0.00  0.00     0.018 C 
ATOM     28  C3  <0> d           3.153  -0.497   0.561  0.00  0.00     0.018 C 
ENDBRANCH  24  26
ENDBRANCH   1  24
TORSDOF 6
