REMARK  3 active torsions:
REMARK  status: ('A' for Active; 'I' for Inactive)
REMARK    1  A    between atoms: N1_9  and  C8_12 
REMARK    2  A    between atoms: C8_12  and  C9_13 
REMARK       I    between atoms: C9_13  and  N3_15 
REMARK    3  A    between atoms: N3_15  and  C10_16 
ROOT
ATOM      1  C8  <0> d          -3.043   5.580   5.294  0.00  0.00     0.235 C 
ENDROOT
BRANCH   1   2
ATOM      2  N1  <0> d          -2.673   4.311   4.661  0.00  0.00    -0.299 N 
ATOM      3  C6  <0> d          -2.012   4.328   3.488  0.00  0.00     0.262 A 
ATOM      4  C5  <0> d          -1.654   3.083   2.876  0.00  0.00     0.075 A 
ATOM      5  O1  <0> d          -1.723   5.385   2.955  0.00  0.00    -0.267 OA
ATOM      6  C2  <0> d          -0.944   2.837   1.635  0.00  0.00    -0.031 A 
ATOM      7  C4  <0> d          -2.039   1.927   3.580  0.00  0.00     0.115 A 
ATOM      8  C1  <0> d          -0.469   3.990   0.788  0.00  0.00     0.050 C 
ATOM      9  C3  <0> d          -0.718   1.572   1.248  0.00  0.00    -0.012 A 
ATOM     10  S1  <0> d          -1.446   0.604   2.556  0.00  0.00    -0.074 SA
ATOM     11  C18 <0> d          -0.013   1.086   0.008  0.00  0.00     0.057 C 
ATOM     12  N2  <0> d          -2.692   1.992   4.736  0.00  0.00    -0.235 NA
ATOM     13  C7  <0> d          -3.004   3.143   5.269  0.00  0.00     0.214 A 
ENDBRANCH   1   2
BRANCH   1  14
ATOM     14  C9  <0> d          -1.932   6.027   6.209  0.00  0.00     0.236 C 
ATOM     15  O2  <0> d          -0.930   5.353   6.321  0.00  0.00    -0.272 OA
ATOM     16  N3  <0> d          -2.052   7.176   6.903  0.00  0.00    -0.355 N 
ATOM     17  H10 <0> d          -2.854   7.715   6.813  0.00  0.00     0.162 HD
BRANCH  16  18
ATOM     18  C10 <0> d          -0.973   7.611   7.792  0.00  0.00     0.088 C 
ATOM     19  C15 <0> d          -1.545   8.521   8.882  0.00  0.00     0.008 C 
ATOM     20  C14 <0> d          -2.196   9.744   8.234  0.00  0.00    -0.013 C 
ATOM     21  C16 <0> d          -2.592   7.752   9.689  0.00  0.00     0.012 C 
ATOM     22  C13 <0> d          -1.148  10.513   7.426  0.00  0.00     0.005 C 
ATOM     23  C17 <0> d          -2.768  10.654   9.323  0.00  0.00     0.010 C 
ATOM     24  C12 <0> d          -0.576   9.603   6.337  0.00  0.00     0.002 C 
ATOM     25  C11 <0> d           0.075   8.380   6.985  0.00  0.00     0.025 C 
ENDBRANCH  16  18
ENDBRANCH   1  14
TORSDOF 3
