REMARK  4 active torsions:
REMARK  status: ('A' for Active; 'I' for Inactive)
REMARK    1  A    between atoms: C7_7  and  N1_8 
REMARK       I    between atoms: N1_8  and  C8_9 
REMARK    2  A    between atoms: C8_9  and  C9_11 
REMARK    3  A    between atoms: C9_11  and  C10_12 
REMARK    4  A    between atoms: C9_11  and  N2_15 
REMARK       I    between atoms: N2_15  and  C13_16 
REMARK       I    between atoms: C13_16  and  N3_18 
ROOT
ATOM      1  N1  <0> d          -0.202  -0.199   2.395  0.00  0.00    -0.325 N 
ATOM      2  C8  <0> d           0.060  -0.768   3.589  0.00  0.00     0.245 C 
ATOM      3  O1  <0> d           0.455  -1.913   3.641  0.00  0.00    -0.271 OA
ATOM      4  H8  <0> d          -0.490   0.726   2.352  0.00  0.00     0.169 HD
ENDROOT
BRANCH   2   5
ATOM      5  C9  <0> d          -0.137   0.020   4.858  0.00  0.00     0.182 C 
BRANCH   5   6
ATOM      6  C10 <0> d           0.994   1.040   5.006  0.00  0.00     0.009 C 
ATOM      7  C11 <0> d           1.019   1.954   3.779  0.00  0.00     0.012 C 
ATOM      8  C12 <0> d           0.761   1.880   6.263  0.00  0.00     0.012 C 
ENDBRANCH   5   6
BRANCH   5   9
ATOM      9  N2  <0> d          -0.125  -0.891   6.005  0.00  0.00    -0.330 N 
ATOM     10  C13 <0> d          -0.758  -0.549   7.145  0.00  0.00     0.314 C 
ATOM     11  O2  <0> d          -1.338   0.517   7.221  0.00  0.00    -0.248 OA
ATOM     12  N3  <0> d          -0.747  -1.387   8.200  0.00  0.00    -0.352 N 
ATOM     13  H17 <0> d          -0.284  -2.237   8.139  0.00  0.00     0.160 HD
ATOM     14  H18 <0> d          -1.202  -1.140   9.020  0.00  0.00     0.160 HD
ATOM     15  H16 <0> d           0.338  -1.742   5.944  0.00  0.00     0.165 HD
ENDBRANCH   5   9
ENDBRANCH   2   5
BRANCH   1  16
ATOM     16  C7  <0> d          -0.058  -0.944   1.219  0.00  0.00     0.040 A 
ATOM     17  C2  <0> d          -0.788  -0.604   0.087  0.00  0.00    -0.034 A 
ATOM     18  C1  <0> d          -1.735   0.568   0.124  0.00  0.00     0.050 C 
ATOM     19  C3  <0> d          -0.640  -1.337  -1.074  0.00  0.00     0.027 A 
ATOM     20  C4  <0> d           0.230  -2.412  -1.109  0.00  0.00     0.007 A 
ATOM     21  C5  <0> d           0.954  -2.756   0.019  0.00  0.00     0.020 A 
ATOM     22  I1  <0> d           0.450  -3.522  -2.872  0.00  0.00    -0.045 I 
ATOM     23  C6  <0> d           0.810  -2.027   1.183  0.00  0.00     0.031 A 
ENDBRANCH   1  16
TORSDOF 4
