REMARK  7 active torsions:
REMARK  status: ('A' for Active; 'I' for Inactive)
REMARK    1  A    between atoms: C2_2  and  C3_3 
REMARK    2  A    between atoms: C2_2  and  N3_15 
REMARK       I    between atoms: C3_3  and  N1_5 
REMARK    3  A    between atoms: N1_5  and  C4_6 
REMARK    4  A    between atoms: C7_9  and  N2_12 
REMARK    5  A    between atoms: N3_15  and  C12_16 
REMARK    6  A    between atoms: C12_16  and  C13_17 
REMARK    7  A    between atoms: C13_17  and  C18_23 
ROOT
ATOM      1  N3  <0> d           1.401   0.008   1.460  0.00  0.00    -0.062 N 
ATOM      2  H16 <0> d           1.697  -0.944   1.305  0.00  0.00     0.278 HD
ATOM      3  H31 <0> d           2.187   0.557   1.773  0.00  0.00     0.278 HD
ENDROOT
BRANCH   1   4
ATOM      4  C2  <0> d           0.879   0.569   0.207  0.00  0.00     0.273 C 
ATOM      5  C1  <0> d           0.547   2.049   0.410  0.00  0.00     0.050 C 
BRANCH   4   6
ATOM      6  C3  <0> d           1.918   0.432  -0.876  0.00  0.00     0.252 C 
ATOM      7  O1  <0> d           2.988  -0.083  -0.628  0.00  0.00    -0.271 OA
ATOM      8  N1  <0> d           1.659   0.881  -2.120  0.00  0.00    -0.325 N 
ATOM      9  H5  <0> d           0.778   1.223  -2.338  0.00  0.00     0.169 HD
BRANCH   8  10
ATOM     10  C4  <0> d           2.662   0.854  -3.099  0.00  0.00     0.034 A 
ATOM     11  C9  <0> d           3.579  -0.189  -3.123  0.00  0.00     0.032 A 
ATOM     12  C8  <0> d           4.564  -0.218  -4.090  0.00  0.00     0.031 A 
ATOM     13  C7  <0> d           4.644   0.800  -5.032  0.00  0.00     0.029 A 
ATOM     14  C6  <0> d           3.729   1.845  -5.003  0.00  0.00     0.031 A 
ATOM     15  C5  <0> d           2.741   1.871  -4.040  0.00  0.00     0.032 A 
BRANCH  13  16
ATOM     16  N2  <0> d           5.645   0.772  -6.008  0.00  0.00    -0.390 N 
ATOM     17  C10 <0> d           5.802   1.902  -6.928  0.00  0.00     0.149 C 
ATOM     18  C11 <0> d           6.536  -0.386  -6.111  0.00  0.00     0.149 C 
ENDBRANCH  13  16
ENDBRANCH   8  10
ENDBRANCH   4   6
ENDBRANCH   1   4
BRANCH   1  19
ATOM     19  C12 <0> d           0.348   0.033   2.484  0.00  0.00     0.247 C 
BRANCH  19  20
ATOM     20  C13 <0> d           0.901  -0.520   3.799  0.00  0.00     0.015 C 
ATOM     21  C17 <0> d           2.161   0.257   4.191  0.00  0.00     0.042 C 
ATOM     22  C16 <0> d           1.792   1.723   4.436  0.00  0.00     0.168 C 
ATOM     23  O2  <0> d           0.790   1.796   5.452  0.00  0.00    -0.391 OA
ATOM     24  C15 <0> d          -0.428   1.127   5.120  0.00  0.00     0.168 C 
ATOM     25  C14 <0> d          -0.148  -0.362   4.903  0.00  0.00     0.042 C 
BRANCH  20  26
ATOM     26  C18 <0> d           1.242  -1.979   3.629  0.00  0.00    -0.045 A 
ATOM     27  C23 <0> d           1.883  -2.661   4.645  0.00  0.00     0.050 A 
ATOM     28  C22 <0> d           2.190  -4.003   4.492  0.00  0.00     0.117 A 
ATOM     29  C21 <0> d           1.864  -4.655   3.315  0.00  0.00     0.042 A 
ATOM     30  F1  <0> d           2.810  -4.672   5.487  0.00  0.00    -0.206 F 
ATOM     31  C20 <0> d           1.229  -3.969   2.297  0.00  0.00     0.004 A 
ATOM     32  C19 <0> d           0.917  -2.632   2.454  0.00  0.00     0.008 A 
ENDBRANCH  20  26
ENDBRANCH  19  20
ENDBRANCH   1  19
TORSDOF 7
