REMARK  5 active torsions:
REMARK  status: ('A' for Active; 'I' for Inactive)
REMARK    1  A    between atoms: C9_10  and  C11_12 
REMARK    2  A    between atoms: C11_12  and  C12_13 
REMARK    3  A    between atoms: C11_12  and  N3_23 
REMARK    4  A    between atoms: C12_13  and  N2_14 
REMARK       I    between atoms: N2_14  and  C13_15 
REMARK    5  A    between atoms: C13_15  and  C14_17 
ROOT
ATOM      1  C11 <0> d          -1.478   1.115   1.040  0.00  0.00     0.237 C 
ENDROOT
BRANCH   1   2
ATOM      2  C9  <0> d          -0.914  -0.175   0.504  0.00  0.00    -0.025 A 
ATOM      3  C8  <0> d           0.391  -0.532   0.791  0.00  0.00     0.011 A 
ATOM      4  C7  <0> d           0.904  -1.715   0.302  0.00  0.00     0.025 A 
ATOM      5  C6  <0> d           0.118  -2.551  -0.492  0.00  0.00     0.016 A 
ATOM      6  N1  <0> d           0.699  -3.726  -0.967  0.00  0.00    -0.287 NA
ATOM      7  C5  <0> d          -1.187  -2.188  -0.777  0.00  0.00    -0.036 A 
ATOM      8  C1  <0> d           1.643  -4.280   0.012  0.00  0.00     0.116 C 
ATOM      9  C2  <0> d          -0.285  -4.731  -1.375  0.00  0.00     0.095 C 
ATOM     10  C3  <0> d          -1.256  -4.089  -2.374  0.00  0.00     0.019 C 
ATOM     11  C4  <0> d          -2.091  -3.052  -1.620  0.00  0.00     0.041 C 
ATOM     12  C10 <0> d          -1.697  -1.000  -0.278  0.00  0.00     0.018 A 
ENDBRANCH   1   2
BRANCH   1  13
ATOM     13  C12 <0> d          -0.495   2.255   0.767  0.00  0.00     0.161 C 
BRANCH  13  14
ATOM     14  N2  <0> d          -0.987   3.485   1.391  0.00  0.00    -0.353 N 
ATOM     15  C13 <0> d          -0.278   4.627   1.281  0.00  0.00     0.275 C 
ATOM     16  O1  <0> d           0.770   4.635   0.663  0.00  0.00    -0.265 OA
ATOM     17  H16 <0> d          -1.934   3.478   1.950  0.00  0.00     0.162 HD
BRANCH  15  18
ATOM     18  C14 <0> d          -0.770   5.858   1.906  0.00  0.00     0.144 A 
ATOM     19  O2  <0> d          -1.914   5.987   2.611  0.00  0.00    -0.298 OA
ATOM     20  C17 <0> d          -2.036   7.252   3.033  0.00  0.00     0.122 A 
ATOM     21  C16 <0> d          -0.970   7.961   2.594  0.00  0.00     0.048 A 
ATOM     22 Br1  <0> d          -3.465   7.937   4.065  0.00  0.00    -0.023 Br
ATOM     23  C15 <0> d          -0.155   7.077   1.872  0.00  0.00     0.046 A 
ENDBRANCH  15  18
ENDBRANCH  13  14
ENDBRANCH   1  13
BRANCH   1  24
ATOM     24  N3  <0> d          -1.694   0.992   2.488  0.00  0.00    -0.069 N 
ATOM     25  C18 <0> d          -2.835   0.113   2.778  0.00  0.00     0.270 C 
ATOM     26  C19 <0> d          -0.479   0.515   3.163  0.00  0.00     0.270 C 
ATOM     27  H25 <0> d          -1.929   1.992   2.882  0.00  0.00     0.279 HD
ENDBRANCH   1  24
TORSDOF 5
