REMARK  6 active torsions:
REMARK  status: ('A' for Active; 'I' for Inactive)
REMARK    1  A    between atoms: O1_2  and  C2_3 
REMARK    2  A    between atoms: C7_8  and  C8_9 
REMARK    3  A    between atoms: C8_9  and  C9_10 
REMARK    4  A    between atoms: C8_9  and  N3_22 
REMARK    5  A    between atoms: C9_10  and  N1_11 
REMARK       I    between atoms: N1_11  and  C10_12 
REMARK    6  A    between atoms: C10_12  and  C11_14 
ROOT
ATOM      1  C8  <0> d          -0.091  -2.640  -0.148  0.00  0.00     0.276 C 
ENDROOT
BRANCH   1   2
ATOM      2  C7  <0> d          -1.267  -1.919  -0.757  0.00  0.00     0.010 A 
ATOM      3  C2  <0> d          -1.175  -0.567  -1.053  0.00  0.00     0.076 A 
ATOM      4  C3  <0> d          -2.257   0.092  -1.618  0.00  0.00     0.037 A 
ATOM      5  C4  <0> d          -3.424  -0.598  -1.881  0.00  0.00     0.003 A 
ATOM      6  C5  <0> d          -3.515  -1.945  -1.581  0.00  0.00     0.001 A 
ATOM      7  C6  <0> d          -2.438  -2.604  -1.017  0.00  0.00     0.012 A 
BRANCH   3   8
ATOM      8  O1  <0> d          -0.025   0.109  -0.794  0.00  0.00    -0.355 OA
ATOM      9  C1  <0> d          -0.002   1.500  -1.124  0.00  0.00     0.210 C 
ENDBRANCH   3   8
ENDBRANCH   1   2
BRANCH   1  10
ATOM     10  C9  <0> d           0.918  -2.987  -1.244  0.00  0.00     0.164 C 
BRANCH  10  11
ATOM     11  N1  <0> d           0.323  -3.960  -2.165  0.00  0.00    -0.354 N 
ATOM     12  C10 <0> d           0.992  -4.336  -3.273  0.00  0.00     0.253 C 
ATOM     13  O2  <0> d           2.090  -3.867  -3.509  0.00  0.00    -0.268 OA
ATOM     14  H12 <0> d          -0.552  -4.334  -1.977  0.00  0.00     0.162 HD
BRANCH  12  15
ATOM     15  C11 <0> d           0.394  -5.315  -4.199  0.00  0.00     0.047 A 
ATOM     16  C15 <0> d           1.075  -5.703  -5.335  0.00  0.00     0.108 A 
ATOM     17  N2  <0> d           0.535  -6.600  -6.181  0.00  0.00    -0.333 N 
ATOM     18  C14 <0> d          -0.679  -7.131  -5.947  0.00  0.00     0.245 A 
ATOM     19  H2  <0> d           1.027  -6.866  -6.973  0.00  0.00     0.168 HD
ATOM     20  C13 <0> d          -1.413  -6.760  -4.804  0.00  0.00     0.075 A 
ATOM     21  O3  <0> d          -1.148  -7.939  -6.731  0.00  0.00    -0.268 OA
ATOM     22  C12 <0> d          -0.885  -5.859  -3.933  0.00  0.00     0.024 A 
ENDBRANCH  12  15
ENDBRANCH  10  11
ENDBRANCH   1  10
BRANCH   1  23
ATOM     23  N3  <0> d          -0.556  -3.874   0.499  0.00  0.00     0.103 N 
ATOM     24  C19 <0> d           0.579  -4.718   0.901  0.00  0.00     0.299 C 
ATOM     25  C18 <0> d           0.051  -6.016   1.515  0.00  0.00     0.198 C 
ATOM     26  O4  <0> d          -0.807  -5.703   2.616  0.00  0.00    -0.388 OA
ATOM     27  C17 <0> d          -1.923  -4.883   2.260  0.00  0.00     0.198 C 
ATOM     28  C16 <0> d          -1.415  -3.573   1.653  0.00  0.00     0.299 C 
ENDBRANCH   1  23
TORSDOF 6
