REMARK  5 active torsions:
REMARK  status: ('A' for Active; 'I' for Inactive)
REMARK    1  A    between atoms: C7_8  and  C8_9 
REMARK       I    between atoms: C8_9  and  N1_11 
REMARK    2  A    between atoms: N1_11  and  C9_12 
REMARK    3  A    between atoms: N2_20  and  C23_30 
REMARK    4  A    between atoms: C16_21  and  C17_22 
REMARK       I    between atoms: C17_22  and  N3_24 
REMARK    5  A    between atoms: N3_24  and  C18_25 
ROOT
ATOM      1  C1  <0> d          -0.149   1.654  -0.382  0.00  0.00     0.051 C 
ATOM      2  C2  <0> d          -0.098   0.140  -0.164  0.00  0.00     0.089 C 
ATOM      3  C3  <0> d          -1.459  -0.556  -0.056  0.00  0.00     0.010 C 
ATOM      4  C4  <0> d          -1.271  -1.695   0.623  0.00  0.00     0.013 C 
ATOM      5  C5  <0> d           0.192  -1.710   0.888  0.00  0.00     0.122 C 
ATOM      6  O1  <0> d           0.530  -0.311   1.090  0.00  0.00    -0.357 OA
ATOM      7  C6  <0> d           0.909  -2.025  -0.476  0.00  0.00     0.135 C 
ATOM      8  C7  <0> d           0.760  -0.660  -1.198  0.00  0.00     0.132 C 
ATOM      9  C15 <0> d           2.299  -2.342  -0.001  0.00  0.00     0.229 C 
ATOM     10  O3  <0> d           3.310  -2.225  -0.660  0.00  0.00    -0.273 OA
ATOM     11  N2  <0> d           2.245  -2.778   1.283  0.00  0.00    -0.330 N 
ATOM     12  C16 <0> d           0.878  -2.655   1.824  0.00  0.00     0.219 C 
ENDROOT
BRANCH   8  13
ATOM     13  C8  <0> d           2.093   0.006  -1.422  0.00  0.00     0.226 C 
ATOM     14  O2  <0> d           2.649   0.574  -0.506  0.00  0.00    -0.273 OA
ATOM     15  N1  <0> d           2.668  -0.030  -2.640  0.00  0.00    -0.356 N 
ATOM     16  H9  <0> d           2.223  -0.485  -3.373  0.00  0.00     0.162 HD
BRANCH  15  17
ATOM     17  C9  <0> d           3.964   0.617  -2.858  0.00  0.00     0.084 C 
ATOM     18  C14 <0> d           4.675  -0.050  -4.038  0.00  0.00     0.025 C 
ATOM     19  C13 <0> d           6.028   0.626  -4.265  0.00  0.00     0.002 C 
ATOM     20  C12 <0> d           5.813   2.109  -4.573  0.00  0.00     0.000 C 
ATOM     21  C11 <0> d           5.101   2.776  -3.394  0.00  0.00     0.002 C 
ATOM     22  C10 <0> d           3.748   2.100  -3.166  0.00  0.00     0.025 C 
ENDBRANCH  15  17
ENDBRANCH   8  13
BRANCH  12  23
ATOM     23  C17 <0> d           0.202  -4.002   1.804  0.00  0.00     0.244 C 
ATOM     24  O4  <0> d           0.676  -4.909   1.153  0.00  0.00    -0.271 OA
ATOM     25  N3  <0> d          -0.929  -4.198   2.510  0.00  0.00    -0.355 N 
ATOM     26  H21 <0> d          -1.308  -3.473   3.030  0.00  0.00     0.162 HD
BRANCH  25  27
ATOM     27  C18 <0> d          -1.586  -5.508   2.490  0.00  0.00     0.084 C 
ATOM     28  C22 <0> d          -2.421  -5.697   3.769  0.00  0.00     0.025 C 
ATOM     29  C21 <0> d          -3.884  -5.885   3.315  0.00  0.00     0.002 C 
ATOM     30  C20 <0> d          -3.767  -6.400   1.859  0.00  0.00     0.002 C 
ATOM     31  C19 <0> d          -2.570  -5.588   1.305  0.00  0.00     0.025 C 
ENDBRANCH  25  27
ENDBRANCH  12  23
BRANCH  11  32
ATOM     32  C23 <0> d           3.392  -3.291   2.037  0.00  0.00     0.088 A 
ATOM     33  C25 <0> d           4.108  -4.524   1.481  0.00  0.00     0.027 A 
ATOM     34  C24 <0> d           4.776  -3.150   1.399  0.00  0.00     0.027 A 
ENDBRANCH  11  32
TORSDOF 5
