REMARK  4 active torsions:
REMARK  status: ('A' for Active; 'I' for Inactive)
REMARK    1  A    between atoms: O1_2  and  C2_3 
REMARK    2  A    between atoms: C2_3  and  C3_5 
REMARK    3  A    between atoms: C6_9  and  N1_10 
REMARK       I    between atoms: N1_10  and  C7_11 
REMARK    4  A    between atoms: C7_11  and  C8_13 
ROOT
ATOM      1  C3  <0> d          -1.248  -2.096   0.003  0.00  0.00     0.080 A 
ATOM      2  C4  <0> d          -1.271  -2.858   1.236  0.00  0.00    -0.023 A 
ATOM      3  C5  <0> d          -1.323  -4.198   1.060  0.00  0.00     0.018 A 
ATOM      4  S1  <0> d          -1.343  -4.419  -0.693  0.00  0.00    -0.074 SA
ATOM      5  C6  <0> d          -1.288  -2.814  -1.185  0.00  0.00     0.094 A 
ATOM      6  C10 <0> d          -1.353  -5.230   2.143  0.00  0.00     0.279 C 
ATOM      7  N4  <0> d          -0.934  -4.590   3.404  0.00  0.00    -0.070 N 
ATOM      8  C11 <0> d          -1.709  -3.360   3.614  0.00  0.00     0.237 C 
ATOM      9  C12 <0> d          -1.246  -2.271   2.640  0.00  0.00     0.068 C 
ATOM     10  H8  <0> d          -1.096  -5.224   4.172  0.00  0.00     0.277 HD
ATOM     11  H13 <0> d           0.048  -4.365   3.357  0.00  0.00     0.277 HD
ENDROOT
BRANCH   5  12
ATOM     12  N1  <0> d          -1.282  -2.320  -2.479  0.00  0.00    -0.315 N 
ATOM     13  C7  <0> d          -1.326  -3.169  -3.525  0.00  0.00     0.277 C 
ATOM     14  O3  <0> d          -1.370  -4.368  -3.332  0.00  0.00    -0.266 OA
ATOM     15  H4  <0> d          -1.246  -1.363  -2.633  0.00  0.00     0.170 HD
BRANCH  13  16
ATOM     16  C8  <0> d          -1.319  -2.642  -4.905  0.00  0.00     0.152 A 
ATOM     17  N3  <0> d          -1.272  -1.348  -5.175  0.00  0.00    -0.186 NA
ATOM     18  S2  <0> d          -1.284  -1.275  -6.788  0.00  0.00     0.116 SA
ATOM     19  N2  <0> d          -1.355  -2.841  -7.173  0.00  0.00    -0.203 NA
ATOM     20  C9  <0> d          -1.368  -3.466  -6.023  0.00  0.00     0.165 A 
ENDBRANCH  13  16
ENDBRANCH   5  12
BRANCH   1  21
ATOM     21  C2  <0> d          -1.191  -0.633   0.010  0.00  0.00     0.296 C 
ATOM     22  O2  <0> d          -2.220   0.016   0.023  0.00  0.00    -0.259 OA
BRANCH  21  23
ATOM     23  O1  <0> d           0.002  -0.004   0.002  0.00  0.00    -0.322 OA
ATOM     24  C1  <0> d          -0.017   1.425   0.010  0.00  0.00     0.213 C 
ENDBRANCH  21  23
ENDBRANCH   1  21
TORSDOF 4
