REMARK  3 active torsions:
REMARK  status: ('A' for Active; 'I' for Inactive)
REMARK    1  A    between atoms: C2_2  and  N1_9 
REMARK    2  A    between atoms: N1_9  and  S2_10 
REMARK    3  A    between atoms: S2_10  and  C6_13 
ROOT
ATOM      1  N1  <0> d           0.629  -0.522  -1.306  0.00  0.00    -0.304 N 
ATOM      2  H10 <0> d           0.133  -0.972  -2.008  0.00  0.00     0.173 HD
ENDROOT
BRANCH   1   3
ATOM      3  C2  <0> d          -0.027  -0.196  -0.038  0.00  0.00     0.050 C 
ATOM      4  C1  <0> d           0.231   1.278   0.281  0.00  0.00     0.040 C 
ATOM      5  C5  <0> d           0.595  -1.059   1.077  0.00  0.00     0.171 C 
ATOM      6  S1  <0> d          -0.814  -2.105   1.636  0.00  0.00     0.146 S 
ATOM      7  C4  <0> d          -1.918  -1.863   0.176  0.00  0.00     0.143 C 
ATOM      8  O1  <0> d          -1.413  -1.509   2.779  0.00  0.00    -0.228 OA
ATOM      9  O2  <0> d          -0.398  -3.462   1.687  0.00  0.00    -0.228 OA
ATOM     10  C3  <0> d          -1.532  -0.405  -0.202  0.00  0.00     0.047 C 
ENDBRANCH   1   3
BRANCH   1  11
ATOM     11  S2  <0> d           2.219  -0.124  -1.542  0.00  0.00     0.267 S 
ATOM     12  O3  <0> d           2.556  -0.554  -2.854  0.00  0.00    -0.200 OA
ATOM     13  O4  <0> d           2.366   1.226  -1.122  0.00  0.00    -0.200 OA
BRANCH  11  14
ATOM     14  C6  <0> d           3.172  -1.103  -0.430  0.00  0.00     0.140 A 
ATOM     15  S3  <0> d           3.852  -0.681   1.166  0.00  0.00    -0.043 SA
ATOM     16  C8  <0> d           4.585  -2.158   1.504  0.00  0.00     0.168 A 
ATOM     17  N2  <0> d           4.307  -2.878   0.444  0.00  0.00    -0.239 NA
ATOM     18 Cl1  <0> d           5.493  -2.615   2.911  0.00  0.00    -0.054 Cl
ATOM     19  C7  <0> d           3.599  -2.386  -0.553  0.00  0.00     0.151 A 
ENDBRANCH  11  14
ENDBRANCH   1  11
TORSDOF 3
