REMARK  3 active torsions:
REMARK  status: ('A' for Active; 'I' for Inactive)
REMARK    1  A    between atoms: C6_6  and  S1_7 
REMARK    2  A    between atoms: S1_7  and  N1_10 
REMARK    3  A    between atoms: N2_13  and  C11_16 
ROOT
ATOM      1  S1  <0> d          -3.921  -0.964  -0.029  0.00  0.00     0.260 S 
ATOM      2  O1  <0> d          -4.912  -0.105  -0.574  0.00  0.00    -0.200 OA
ATOM      3  O2  <0> d          -3.618  -2.232  -0.594  0.00  0.00    -0.200 OA
ENDROOT
BRANCH   1   4
ATOM      4  C6  <0> d          -2.416  -0.049  -0.010  0.00  0.00     0.080 A 
ATOM      5  C1  <0> d          -2.441   1.334   0.007  0.00  0.00     0.027 A 
ATOM      6  C2  <0> d          -1.258   2.033   0.017  0.00  0.00     0.031 A 
ATOM      7  C3  <0> d          -0.017   1.374   0.010  0.00  0.00     0.041 A 
ATOM      8  N3  <0> d           1.079   2.207   0.004  0.00  0.00    -0.327 N 
ATOM      9  C4  <0> d           0.002  -0.004   0.002  0.00  0.00    -0.030 A 
ATOM     10  C20 <0> d           2.369   2.065   0.115  0.00  0.00     0.222 C 
ATOM     11  H29 <0> d           0.945   3.291  -0.121  0.00  0.00     0.169 HD
ATOM     12  C19 <0> d           3.136   0.791   0.118  0.00  0.00     0.103 C 
ATOM     13  O3  <0> d           3.016   3.085   0.229  0.00  0.00    -0.273 OA
ATOM     14  C18 <0> d           2.382  -0.318   0.811  0.00  0.00     0.014 C 
ATOM     15  C17 <0> d           1.234  -0.850   0.011  0.00  0.00     0.041 C 
ATOM     16  C5  <0> d          -1.205  -0.703  -0.012  0.00  0.00     0.034 A 
ENDBRANCH   1   4
BRANCH   1  17
ATOM     17  N1  <0> d          -4.347  -1.238   1.548  0.00  0.00    -0.304 N 
ATOM     18  C10 <0> d          -5.198  -0.285   2.276  0.00  0.00     0.163 C 
ATOM     19  C9  <0> d          -4.515   0.060   3.604  0.00  0.00     0.256 C 
ATOM     20  N2  <0> d          -4.209  -1.180   4.330  0.00  0.00    -0.064 N 
ATOM     21  C8  <0> d          -3.255  -2.012   3.585  0.00  0.00     0.256 C 
ATOM     22  H30 <0> d          -5.144  -1.750   4.428  0.00  0.00     0.280 HD
ATOM     23  C7  <0> d          -3.891  -2.445   2.255  0.00  0.00     0.163 C 
BRANCH  20  24
ATOM     24  C11 <0> d          -3.711  -0.890   5.682  0.00  0.00     0.188 C 
ATOM     25  C16 <0> d          -3.522  -2.201   6.448  0.00  0.00     0.033 C 
ATOM     26  C15 <0> d          -3.003  -1.898   7.855  0.00  0.00     0.002 C 
ATOM     27  C14 <0> d          -1.664  -1.166   7.759  0.00  0.00     0.000 C 
ATOM     28  C13 <0> d          -1.853   0.145   6.992  0.00  0.00     0.002 C 
ATOM     29  C12 <0> d          -2.371  -0.158   5.585  0.00  0.00     0.033 C 
ENDBRANCH  20  24
ENDBRANCH   1  17
TORSDOF 3
