REMARK  3 active torsions:
REMARK  status: ('A' for Active; 'I' for Inactive)
REMARK    1  A    between atoms: C9_10  and  C13_16 
REMARK    2  A    between atoms: C13_16  and  C14_17 
REMARK       I    between atoms: C14_17  and  N1_19 
REMARK    3  A    between atoms: N1_19  and  C15_20 
ROOT
ATOM      1  C1  <0> d          -8.520   3.394  -8.344  0.00  0.00     0.051 C 
ATOM      2  C2  <0> d          -7.394   2.590  -8.942  0.00  0.00    -0.027 A 
ATOM      3  C3  <0> d          -7.138   2.410 -10.243  0.00  0.00     0.150 A 
ATOM      4  O1  <0> d          -6.052   1.633 -10.401  0.00  0.00    -0.321 OA
ATOM      5  C4  <0> d          -5.543   1.266  -9.207  0.00  0.00     0.088 A 
ATOM      6  C5  <0> d          -6.357   1.847  -8.213  0.00  0.00     0.006 A 
ATOM      7  C6  <0> d          -6.078   1.645  -6.869  0.00  0.00     0.029 A 
ATOM      8  C7  <0> d          -4.982   0.860  -6.509  0.00  0.00     0.005 A 
ATOM      9  C8  <0> d          -4.662   0.622  -5.098  0.00  0.00    -0.036 A 
ATOM     10  C9  <0> d          -3.581  -0.146  -4.807  0.00  0.00     0.033 A 
ATOM     11  C10 <0> d          -2.809  -0.696  -5.852  0.00  0.00     0.295 A 
ATOM     12  O2  <0> d          -1.845  -1.387  -5.576  0.00  0.00    -0.259 OA
ATOM     13  O3  <0> d          -3.108  -0.479  -7.142  0.00  0.00    -0.274 OA
ATOM     14  C11 <0> d          -4.168   0.280  -7.503  0.00  0.00     0.093 A 
ATOM     15  C12 <0> d          -4.455   0.487  -8.841  0.00  0.00     0.076 A 
ATOM     16  C19 <0> d          -5.506   1.217  -4.002  0.00  0.00     0.050 C 
ENDROOT
BRANCH  10  17
ATOM     17  C13 <0> d          -3.210  -0.415  -3.371  0.00  0.00     0.148 C 
BRANCH  17  18
ATOM     18  C14 <0> d          -2.259   0.651  -2.890  0.00  0.00     0.222 C 
ATOM     19  O4  <0> d          -1.917   1.541  -3.639  0.00  0.00    -0.273 OA
ATOM     20  N1  <0> d          -1.790   0.615  -1.627  0.00  0.00    -0.352 N 
ATOM     21  H10 <0> d          -2.064  -0.097  -1.028  0.00  0.00     0.163 HD
BRANCH  20  22
ATOM     22  C15 <0> d          -0.866   1.651  -1.159  0.00  0.00     0.122 C 
ATOM     23  C18 <0> d          -1.648   2.843  -0.712  0.00  0.00     0.011 C 
ATOM     24  C17 <0> d          -1.838   3.063   0.563  0.00  0.00     0.107 C 
ATOM     25  S1  <0> d          -0.999   1.741   1.420  0.00  0.00     0.167 S 
ATOM     26  C16 <0> d          -0.013   1.086   0.008  0.00  0.00     0.174 C 
ATOM     27  O5  <0> d          -2.012   0.823   1.805  0.00  0.00    -0.223 OA
ATOM     28  O6  <0> d          -0.161   2.369   2.381  0.00  0.00    -0.223 OA
ENDBRANCH  20  22
ENDBRANCH  17  18
ENDBRANCH  10  17
TORSDOF 3
