REMARK  3 active torsions:
REMARK  status: ('A' for Active; 'I' for Inactive)
REMARK    1  A    between atoms: C3_3  and  N4_20 
REMARK    2  A    between atoms: C6_6  and  N1_7 
REMARK       I    between atoms: N1_7  and  C7_8 
REMARK    3  A    between atoms: C7_8  and  C8_10 
ROOT
ATOM      1  N1  <0> d          -1.138  -0.822   0.031  0.00  0.00    -0.323 N 
ATOM      2  C7  <0> d          -1.110  -2.166   0.117  0.00  0.00     0.263 C 
ATOM      3  O1  <0> d          -0.052  -2.743   0.293  0.00  0.00    -0.267 OA
ATOM      4  H5  <0> d          -1.988  -0.356  -0.002  0.00  0.00     0.169 HD
ENDROOT
BRANCH   1   5
ATOM      5  C6  <0> d           0.059  -0.097  -0.010  0.00  0.00     0.035 A 
ATOM      6  C1  <0> d           0.121   1.174   0.545  0.00  0.00     0.032 A 
ATOM      7  C2  <0> d           1.302   1.888   0.504  0.00  0.00     0.032 A 
ATOM      8  C3  <0> d           2.428   1.335  -0.092  0.00  0.00     0.037 A 
ATOM      9  C4  <0> d           2.366   0.064  -0.647  0.00  0.00     0.032 A 
ATOM     10  C5  <0> d           1.185  -0.650  -0.606  0.00  0.00     0.032 A 
BRANCH   8  11
ATOM     11  N4  <0> d           3.626   2.061  -0.134  0.00  0.00    -0.318 N 
ATOM     12  C17 <0> d           3.755   3.335   0.273  0.00  0.00     0.224 C 
ATOM     13  C16 <0> d           5.182   3.801   0.079  0.00  0.00     0.105 C 
ATOM     14  O3  <0> d           2.860   4.013   0.731  0.00  0.00    -0.273 OA
ATOM     15  C15 <0> d           5.788   2.764  -0.895  0.00  0.00     0.029 C 
ATOM     16  C14 <0> d           4.899   1.528  -0.633  0.00  0.00     0.133 C 
ENDBRANCH   8  11
ENDBRANCH   1   5
BRANCH   2  17
ATOM     17  C8  <0> d          -2.353  -2.936  -0.002  0.00  0.00     0.118 A 
ATOM     18  C11 <0> d          -3.599  -2.275  -0.078  0.00  0.00     0.271 A 
ATOM     19  N3  <0> d          -4.747  -3.006  -0.193  0.00  0.00    -0.266 N 
ATOM     20  O2  <0> d          -3.648  -1.058  -0.046  0.00  0.00    -0.266 OA
ATOM     21  C10 <0> d          -4.620  -4.364  -0.217  0.00  0.00     0.179 A 
ATOM     22  C12 <0> d          -6.025  -2.502  -0.281  0.00  0.00     0.110 A 
ATOM     23  N2  <0> d          -3.463  -4.993  -0.142  0.00  0.00    -0.235 NA
ATOM     24  S1  <0> d          -6.193  -4.931  -0.356  0.00  0.00    -0.062 SA
ATOM     25  C9  <0> d          -2.322  -4.334  -0.035  0.00  0.00     0.142 A 
ATOM     26  C13 <0> d          -7.038  -3.363  -0.383  0.00  0.00     0.071 A 
ENDBRANCH   2  17
TORSDOF 3
