REMARK  5 active torsions:
REMARK  status: ('A' for Active; 'I' for Inactive)
REMARK    1  A    between atoms: C2_2  and  C3_3 
REMARK    2  A    between atoms: C5_5  and  C13_15 
REMARK    3  A    between atoms: C10_12  and  C11_13 
REMARK    4  A    between atoms: C13_15  and  C14_16 
REMARK    5  A    between atoms: C13_15  and  N2_21 
ROOT
ATOM      1  C3  <0> d           0.707  -0.490  -1.238  0.00  0.00    -0.031 A 
ATOM      2  C4  <0> d          -0.023  -0.816  -2.362  0.00  0.00     0.018 A 
ATOM      3  C5  <0> d           0.615  -1.264  -3.505  0.00  0.00    -0.024 A 
ATOM      4  C6  <0> d           1.994  -1.384  -3.521  0.00  0.00     0.019 A 
ATOM      5  C7  <0> d           2.725  -1.059  -2.401  0.00  0.00    -0.017 A 
ATOM      6  C8  <0> d           2.096  -0.604  -1.248  0.00  0.00     0.048 A 
ATOM      7  N1  <0> d           3.041  -0.335  -0.258  0.00  0.00    -0.326 N 
ATOM      8  C9  <0> d           4.296  -0.578  -0.672  0.00  0.00     0.230 A 
ATOM      9  O1  <0> d           5.310  -0.433  -0.022  0.00  0.00    -0.272 OA
ATOM     10  C10 <0> d           4.205  -1.079  -2.098  0.00  0.00     0.113 A 
ATOM     11  H11 <0> d           2.817  -0.009   0.628  0.00  0.00     0.169 HD
ENDROOT
BRANCH   3  12
ATOM     12  C13 <0> d          -0.189  -1.619  -4.729  0.00  0.00     0.245 C 
BRANCH  12  13
ATOM     13  C14 <0> d          -0.783  -3.018  -4.560  0.00  0.00     0.156 C 
ATOM     14  O2  <0> d          -1.664  -3.039  -3.430  0.00  0.00    -0.383 OA
ATOM     15  C17 <0> d          -3.001  -3.353  -3.859  0.00  0.00     0.168 C 
ATOM     16  C16 <0> d          -2.828  -4.131  -5.187  0.00  0.00     0.029 C 
ATOM     17  C15 <0> d          -1.613  -3.389  -5.808  0.00  0.00     0.036 C 
ENDBRANCH  12  13
BRANCH  12  18
ATOM     18  N2  <0> d          -1.274  -0.644  -4.902  0.00  0.00    -0.069 N 
ATOM     19  H23 <0> d          -0.882   0.279  -5.013  0.00  0.00     0.275 HD
ATOM     20  H24 <0> d          -1.812  -0.882  -5.722  0.00  0.00     0.275 HD
ATOM     21  H25 <0> d          -1.873  -0.659  -4.090  0.00  0.00     0.275 HD
ENDBRANCH  12  18
ENDBRANCH   3  12
BRANCH   1  22
ATOM     22  C2  <0> d           0.002  -0.004   0.002  0.00  0.00     0.036 C 
ATOM     23  C1  <0> d          -0.019   1.526   0.010  0.00  0.00     0.010 C 
ENDBRANCH   1  22
BRANCH  10  24
ATOM     24  C11 <0> d           4.758  -2.501  -2.217  0.00  0.00     0.014 C 
ATOM     25  C12 <0> d           6.276  -2.475  -2.028  0.00  0.00     0.006 C 
ENDBRANCH  10  24
TORSDOF 5
