REMARK  3 active torsions:
REMARK  status: ('A' for Active; 'I' for Inactive)
REMARK    1  A    between atoms: C2_2  and  C3_3 
REMARK    2  A    between atoms: C2_2  and  N2_10 
REMARK    3  A    between atoms: C3_3  and  N1_4 
ROOT
ATOM      1  C1  <0> d           0.043   1.491   0.328  0.00  0.00     0.034 C 
ATOM      2  C2  <0> d          -0.024  -0.029   0.166  0.00  0.00     0.113 C 
ENDROOT
BRANCH   2   3
ATOM      3  C3  <0> d          -1.462  -0.447  -0.146  0.00  0.00     0.260 C 
BRANCH   3   4
ATOM      4  N1  <0> d          -1.537  -1.910  -0.243  0.00  0.00    -0.069 N 
ATOM      5  C8  <0> d          -0.773  -2.361  -1.412  0.00  0.00     0.235 C 
ATOM      6  C7  <0> d          -0.781  -3.890  -1.472  0.00  0.00     0.028 C 
ATOM      7  C6  <0> d          -2.226  -4.384  -1.583  0.00  0.00     0.003 C 
ATOM      8  C5  <0> d          -3.031  -3.846  -0.398  0.00  0.00     0.028 C 
ATOM      9  C4  <0> d          -2.941  -2.319  -0.377  0.00  0.00     0.235 C 
ATOM     10  H20 <0> d          -1.147  -2.322   0.592  0.00  0.00     0.280 HD
ENDBRANCH   3   4
ENDBRANCH   2   3
BRANCH   2  11
ATOM     11  N2  <0> d           0.412  -0.671   1.409  0.00  0.00    -0.328 N 
ATOM     12  C12 <0> d           1.539  -1.407   1.419  0.00  0.00     0.181 A 
ATOM     13  N3  <0> d           1.966  -2.004   2.547  0.00  0.00    -0.300 N 
ATOM     14  S1  <0> d           2.447  -1.580  -0.023  0.00  0.00    -0.040 SA
ATOM     15  C11 <0> d           1.260  -1.882   3.689  0.00  0.00     0.248 A 
ATOM     16  H2  <0> d           2.782  -2.527   2.538  0.00  0.00     0.171 HD
ATOM     17  C10 <0> d           0.069  -1.115   3.691  0.00  0.00     0.091 A 
ATOM     18  O1  <0> d           1.642  -2.426   4.709  0.00  0.00    -0.268 OA
ATOM     19  C9  <0> d          -0.333  -0.523   2.546  0.00  0.00     0.099 A 
ENDBRANCH   2  11
TORSDOF 3
