REMARK  4 active torsions:
REMARK  status: ('A' for Active; 'I' for Inactive)
REMARK    1  A    between atoms: C6_6  and  N1_9 
REMARK    2  A    between atoms: N1_9  and  C9_10 
REMARK    3  A    between atoms: N2_12  and  N3_13 
REMARK       I    between atoms: N3_13  and  C10_14 
REMARK    4  A    between atoms: C10_14  and  C11_16 
ROOT
ATOM      1  N3  <0> d           1.189   6.201  -0.180  0.00  0.00    -0.264 N 
ATOM      2  C10 <0> d           1.180   7.545  -0.275  0.00  0.00     0.270 C 
ATOM      3  O1  <0> d           0.124   8.142  -0.354  0.00  0.00    -0.266 OA
ATOM      4  H12 <0> d           2.145   5.661  -0.109  0.00  0.00     0.190 HD
ENDROOT
BRANCH   1   5
ATOM      5  N2  <0> d          -0.018   5.491  -0.173  0.00  0.00    -0.273 N 
ATOM      6  C9  <0> d          -0.009   4.146  -0.078  0.00  0.00     0.191 C 
ATOM      7  S1  <0> d          -1.485   3.279  -0.069  0.00  0.00    -0.039 SA
ATOM      8  H11 <0> d          -0.974   6.031  -0.244  0.00  0.00     0.189 HD
BRANCH   6   9
ATOM      9  N1  <0> d           1.162   3.485   0.009  0.00  0.00    -0.332 N 
ATOM     10  H10 <0> d           2.105   4.045   0.094  0.00  0.00     0.168 HD
BRANCH   9  11
ATOM     11  C6  <0> d           1.178   2.086  -0.008  0.00  0.00     0.040 A 
ATOM     12  C5  <0> d           0.399   1.393  -0.925  0.00  0.00     0.030 A 
ATOM     13  C4  <0> d           0.418   0.012  -0.940  0.00  0.00     0.003 A 
ATOM     14  C3  <0> d           1.211  -0.680  -0.043  0.00  0.00     0.007 A 
ATOM     15  C2  <0> d           1.988   0.008   0.871  0.00  0.00    -0.054 A 
ATOM     16  C1  <0> d           2.852  -0.750   1.846  0.00  0.00     0.049 C 
ATOM     17  C7  <0> d           1.974   1.388   0.891  0.00  0.00    -0.029 A 
ATOM     18  C8  <0> d           2.821   2.137   1.888  0.00  0.00     0.051 C 
ENDBRANCH   9  11
ENDBRANCH   6   9
ENDBRANCH   1   5
BRANCH   2  19
ATOM     19  C11 <0> d           2.453   8.293  -0.283  0.00  0.00     0.036 A 
ATOM     20  C16 <0> d           2.444   9.688  -0.381  0.00  0.00     0.056 A 
ATOM     21  C15 <0> d           3.636  10.381  -0.388  0.00  0.00     0.097 A 
ATOM     22  C14 <0> d           4.847   9.691  -0.297  0.00  0.00     0.068 A 
ATOM     23  O2  <0> d           3.646  11.738  -0.482  0.00  0.00    -0.340 OA
ATOM     24  C13 <0> d           4.855   8.306  -0.199  0.00  0.00     0.033 A 
ATOM     25  N4  <0> d           6.046  10.409  -0.308  0.00  0.00    -0.323 N 
ATOM     26  C12 <0> d           3.667   7.609  -0.187  0.00  0.00     0.019 A 
ATOM     27  C18 <0> d           6.014  11.741  -0.088  0.00  0.00     0.246 C 
ATOM     28  H18 <0> d           6.997   9.889  -0.494  0.00  0.00     0.169 HD
ATOM     29  C17 <0> d           4.701  12.421   0.201  0.00  0.00     0.278 C 
ATOM     30  O3  <0> d           7.040  12.388  -0.122  0.00  0.00    -0.271 OA
ENDBRANCH   2  19
TORSDOF 4
