REMARK  5 active torsions:
REMARK  status: ('A' for Active; 'I' for Inactive)
REMARK    1  A    between atoms: C2_2  and  C9_15 
REMARK    2  A    between atoms: N1_5  and  C5_9 
REMARK    3  A    between atoms: C5_9  and  C6_10 
REMARK    4  A    between atoms: C6_10  and  C7_11 
REMARK    5  A    between atoms: C7_11  and  C8_12 
ROOT
ATOM      1  C1  <0> d           7.933   0.340  -1.184  0.00  0.00     0.057 C 
ATOM      2  C2  <0> d           6.574  -0.165  -0.696  0.00  0.00     0.161 A 
ATOM      3  C3  <0> d           5.463   0.756  -1.161  0.00  0.00     0.262 A 
ATOM      4  O1  <0> d           5.153   1.009  -2.305  0.00  0.00    -0.270 OA
ATOM      5  N1  <0> d           4.892   1.234  -0.038  0.00  0.00    -0.268 N 
ATOM      6  C4  <0> d           5.484   0.752   1.061  0.00  0.00     0.326 A 
ATOM      7  O2  <0> d           5.147   1.042   2.192  0.00  0.00    -0.247 OA
ATOM      8  N2  <0> d           6.491  -0.092   0.773  0.00  0.00    -0.319 N 
ATOM      9  H4  <0> d           7.189  -0.675   1.393  0.00  0.00     0.166 HD
ENDROOT
BRANCH   5  10
ATOM     10  C5  <0> d           3.766   2.171  -0.022  0.00  0.00     0.137 C 
BRANCH  10  11
ATOM     11  C6  <0> d           2.451   1.388  -0.014  0.00  0.00     0.027 C 
BRANCH  11  12
ATOM     12  C7  <0> d           1.275   2.366   0.003  0.00  0.00     0.070 C 
BRANCH  12  13
ATOM     13  C8  <0> d          -0.020   1.595   0.011  0.00  0.00     0.071 C 
ATOM     14  S1  <0> d           0.002  -0.004   0.002  0.00  0.00    -0.066 SA
ATOM     15  N3  <0> d          -1.196   2.253   0.020  0.00  0.00    -0.394 N 
ATOM     16  H11 <0> d          -2.141   1.690   0.026  0.00  0.00     0.156 HD
ATOM     17  H12 <0> d          -1.211   3.353   0.021  0.00  0.00     0.156 HD
ENDBRANCH  12  13
ENDBRANCH  11  12
ENDBRANCH  10  11
ENDBRANCH   5  10
BRANCH   2  18
ATOM     18  C9  <0> d           6.330  -1.573  -1.175  0.00  0.00     0.090 A 
ATOM     19  O3  <0> d           5.682  -1.920  -2.299  0.00  0.00    -0.324 OA
ATOM     20  C12 <0> d           5.657  -3.258  -2.407  0.00  0.00     0.142 A 
ATOM     21  C11 <0> d           6.287  -3.783  -1.340  0.00  0.00     0.027 A 
ATOM     22  C10 <0> d           6.720  -2.697  -0.545  0.00  0.00     0.038 A 
ENDBRANCH   2  18
TORSDOF 5
