REMARK  5 active torsions:
REMARK  status: ('A' for Active; 'I' for Inactive)
REMARK    1  A    between atoms: C3_3  and  S1_17 
REMARK    2  A    between atoms: C6_6  and  N1_7 
REMARK       I    between atoms: N1_7  and  C7_8 
REMARK    3  A    between atoms: C7_8  and  C8_10 
REMARK    4  A    between atoms: S1_17  and  N2_20 
REMARK    5  A    between atoms: N2_20  and  C15_21 
ROOT
ATOM      1  C1  <0> d          -0.008   1.378   0.023  0.00  0.00     0.031 A 
ATOM      2  C2  <0> d           1.182   2.079   0.023  0.00  0.00     0.027 A 
ATOM      3  C3  <0> d           2.386   1.399   0.014  0.00  0.00     0.081 A 
ATOM      4  C4  <0> d           2.404   0.017   0.005  0.00  0.00     0.027 A 
ATOM      5  C5  <0> d           1.217  -0.690   0.005  0.00  0.00     0.031 A 
ATOM      6  C6  <0> d           0.006  -0.011   0.014  0.00  0.00     0.034 A 
ENDROOT
BRANCH   3   7
ATOM      7  S1  <0> d           3.902   2.297   0.013  0.00  0.00     0.284 S 
ATOM      8  O2  <0> d           4.884   1.436  -0.547  0.00  0.00    -0.198 OA
ATOM      9  O3  <0> d           3.615   3.579  -0.528  0.00  0.00    -0.198 OA
BRANCH   7  10
ATOM     10  N2  <0> d           4.330   2.537   1.595  0.00  0.00    -0.147 NA
BRANCH  10  11
ATOM     11  C15 <0> d           5.417   3.177   1.881  0.00  0.00     0.113 C 
ATOM     12  N3  <0> d           5.759   3.369   3.140  0.00  0.00    -0.378 N 
ATOM     13  C20 <0> d           6.038   4.726   3.656  0.00  0.00     0.121 C 
ATOM     14  H27 <0> d           5.831   2.609   3.738  0.00  0.00     0.160 HD
ATOM     15  C19 <0> d           7.359   5.166   3.064  0.00  0.00     0.020 C 
ATOM     16  C18 <0> d           7.208   5.893   1.727  0.00  0.00     0.002 C 
ATOM     17  C17 <0> d           6.194   5.229   0.794  0.00  0.00     0.008 C 
ATOM     18  C16 <0> d           6.303   3.720   0.762  0.00  0.00     0.079 C 
ENDBRANCH  10  11
ENDBRANCH   7  10
ENDBRANCH   3   7
BRANCH   6  19
ATOM     19  N1  <0> d          -1.198  -0.724   0.014  0.00  0.00    -0.327 N 
ATOM     20  C7  <0> d          -1.294  -1.884  -0.665  0.00  0.00     0.226 C 
ATOM     21  O1  <0> d          -0.315  -2.353  -1.207  0.00  0.00    -0.273 OA
ATOM     22  H8  <0> d          -1.964  -0.383   0.502  0.00  0.00     0.169 HD
BRANCH  20  23
ATOM     23  C8  <0> d          -2.618  -2.600  -0.750  0.00  0.00     0.082 C 
ATOM     24  C13 <0> d          -2.831  -3.499   0.506  0.00  0.00    -0.001 C 
ATOM     25  C12 <0> d          -1.468  -4.309   0.628  0.00  0.00     0.006 C 
ATOM     26  C14 <0> d          -3.768  -4.610  -0.090  0.00  0.00     0.010 C 
ATOM     27  C11 <0> d          -1.494  -5.290  -0.566  0.00  0.00     0.005 C 
ATOM     28  C10 <0> d          -2.837  -4.986  -1.296  0.00  0.00    -0.013 C 
ATOM     29  C9  <0> d          -2.623  -3.583  -1.943  0.00  0.00     0.019 C 
ENDBRANCH  20  23
ENDBRANCH   6  19
TORSDOF 5
