REMARK  3 active torsions:
REMARK  status: ('A' for Active; 'I' for Inactive)
REMARK    1  A    between atoms: C4_4  and  C7_8 
REMARK    2  A    between atoms: C7_8  and  N1_10 
REMARK       I    between atoms: N1_10  and  C9_11 
REMARK    3  A    between atoms: C9_11  and  C10_13 
ROOT
ATOM      1  N1  <0> d          -2.786  -3.079   0.471  0.00  0.00    -0.350 N 
ATOM      2  C9  <0> d          -3.542  -4.045   1.030  0.00  0.00     0.253 C 
ATOM      3  O2  <0> d          -3.106  -5.171   1.135  0.00  0.00    -0.270 OA
ATOM      4  H12 <0> d          -3.135  -2.178   0.387  0.00  0.00     0.163 HD
ENDROOT
BRANCH   2   5
ATOM      5  C10 <0> d          -4.929  -3.724   1.524  0.00  0.00     0.151 C 
ATOM      6  O4  <0> d          -4.951  -2.393   2.057  0.00  0.00    -0.296 OA
ATOM      7  C18 <0> d          -6.173  -1.971   2.470  0.00  0.00     0.295 C 
ATOM      8  C17 <0> d          -7.003  -2.942   3.220  0.00  0.00     0.045 A 
ATOM      9  O3  <0> d          -6.569  -0.847   2.235  0.00  0.00    -0.259 OA
ATOM     10  C12 <0> d          -6.596  -4.275   3.289  0.00  0.00    -0.038 A 
ATOM     11  C16 <0> d          -8.180  -2.535   3.846  0.00  0.00     0.018 A 
ATOM     12  C11 <0> d          -5.323  -4.718   2.618  0.00  0.00     0.088 C 
ATOM     13  C13 <0> d          -7.368  -5.188   3.979  0.00  0.00     0.008 A 
ATOM     14  C14 <0> d          -8.536  -4.780   4.599  0.00  0.00     0.001 A 
ATOM     15  C15 <0> d          -8.941  -3.459   4.534  0.00  0.00     0.001 A 
ATOM     16  C19 <0> d          -5.920  -3.825   0.362  0.00  0.00     0.057 C 
ENDBRANCH   2   5
BRANCH   1  17
ATOM     17  C7  <0> d          -1.437  -3.390  -0.009  0.00  0.00     0.116 C 
ATOM     18  C8  <0> d          -1.518  -3.946  -1.432  0.00  0.00     0.037 C 
BRANCH  17  19
ATOM     19  C4  <0> d          -0.601  -2.136  -0.007  0.00  0.00    -0.004 A 
ATOM     20  C3  <0> d          -1.078  -0.805   0.003  0.00  0.00     0.044 A 
ATOM     21  C2  <0> d           0.002  -0.004   0.002  0.00  0.00     0.050 A 
ATOM     22  C1  <0> d          -0.018   1.503   0.010  0.00  0.00     0.076 C 
ATOM     23  O1  <0> d           1.102  -0.775  -0.013  0.00  0.00    -0.320 OA
ATOM     24  C5  <0> d           0.742  -2.069  -0.013  0.00  0.00     0.058 A 
ATOM     25  C6  <0> d           1.684  -3.245  -0.023  0.00  0.00     0.077 C 
ENDBRANCH  17  19
ENDBRANCH   1  17
TORSDOF 3
