REMARK  5 active torsions:
REMARK  status: ('A' for Active; 'I' for Inactive)
REMARK       I    between atoms: N1_5  and  C5_7 
REMARK    1  A    between atoms: C5_7  and  C6_9 
REMARK    2  A    between atoms: C6_9  and  S1_10 
REMARK    3  A    between atoms: S1_10  and  C7_11 
REMARK    4  A    between atoms: C8_14  and  C9_17 
REMARK    5  A    between atoms: N5_15  and  N6_16 
ROOT
ATOM      1  C7  <0> d          -0.282   1.804  -2.288  0.00  0.00     0.210 A 
ATOM      2  N3  <0> d          -1.313   2.232  -2.980  0.00  0.00    -0.121 NA
ATOM      3  N4  <0> d          -2.369   2.211  -2.248  0.00  0.00    -0.131 NA
ATOM      4  C8  <0> d          -2.079   1.768  -1.057  0.00  0.00     0.157 A 
ATOM      5  N5  <0> d          -0.741   1.490  -1.041  0.00  0.00    -0.220 N 
ENDROOT
BRANCH   1   6
ATOM      6  S1  <0> d           1.377   1.661  -2.862  0.00  0.00    -0.079 SA
BRANCH   6   7
ATOM      7  C6  <0> d           1.175   2.253  -4.560  0.00  0.00     0.187 C 
BRANCH   7   8
ATOM      8  C5  <0> d           2.506   2.217  -5.266  0.00  0.00     0.254 C 
ATOM      9  N1  <0> d           2.599   2.616  -6.550  0.00  0.00    -0.205 N 
ATOM     10  C4  <0> d           3.735   2.641  -7.304  0.00  0.00     0.037 A 
ATOM     11  N2  <0> d           1.547   3.085  -7.347  0.00  0.00    -0.170 NA
ATOM     12  C3  <0> d           3.400   3.099  -8.529  0.00  0.00     0.055 A 
ATOM     13  C13 <0> d           5.112   2.228  -6.853  0.00  0.00     0.070 C 
ATOM     14  C2  <0> d           2.025   3.373  -8.528  0.00  0.00     0.053 A 
ATOM     15  C1  <0> d           1.232   3.909  -9.693  0.00  0.00     0.072 C 
ATOM     16  O1  <0> d           3.490   1.831  -4.681  0.00  0.00    -0.270 OA
ENDBRANCH   7   8
ENDBRANCH   6   7
ENDBRANCH   1   6
BRANCH   5  17
ATOM     17  N6  <0> d          -0.012   1.005   0.008  0.00  0.00    -0.335 N 
ATOM     18  H7  <0> d          -0.504   0.791   0.968  0.00  0.00     0.177 HD
ATOM     19  H8  <0> d           1.068   0.828  -0.108  0.00  0.00     0.177 HD
ENDBRANCH   5  17
BRANCH   4  20
ATOM     20  C9  <0> d          -3.042   1.595   0.090  0.00  0.00     0.013 C 
ATOM     21  C10 <0> d          -2.591   2.461   1.268  0.00  0.00     0.023 C 
ATOM     22  C11 <0> d          -4.443   2.022  -0.351  0.00  0.00     0.023 C 
ATOM     23  C12 <0> d          -3.067   0.126   0.517  0.00  0.00     0.023 C 
ENDBRANCH   4  20
TORSDOF 5
