REMARK  2 active torsions:
REMARK  status: ('A' for Active; 'I' for Inactive)
REMARK    1  A    between atoms: C5_6  and  C6_7 
REMARK       I    between atoms: C6_7  and  N1_9 
REMARK    2  A    between atoms: N1_9  and  C7_10 
ROOT
ATOM      1  C7  <0> d           2.466   6.646   1.183  0.00  0.00     0.174 A 
ATOM      2  N2  <0> d           2.918   7.334   2.205  0.00  0.00    -0.223 NA
ATOM      3  C8  <0> d           3.639   8.468   2.056  0.00  0.00     0.079 A 
ATOM      4  C9  <0> d           4.179   9.296   3.067  0.00  0.00     0.072 A 
ATOM      5  C10 <0> d           4.896  10.428   2.748  0.00  0.00     0.104 A 
ATOM      6  C11 <0> d           5.112  10.788   1.418  0.00  0.00     0.103 A 
ATOM      7  C12 <0> d           4.595   9.996   0.405  0.00  0.00     0.061 A 
ATOM      8  C13 <0> d           3.879   8.868   0.723  0.00  0.00     0.040 A 
ATOM      9  S1  <0> d           3.063   7.594  -0.209  0.00  0.00    -0.050 SA
ATOM     10  O3  <0> d           5.825  11.901   1.098  0.00  0.00    -0.346 OA
ATOM     11  C14 <0> d           6.009  12.868   2.139  0.00  0.00     0.202 C 
ATOM     12  C15 <0> d           6.428  12.124   3.414  0.00  0.00     0.202 C 
ATOM     13  O4  <0> d           5.390  11.201   3.758  0.00  0.00    -0.346 OA
ENDROOT
BRANCH   1  14
ATOM     14  N1  <0> d           1.721   5.478   1.183  0.00  0.00    -0.301 N 
ATOM     15  C6  <0> d           1.348   4.917   0.016  0.00  0.00     0.260 C 
ATOM     16  O2  <0> d           1.665   5.435  -1.037  0.00  0.00    -0.267 OA
ATOM     17  H4  <0> d           1.433   5.009   2.136  0.00  0.00     0.171 HD
BRANCH  15  18
ATOM     18  C5  <0> d           0.555   3.675   0.017  0.00  0.00     0.070 A 
ATOM     19  C2  <0> d           1.064   2.295   0.004  0.00  0.00    -0.014 A 
ATOM     20  C1  <0> d           2.507   1.861  -0.012  0.00  0.00     0.052 C 
ATOM     21  C3  <0> d          -0.018   1.503   0.010  0.00  0.00     0.056 A 
ATOM     22  O1  <0> d          -1.122   2.266   0.019  0.00  0.00    -0.319 OA
ATOM     23  C17 <0> d           0.002  -0.004   0.002  0.00  0.00     0.077 C 
ATOM     24  C4  <0> d          -0.805   3.564   0.029  0.00  0.00     0.065 A 
ATOM     25  C16 <0> d          -1.782   4.711   0.044  0.00  0.00     0.078 C 
ENDBRANCH  15  18
ENDBRANCH   1  14
TORSDOF 2
