REMARK  7 active torsions:
REMARK  status: ('A' for Active; 'I' for Inactive)
REMARK    1  A    between atoms: O1_2  and  C2_3 
REMARK    2  A    between atoms: C2_3  and  C3_4 
REMARK    3  A    between atoms: C3_4  and  N1_5 
REMARK    4  A    between atoms: N1_5  and  C4_6 
REMARK    5  A    between atoms: N1_5  and  S1_9 
REMARK    6  A    between atoms: S1_9  and  C7_12 
REMARK    7  A    between atoms: C12_17  and  N2_18 
ROOT
ATOM      1  S1  <0> d           0.609  -3.032   1.381  0.00  0.00     0.263 S 
ATOM      2  O2  <0> d           0.963  -4.366   1.717  0.00  0.00    -0.200 OA
ATOM      3  O3  <0> d           0.872  -2.472   0.102  0.00  0.00    -0.200 OA
ENDROOT
BRANCH   1   4
ATOM      4  N1  <0> d          -1.024  -2.900   1.629  0.00  0.00    -0.300 N 
BRANCH   4   5
ATOM      5  C3  <0> d          -1.833  -2.060   0.742  0.00  0.00     0.162 C 
BRANCH   5   6
ATOM      6  C2  <0> d          -2.407  -2.916  -0.388  0.00  0.00     0.187 C 
BRANCH   6   7
ATOM      7  O1  <0> d          -3.366  -3.831   0.147  0.00  0.00    -0.394 OA
ATOM      8  C1  <0> d          -3.887  -4.753  -0.812  0.00  0.00     0.201 C 
ENDBRANCH   6   7
ENDBRANCH   5   6
ENDBRANCH   4   5
BRANCH   4   9
ATOM      9  C4  <0> d          -1.658  -3.623   2.734  0.00  0.00     0.096 A 
ATOM     10  C6  <0> d          -2.266  -2.791   3.865  0.00  0.00     0.028 A 
ATOM     11  C5  <0> d          -3.178  -3.512   2.870  0.00  0.00     0.028 A 
ENDBRANCH   4   9
ENDBRANCH   1   4
BRANCH   1  12
ATOM     12  C7  <0> d           1.400  -1.988   2.560  0.00  0.00     0.105 A 
ATOM     13  C12 <0> d           1.279  -0.609   2.459  0.00  0.00     0.050 A 
ATOM     14  C11 <0> d           1.900   0.211   3.393  0.00  0.00     0.049 A 
ATOM     15  C10 <0> d           2.646  -0.349   4.413  0.00  0.00     0.013 A 
ATOM     16  C9  <0> d           2.768  -1.724   4.507  0.00  0.00     0.021 A 
ATOM     17 Br1  <0> d           3.498   0.765   5.681  0.00  0.00    -0.051 Br
ATOM     18  C8  <0> d           2.146  -2.542   3.582  0.00  0.00     0.029 A 
BRANCH  13  19
ATOM     19  N2  <0> d           0.530  -0.046   1.423  0.00  0.00    -0.398 N 
ATOM     20  H16 <0> d           0.157  -0.613   0.731  0.00  0.00     0.156 HD
ATOM     21  H17 <0> d           0.383   0.913   1.396  0.00  0.00     0.156 HD
ENDBRANCH  13  19
ENDBRANCH   1  12
TORSDOF 7
