REMARK  5 active torsions:
REMARK  status: ('A' for Active; 'I' for Inactive)
REMARK    1  A    between atoms: C3_4  and  C5_7 
REMARK    2  A    between atoms: C7_9  and  C9_13 
REMARK       I    between atoms: C9_13  and  N3_15 
REMARK    3  A    between atoms: N3_15  and  C10_16 
REMARK    4  A    between atoms: C10_16  and  C11_17 
REMARK    5  A    between atoms: C11_17  and  N4_19 
ROOT
ATOM      1  C9  <0> d          -5.745  -3.891   0.334  0.00  0.00     0.268 C 
ATOM      2  O1  <0> d          -6.505  -2.941   0.360  0.00  0.00    -0.266 OA
ATOM      3  N3  <0> d          -6.223  -5.131   0.106  0.00  0.00    -0.354 N 
ATOM      4  H9  <0> d          -5.618  -5.888   0.085  0.00  0.00     0.162 HD
ENDROOT
BRANCH   1   5
ATOM      5  C7  <0> d          -4.309  -3.687   0.549  0.00  0.00     0.101 A 
ATOM      6  C6  <0> d          -3.694  -2.490   0.788  0.00  0.00     0.050 A 
ATOM      7  C5  <0> d          -2.318  -2.751   0.934  0.00  0.00     0.011 A 
ATOM      8  C8  <0> d          -2.136  -4.094   0.774  0.00  0.00     0.102 A 
ATOM      9  N2  <0> d          -3.343  -4.668   0.545  0.00  0.00    -0.361 N 
ATOM     10  H1  <0> d          -3.499  -5.614   0.399  0.00  0.00     0.165 HD
BRANCH   7  11
ATOM     11  C3  <0> d          -1.258  -1.746   1.206  0.00  0.00     0.075 A 
ATOM     12  N1  <0> d          -1.546  -0.475   1.443  0.00  0.00    -0.245 NA
ATOM     13  C2  <0> d          -0.607   0.403   1.681  0.00  0.00     0.071 A 
ATOM     14  C1  <0> d          -0.755   1.875   1.968  0.00  0.00     0.078 C 
ATOM     15  S1  <0> d           0.808  -0.502   1.585  0.00  0.00    -0.085 SA
ATOM     16  C4  <0> d           0.067  -2.086   1.225  0.00  0.00     0.084 A 
ENDBRANCH   7  11
ENDBRANCH   1   5
BRANCH   3  17
ATOM     17  C10 <0> d          -7.658  -5.334  -0.108  0.00  0.00     0.155 C 
BRANCH  17  18
ATOM     18  C11 <0> d          -7.951  -6.833  -0.209  0.00  0.00     0.202 C 
ATOM     19  C12 <0> d          -9.460  -7.050  -0.342  0.00  0.00     0.042 C 
BRANCH  18  20
ATOM     20  N4  <0> d          -7.464  -7.509   1.001  0.00  0.00    -0.066 N 
ATOM     21  C17 <0> d          -8.238  -7.050   2.161  0.00  0.00     0.235 C 
ATOM     22  C16 <0> d          -7.681  -7.690   3.435  0.00  0.00     0.032 C 
ATOM     23  C15 <0> d          -7.785  -9.213   3.321  0.00  0.00    -0.015 C 
ATOM     24  C14 <0> d          -7.037  -9.674   2.067  0.00  0.00     0.032 C 
ATOM     25  C18 <0> d          -7.158  -9.862   4.557  0.00  0.00     0.010 C 
ATOM     26  C13 <0> d          -7.617  -8.960   0.843  0.00  0.00     0.235 C 
ATOM     27  H27 <0> d          -6.489  -7.288   1.139  0.00  0.00     0.280 HD
ENDBRANCH  18  20
ENDBRANCH  17  18
ENDBRANCH   3  17
TORSDOF 5
