REMARK  6 active torsions:
REMARK  status: ('A' for Active; 'I' for Inactive)
REMARK    1  A    between atoms: O1_2  and  C2_3 
REMARK    2  A    between atoms: C9_10  and  C11_15 
REMARK    3  A    between atoms: C11_15  and  C12_16 
REMARK    4  A    between atoms: C11_15  and  N6_27 
REMARK    5  A    between atoms: N5_20  and  C13_21 
REMARK    6  A    between atoms: C13_21  and  C14_22 
ROOT
ATOM      1  C11 <0> d           2.144  -6.135   3.427  0.00  0.00     0.299 C 
ENDROOT
BRANCH   1   2
ATOM      2  C9  <0> d           2.044  -4.636   3.310  0.00  0.00     0.049 A 
ATOM      3  C8  <0> d           1.409  -4.083   2.248  0.00  0.00     0.029 A 
ATOM      4  C6  <0> d           1.328  -2.623   2.163  0.00  0.00    -0.006 A 
ATOM      5  C5  <0> d           1.910  -1.847   3.183  0.00  0.00     0.045 A 
ATOM      6  C7  <0> d           0.679  -1.997   1.093  0.00  0.00     0.050 A 
ATOM      7  C4  <0> d           1.840  -0.460   3.114  0.00  0.00     0.033 A 
ATOM      8  N1  <0> d           2.542  -2.473   4.238  0.00  0.00    -0.322 N 
ATOM      9  C3  <0> d           1.203   0.146   2.053  0.00  0.00     0.039 A 
ATOM     10  C2  <0> d           0.626  -0.619   1.042  0.00  0.00     0.069 A 
ATOM     11  C10 <0> d           2.611  -3.813   4.306  0.00  0.00     0.254 A 
ATOM     12  H1  <0> d           2.943  -1.937   4.940  0.00  0.00     0.169 HD
ATOM     13  O2  <0> d           3.178  -4.332   5.253  0.00  0.00    -0.268 OA
BRANCH  10  14
ATOM     14  O1  <0> d           0.002  -0.004   0.002  0.00  0.00    -0.356 OA
ATOM     15  C1  <0> d          -0.017   1.425   0.010  0.00  0.00     0.210 C 
ENDBRANCH  10  14
ENDBRANCH   1   2
BRANCH   1  16
ATOM     16  C12 <0> d           3.590  -6.551   3.330  0.00  0.00     0.183 A 
ATOM     17  N5  <0> d           4.190  -7.128   2.273  0.00  0.00    -0.230 N 
ATOM     18  N4  <0> d           5.425  -7.319   2.595  0.00  0.00    -0.044 NA
ATOM     19  N3  <0> d           5.610  -6.898   3.798  0.00  0.00    -0.023 NA
ATOM     20  N2  <0> d           4.504  -6.427   4.261  0.00  0.00    -0.111 NA
BRANCH  17  21
ATOM     21  C13 <0> d           3.562  -7.471   0.995  0.00  0.00     0.186 C 
BRANCH  21  22
ATOM     22  C14 <0> d           3.684  -6.287   0.033  0.00  0.00     0.141 C 
ATOM     23  O3  <0> d           5.059  -6.077  -0.307  0.00  0.00    -0.384 OA
ATOM     24  C17 <0> d           5.247  -6.264  -1.721  0.00  0.00     0.168 C 
ATOM     25  C16 <0> d           3.860  -5.992  -2.353  0.00  0.00     0.029 C 
ATOM     26  C15 <0> d           2.920  -6.593  -1.273  0.00  0.00     0.036 C 
ENDBRANCH  21  22
ENDBRANCH  17  21
ENDBRANCH   1  16
BRANCH   1  27
ATOM     27  N6  <0> d           1.598  -6.563   4.722  0.00  0.00    -0.056 N 
ATOM     28  C22 <0> d           0.190  -6.157   4.815  0.00  0.00     0.236 C 
ATOM     29  C21 <0> d          -0.361  -6.528   6.194  0.00  0.00     0.028 C 
ATOM     30  C20 <0> d          -0.251  -8.042   6.391  0.00  0.00     0.003 C 
ATOM     31  C19 <0> d           1.211  -8.465   6.218  0.00  0.00     0.028 C 
ATOM     32  C18 <0> d           1.704  -8.022   4.839  0.00  0.00     0.236 C 
ATOM     33  H29 <0> d           2.122  -6.129   5.467  0.00  0.00     0.281 HD
ENDBRANCH   1  27
TORSDOF 6
