REMARK  7 active torsions:
REMARK  status: ('A' for Active; 'I' for Inactive)
REMARK    1  A    between atoms: C2_2  and  C4_4 
REMARK    2  A    between atoms: C4_4  and  C5_5 
REMARK    3  A    between atoms: C5_5  and  C6_6 
REMARK    4  A    between atoms: C5_5  and  N3_18 
REMARK       I    between atoms: C6_6  and  N1_8 
REMARK    5  A    between atoms: N1_8  and  C7_9 
REMARK    6  A    between atoms: C7_9  and  C8_10 
REMARK    7  A    between atoms: C12_14  and  N2_15 
REMARK       I    between atoms: N3_18  and  C15_19 
ROOT
ATOM      1  C6  <0> d           1.140  -3.810   1.931  0.00  0.00     0.240 C 
ATOM      2  O1  <0> d           1.707  -4.386   1.027  0.00  0.00    -0.271 OA
ATOM      3  N1  <0> d           0.066  -3.039   1.671  0.00  0.00    -0.355 N 
ATOM      4  H11 <0> d          -0.388  -2.579   2.394  0.00  0.00     0.162 HD
ENDROOT
BRANCH   3   5
ATOM      5  C7  <0> d          -0.417  -2.896   0.295  0.00  0.00     0.164 C 
BRANCH   5   6
ATOM      6  C8  <0> d          -1.689  -2.088   0.290  0.00  0.00    -0.002 A 
ATOM      7  C12 <0> d          -1.644  -0.702   0.401  0.00  0.00     0.089 A 
ATOM      8  N4  <0> d          -2.756   0.089   0.408  0.00  0.00    -0.356 N 
ATOM      9  C11 <0> d          -3.945  -0.560   0.288  0.00  0.00     0.089 A 
ATOM     10  H27 <0> d          -2.698   1.110   0.499  0.00  0.00     0.166 HD
ATOM     11  C10 <0> d          -4.063  -1.931   0.175  0.00  0.00     0.018 A 
ATOM     12  C9  <0> d          -2.917  -2.714   0.175  0.00  0.00     0.013 A 
BRANCH   7  13
ATOM     13  N2  <0> d          -0.417  -0.059   0.517  0.00  0.00    -0.277 NA
ATOM     14  C13 <0> d          -0.253   0.957  -0.530  0.00  0.00     0.118 C 
ATOM     15  C14 <0> d          -0.256   0.530   1.853  0.00  0.00     0.118 C 
ENDBRANCH   7  13
ENDBRANCH   5   6
ENDBRANCH   3   5
BRANCH   1  16
ATOM     16  C5  <0> d           1.636  -3.958   3.347  0.00  0.00     0.177 C 
BRANCH  16  17
ATOM     17  C4  <0> d           2.471  -2.733   3.724  0.00  0.00     0.038 C 
BRANCH  17  18
ATOM     18  C2  <0> d           2.909  -2.845   5.186  0.00  0.00    -0.020 C 
ATOM     19  C1  <0> d           3.854  -1.691   5.526  0.00  0.00     0.009 C 
ATOM     20  C3  <0> d           1.679  -2.780   6.093  0.00  0.00     0.009 C 
ENDBRANCH  17  18
ENDBRANCH  16  17
BRANCH  16  21
ATOM     21  N3  <0> d           2.462  -5.163   3.452  0.00  0.00    -0.348 N 
ATOM     22  C15 <0> d           3.575  -5.285   2.702  0.00  0.00     0.214 C 
ATOM     23  O2  <0> d           3.893  -4.396   1.940  0.00  0.00    -0.274 OA
ATOM     24  C16 <0> d           4.425  -6.525   2.810  0.00  0.00     0.117 C 
ATOM     25  H23 <0> d           2.207  -5.874   4.061  0.00  0.00     0.163 HD
ENDBRANCH  16  21
ENDBRANCH   1  16
TORSDOF 7
