REMARK  5 active torsions:
REMARK  status: ('A' for Active; 'I' for Inactive)
REMARK    1  A    between atoms: C4_5  and  C5_6 
REMARK       I    between atoms: C5_6  and  N1_8 
REMARK    2  A    between atoms: N1_8  and  C6_9 
REMARK    3  A    between atoms: C7_12  and  C8_14 
REMARK    4  A    between atoms: C8_14  and  C9_15 
REMARK    5  A    between atoms: C9_15  and  C10_16 
ROOT
ATOM      1  C6  <0> d          -2.126  -3.051   0.007  0.00  0.00     0.196 A 
ATOM      2  N2  <0> d          -3.417  -2.748   0.015  0.00  0.00    -0.123 NA
ATOM      3  N3  <0> d          -4.309  -3.640   0.020  0.00  0.00    -0.145 NA
ATOM      4  C7  <0> d          -4.017  -4.925   0.018  0.00  0.00     0.101 A 
ATOM      5  S1  <0> d          -2.229  -4.838  -0.002  0.00  0.00    -0.033 SA
ENDROOT
BRANCH   1   6
ATOM      6  N1  <0> d          -1.013  -2.219   0.000  0.00  0.00    -0.298 N 
ATOM      7  C5  <0> d          -1.172  -0.881   0.009  0.00  0.00     0.281 C 
ATOM      8  O2  <0> d          -2.290  -0.401   0.023  0.00  0.00    -0.265 OA
ATOM      9  H3  <0> d          -0.122  -2.602  -0.011  0.00  0.00     0.171 HD
BRANCH   7  10
ATOM     10  C4  <0> d           0.002  -0.004   0.002  0.00  0.00     0.144 A 
ATOM     11  C1  <0> d          -0.017   1.362   0.009  0.00  0.00     0.046 A 
ATOM     12  C2  <0> d           1.321   1.784  -0.001  0.00  0.00     0.048 A 
ATOM     13  C3  <0> d           2.090   0.671  -0.014  0.00  0.00     0.122 A 
ATOM     14  O1  <0> d           1.291  -0.404  -0.012  0.00  0.00    -0.298 OA
ATOM     15 Br1  <0> d           3.981   0.638  -0.034  0.00  0.00    -0.023 Br
ENDBRANCH   7  10
ENDBRANCH   1   6
BRANCH   4  16
ATOM     16  C8  <0> d          -4.928  -6.125   0.023  0.00  0.00     0.079 C 
BRANCH  16  17
ATOM     17  C9  <0> d          -5.246  -6.531  -1.418  0.00  0.00     0.120 C 
BRANCH  17  18
ATOM     18  C10 <0> d          -6.157  -7.731  -1.412  0.00  0.00     0.172 C 
ATOM     19  O3  <0> d          -6.519  -8.217  -0.354  0.00  0.00    -0.648 OA
ATOM     20  O4  <0> d          -6.533  -8.216  -2.466  0.00  0.00    -0.648 OA
ENDBRANCH  17  18
ENDBRANCH  16  17
ENDBRANCH   4  16
TORSDOF 5
