REMARK  4 active torsions:
REMARK  status: ('A' for Active; 'I' for Inactive)
REMARK    1  A    between atoms: C3_3  and  S2_15 
REMARK    2  A    between atoms: N1_5  and  C5_7 
REMARK    3  A    between atoms: S2_15  and  N3_18 
REMARK    4  A    between atoms: N3_18  and  C10_19 
ROOT
ATOM      1  C1  <0> d           1.606   5.633   3.762  0.00  0.00     0.074 C 
ATOM      2  C2  <0> d           1.842   4.956   2.437  0.00  0.00     0.076 A 
ATOM      3  C3  <0> d           2.365   5.559   1.289  0.00  0.00     0.129 A 
ATOM      4  C4  <0> d           2.421   4.622   0.315  0.00  0.00     0.052 A 
ATOM      5  N1  <0> d           1.950   3.466   0.828  0.00  0.00    -0.267 N 
ATOM      6  N2  <0> d           1.588   3.702   2.161  0.00  0.00    -0.175 NA
ATOM      7  C9  <0> d           2.919   4.831  -1.092  0.00  0.00     0.072 C 
ENDROOT
BRANCH   3   8
ATOM      8  S2  <0> d           2.862   7.243   1.137  0.00  0.00     0.267 S 
ATOM      9  O3  <0> d           3.166   7.696   2.449  0.00  0.00    -0.200 OA
ATOM     10  O4  <0> d           3.805   7.294   0.076  0.00  0.00    -0.200 OA
BRANCH   8  11
ATOM     11  N3  <0> d           1.538   8.101   0.635  0.00  0.00    -0.279 N 
ATOM     12  H14 <0> d           1.550   8.553  -0.223  0.00  0.00     0.179 HD
BRANCH  11  13
ATOM     13  C10 <0> d           0.404   8.175   1.448  0.00  0.00     0.064 A 
ATOM     14  C15 <0> d          -0.863   8.193   0.876  0.00  0.00     0.061 A 
ATOM     15  C14 <0> d          -1.983   8.261   1.683  0.00  0.00     0.026 A 
ATOM     16 Cl1  <0> d          -1.038   8.126  -0.850  0.00  0.00    -0.082 Cl
ATOM     17  C13 <0> d          -1.843   8.320   3.058  0.00  0.00     0.002 A 
ATOM     18  C12 <0> d          -0.584   8.307   3.629  0.00  0.00     0.002 A 
ATOM     19  C11 <0> d           0.539   8.235   2.829  0.00  0.00     0.032 A 
ENDBRANCH  11  13
ENDBRANCH   8  11
ENDBRANCH   3   8
BRANCH   5  20
ATOM     20  C5  <0> d           1.833   2.191   0.116  0.00  0.00     0.125 C 
ATOM     21  C8  <0> d           0.351   1.745   0.101  0.00  0.00     0.167 C 
ATOM     22  S1  <0> d           0.480  -0.089   0.128  0.00  0.00     0.146 S 
ATOM     23  C7  <0> d           2.311  -0.264   0.250  0.00  0.00     0.142 C 
ATOM     24  O1  <0> d          -0.111  -0.577   1.325  0.00  0.00    -0.228 OA
ATOM     25  O2  <0> d           0.049  -0.602  -1.125  0.00  0.00    -0.228 OA
ATOM     26  C6  <0> d           2.692   1.130   0.824  0.00  0.00     0.043 C 
ENDBRANCH   5  20
TORSDOF 4
