REMARK  5 active torsions:
REMARK  status: ('A' for Active; 'I' for Inactive)
REMARK    1  A    between atoms: C3_3  and  O5_26 
REMARK    2  A    between atoms: C4_4  and  N1_30 
REMARK    3  A    between atoms: C6_6  and  O2_8 
REMARK    4  A    between atoms: O2_8  and  C7_9 
REMARK    5  A    between atoms: C7_9  and  C8_10 
ROOT
ATOM      1  C8  <0> d          -2.566   8.120   0.071  0.00  0.00    -0.034 A 
ATOM      2  C9  <0> d          -3.757   7.417   0.078  0.00  0.00     0.010 A 
ATOM      3  C10 <0> d          -3.754   6.033   0.070  0.00  0.00     0.017 A 
ATOM      4  C11 <0> d          -2.545   5.342   0.055  0.00  0.00     0.029 A 
ATOM      5  C12 <0> d          -1.335   6.057   0.047  0.00  0.00     0.030 A 
ATOM      6  C13 <0> d          -1.356   7.449   0.056  0.00  0.00     0.025 A 
ATOM      7  C14 <0> d          -0.047   5.332   0.032  0.00  0.00     0.194 A 
ATOM      8  O3  <0> d           0.999   5.950   0.026  0.00  0.00    -0.287 OA
ATOM      9  C15 <0> d          -0.034   3.854   0.024  0.00  0.00     0.029 A 
ATOM     10  C16 <0> d           1.175   3.163   0.008  0.00  0.00     0.016 A 
ATOM     11  C17 <0> d           1.178   1.779   0.000  0.00  0.00     0.001 A 
ATOM     12  C18 <0> d          -0.013   1.076   0.008  0.00  0.00     0.001 A 
ATOM     13  C19 <0> d          -1.223   1.747   0.017  0.00  0.00     0.016 A 
ATOM     14  C20 <0> d          -1.244   3.139   0.031  0.00  0.00     0.029 A 
ATOM     15  C21 <0> d          -2.532   3.864   0.046  0.00  0.00     0.194 A 
ATOM     16  O4  <0> d          -3.578   3.246   0.052  0.00  0.00    -0.287 OA
ENDROOT
BRANCH   1  17
ATOM     17  C7  <0> d          -2.587   9.627   0.080  0.00  0.00     0.209 C 
BRANCH  17  18
ATOM     18  O2  <0> d          -2.606  10.111  -1.265  0.00  0.00    -0.357 OA
BRANCH  18  19
ATOM     19  C6  <0> d          -2.626  11.536  -1.369  0.00  0.00     0.262 C 
ATOM     20  C5  <0> d          -2.520  11.941  -2.841  0.00  0.00     0.096 C 
ATOM     21  C4  <0> d          -2.603  13.467  -2.950  0.00  0.00     0.219 C 
ATOM     22  C3  <0> d          -3.910  13.943  -2.309  0.00  0.00     0.177 C 
ATOM     23  C2  <0> d          -3.963  13.460  -0.857  0.00  0.00     0.151 C 
ATOM     24  C1  <0> d          -5.293  13.880  -0.228  0.00  0.00     0.042 C 
ATOM     25  O1  <0> d          -3.850  12.036  -0.826  0.00  0.00    -0.354 OA
BRANCH  21  26
ATOM     26  N1  <0> d          -2.576  13.886  -4.362  0.00  0.00    -0.072 N 
ATOM     27  H19 <0> d          -1.724  13.552  -4.810  0.00  0.00     0.274 HD
ATOM     28  H20 <0> d          -3.386  13.512  -4.854  0.00  0.00     0.274 HD
ATOM     29  H22 <0> d          -2.599  14.912  -4.411  0.00  0.00     0.274 HD
ENDBRANCH  21  26
BRANCH  22  30
ATOM     30  O5  <0> d          -3.965  15.371  -2.340  0.00  0.00    -0.391 OA
ATOM     31  H21 <0> d          -4.768  15.742  -1.949  0.00  0.00     0.210 HD
ENDBRANCH  22  30
ENDBRANCH  18  19
ENDBRANCH  17  18
ENDBRANCH   1  17
TORSDOF 5
