REMARK  7 active torsions:
REMARK  status: ('A' for Active; 'I' for Inactive)
REMARK    1  A    between atoms: O1_2  and  C2_3 
REMARK    2  A    between atoms: C5_6  and  O5_30 
REMARK    3  A    between atoms: C6_7  and  C8_9 
REMARK    4  A    between atoms: C9_10  and  C13_21 
REMARK    5  A    between atoms: C10_11  and  C12_16 
REMARK    6  A    between atoms: C11_13  and  O2_15 
REMARK    7  A    between atoms: C13_21  and  C14_23 
ROOT
ATOM      1  C8  <0> d           1.460  -3.898  -2.247  0.00  0.00     0.138 C 
ATOM      2  C9  <0> d           2.817  -4.398  -1.729  0.00  0.00     0.156 C 
ATOM      3  C10 <0> d           2.867  -4.180  -0.215  0.00  0.00     0.282 C 
ATOM      4  N1  <0> d           1.660  -4.701   0.418  0.00  0.00    -0.314 N 
ATOM      5  C11 <0> d           0.554  -4.911  -0.211  0.00  0.00     0.215 C 
ATOM      6  N2  <0> d           0.414  -4.669  -1.557  0.00  0.00    -0.347 N 
ATOM      7  O3  <0> d           2.975  -2.782   0.057  0.00  0.00    -0.194 OA
ATOM      8  H9  <0> d          -0.357  -5.000  -2.043  0.00  0.00     0.163 HD
ATOM      9  H18 <0> d           1.692  -4.902   1.367  0.00  0.00     0.166 HD
ENDROOT
BRANCH   1  10
ATOM     10  C6  <0> d           1.303  -2.431  -1.938  0.00  0.00     0.002 A 
ATOM     11  C5  <0> d           1.809  -1.481  -2.812  0.00  0.00     0.076 A 
ATOM     12  C4  <0> d           1.664  -0.131  -2.528  0.00  0.00     0.040 A 
ATOM     13  C3  <0> d           1.016   0.267  -1.375  0.00  0.00     0.039 A 
ATOM     14  C2  <0> d           0.509  -0.684  -0.501  0.00  0.00     0.069 A 
ATOM     15  C7  <0> d           0.659  -2.034  -0.782  0.00  0.00     0.048 A 
BRANCH  11  16
ATOM     16  O5  <0> d           2.447  -1.872  -3.948  0.00  0.00    -0.355 OA
ATOM     17  C20 <0> d           2.942  -0.840  -4.802  0.00  0.00     0.210 C 
ENDBRANCH  11  16
BRANCH  14  18
ATOM     18  O1  <0> d          -0.129  -0.292   0.633  0.00  0.00    -0.356 OA
ATOM     19  C1  <0> d          -0.248   1.114   0.859  0.00  0.00     0.210 C 
ENDBRANCH  14  18
ENDBRANCH   1  10
BRANCH   2  20
ATOM     20  C13 <0> d           2.969  -5.865  -2.036  0.00  0.00     0.171 C 
ATOM     21  O4  <0> d           2.167  -6.663  -1.598  0.00  0.00    -0.292 OA
BRANCH  20  22
ATOM     22  C14 <0> d           4.088  -6.331  -2.868  0.00  0.00     0.011 A 
ATOM     23  C19 <0> d           4.184  -7.680  -3.226  0.00  0.00     0.018 A 
ATOM     24  C18 <0> d           5.232  -8.108  -4.011  0.00  0.00     0.043 A 
ATOM     25  C17 <0> d           6.197  -7.207  -4.436  0.00  0.00     0.116 A 
ATOM     26  C16 <0> d           6.111  -5.869  -4.079  0.00  0.00     0.043 A 
ATOM     27  F4  <0> d           7.226  -7.635  -5.201  0.00  0.00    -0.206 F 
ATOM     28  C15 <0> d           5.065  -5.427  -3.300  0.00  0.00     0.018 A 
ENDBRANCH  20  22
ENDBRANCH   2  20
BRANCH   5  29
ATOM     29  O2  <0> d          -0.507  -5.386   0.478  0.00  0.00    -0.333 OA
ATOM     30  H10 <0> d          -0.332  -5.531   1.418  0.00  0.00     0.220 HD
ENDBRANCH   5  29
BRANCH   3  31
ATOM     31  C12 <0> d           4.088  -4.901   0.359  0.00  0.00     0.442 C 
ATOM     32  F1  <0> d           5.238  -4.481  -0.319  0.00  0.00    -0.166 F 
ATOM     33  F2  <0> d           4.212  -4.598   1.719  0.00  0.00    -0.166 F 
ATOM     34  F3  <0> d           3.932  -6.282   0.201  0.00  0.00    -0.166 F 
ENDBRANCH   3  31
TORSDOF 7
