REMARK  4 active torsions:
REMARK  status: ('A' for Active; 'I' for Inactive)
REMARK    1  A    between atoms: C7_7  and  C8_8 
REMARK    2  A    between atoms: C7_7  and  N3_27 
REMARK       I    between atoms: C8_8  and  N1_10 
REMARK    3  A    between atoms: N1_10  and  C9_11 
REMARK    4  A    between atoms: C10_12  and  C17_20 
REMARK       I    between atoms: C17_20  and  N2_22 
ROOT
ATOM      1  C9  <0> d           1.346  -0.296  -5.975  0.00  0.00     0.093 A 
ATOM      2  C10 <0> d           1.548  -0.586  -7.317  0.00  0.00     0.072 A 
ATOM      3  C11 <0> d           0.465  -0.289  -8.238  0.00  0.00    -0.026 A 
ATOM      4  C12 <0> d          -0.640   0.246  -7.675  0.00  0.00    -0.008 A 
ATOM      5  S1  <0> d          -0.261   0.351  -5.948  0.00  0.00    -0.075 SA
ATOM      6  C13 <0> d          -1.903   0.651  -8.370  0.00  0.00     0.047 C 
ATOM      7  C14 <0> d          -1.625   0.717  -9.879  0.00  0.00     0.005 C 
ATOM      8  C15 <0> d          -0.890  -0.558 -10.301  0.00  0.00     0.005 C 
ATOM      9  C16 <0> d           0.533  -0.549  -9.738  0.00  0.00     0.041 C 
ENDROOT
BRANCH   1  10
ATOM     10  N1  <0> d           2.216  -0.485  -4.912  0.00  0.00    -0.319 N 
ATOM     11  C8  <0> d           1.841  -0.140  -3.664  0.00  0.00     0.248 C 
ATOM     12  O1  <0> d           0.742   0.335  -3.471  0.00  0.00    -0.271 OA
ATOM     13  H14 <0> d           3.095  -0.865  -5.066  0.00  0.00     0.169 HD
BRANCH  11  14
ATOM     14  C7  <0> d           2.787  -0.345  -2.509  0.00  0.00     0.337 C 
BRANCH  14  15
ATOM     15  N3  <0> d           2.181   0.230  -1.290  0.00  0.00    -0.062 N 
ATOM     16  C5  <0> d           2.116   1.702  -1.405  0.00  0.00     0.239 C 
ATOM     17  C4  <0> d           1.379   2.263  -0.187  0.00  0.00     0.008 C 
ATOM     18  C3  <0> d           2.139   1.878   1.085  0.00  0.00     0.011 C 
ATOM     19  C18 <0> d           1.302   3.788  -0.293  0.00  0.00     0.011 C 
ATOM     20  C2  <0> d           2.264   0.353   1.154  0.00  0.00     0.008 C 
ATOM     21  C1  <0> d           0.869  -0.270   1.237  0.00  0.00     0.011 C 
ATOM     22  C6  <0> d           2.975  -0.152  -0.103  0.00  0.00     0.239 C 
ATOM     23  H28 <0> d           1.228  -0.138  -1.187  0.00  0.00     0.280 HD
ENDBRANCH  14  15
ENDBRANCH  11  14
ENDBRANCH   1  10
BRANCH   2  24
ATOM     24  C17 <0> d           2.808  -1.170  -7.787  0.00  0.00     0.252 C 
ATOM     25  O2  <0> d           2.939  -2.379  -7.832  0.00  0.00    -0.268 OA
ATOM     26  N2  <0> d           3.821  -0.367  -8.169  0.00  0.00    -0.366 N 
ATOM     27  H23 <0> d           3.717   0.596  -8.133  0.00  0.00     0.159 HD
ATOM     28  H24 <0> d           4.655  -0.754  -8.480  0.00  0.00     0.159 HD
ENDBRANCH   2  24
TORSDOF 4
