REMARK  3 active torsions:
REMARK  status: ('A' for Active; 'I' for Inactive)
REMARK    1  A    between atoms: C4_4  and  N1_7 
REMARK    2  A    between atoms: C9_11  and  C10_12 
REMARK    3  A    between atoms: C15_17  and  O1_18 
ROOT
ATOM      1  N1  <0> d           3.895  -0.832  -1.416  0.00  0.00    -0.252 N 
ATOM      2  C7  <0> d           4.013  -2.147  -1.145  0.00  0.00     0.138 A 
ATOM      3  S1  <0> d           2.898  -3.383  -1.548  0.00  0.00    -0.057 SA
ATOM      4  C8  <0> d           5.288  -2.308  -0.435  0.00  0.00     0.076 A 
ATOM      5  C9  <0> d           5.829  -3.460   0.037  0.00  0.00     0.047 C 
ATOM      6  N2  <0> d           5.827  -1.017  -0.350  0.00  0.00    -0.305 N 
ATOM      7  C16 <0> d           4.968  -0.174  -0.951  0.00  0.00     0.333 A 
ATOM      8  O2  <0> d           5.140   1.025  -1.055  0.00  0.00    -0.246 OA
ATOM      9  H12 <0> d           6.670  -0.776   0.064  0.00  0.00     0.171 HD
ENDROOT
BRANCH   5  10
ATOM     10  C10 <0> d           5.034  -4.694   0.048  0.00  0.00    -0.001 A 
ATOM     11  C15 <0> d           5.588  -5.896  -0.424  0.00  0.00     0.075 A 
ATOM     12  C14 <0> d           4.830  -7.055  -0.404  0.00  0.00     0.037 A 
ATOM     13  C13 <0> d           3.531  -7.026   0.068  0.00  0.00     0.003 A 
ATOM     14  C12 <0> d           2.978  -5.842   0.530  0.00  0.00     0.001 A 
ATOM     15  C11 <0> d           3.718  -4.680   0.523  0.00  0.00     0.014 A 
BRANCH  11  16
ATOM     16  O1  <0> d           6.861  -5.922  -0.893  0.00  0.00    -0.360 OA
ATOM     17  H11 <0> d           7.526  -6.113  -0.217  0.00  0.00     0.217 HD
ENDBRANCH  11  16
ENDBRANCH   5  10
BRANCH   1  18
ATOM     18  C4  <0> d           2.817  -0.241  -2.088  0.00  0.00     0.045 A 
ATOM     19  C3  <0> d           1.565  -0.194  -1.490  0.00  0.00     0.030 A 
ATOM     20  C2  <0> d           0.505   0.390  -2.155  0.00  0.00     0.002 A 
ATOM     21  C1  <0> d           0.689   0.927  -3.416  0.00  0.00     0.000 A 
ATOM     22  C6  <0> d           1.935   0.882  -4.014  0.00  0.00     0.002 A 
ATOM     23  C5  <0> d           2.999   0.300  -3.354  0.00  0.00     0.030 A 
ENDBRANCH   1  18
TORSDOF 3
