REMARK  5 active torsions:
REMARK  status: ('A' for Active; 'I' for Inactive)
REMARK    1  A    between atoms: C4_5  and  C6_7 
REMARK    2  A    between atoms: C6_7  and  N2_8 
REMARK    3  A    between atoms: C9_11  and  N3_14 
REMARK    4  A    between atoms: C12_15  and  C13_16 
REMARK    5  A    between atoms: C18_21  and  O1_22 
ROOT
ATOM      1  N2  <0> d           1.356  -2.668  -1.399  0.00  0.00    -0.066 N 
ATOM      2  C7  <0> d           2.639  -2.229  -1.958  0.00  0.00     0.237 C 
ATOM      3  C8  <0> d           2.732  -2.653  -3.426  0.00  0.00     0.052 C 
ATOM      4  C9  <0> d           2.629  -4.178  -3.518  0.00  0.00     0.084 C 
ATOM      5  C10 <0> d           1.321  -4.632  -2.864  0.00  0.00     0.052 C 
ATOM      6  C11 <0> d           1.280  -4.134  -1.418  0.00  0.00     0.237 C 
ATOM      7  H22 <0> d           0.602  -2.287  -1.950  0.00  0.00     0.280 HD
ENDROOT
BRANCH   4   8
ATOM      8  N3  <0> d           2.641  -4.586  -4.925  0.00  0.00    -0.393 N 
ATOM      9  C12 <0> d           3.572  -5.370  -5.364  0.00  0.00     0.097 C 
ATOM     10  H21 <0> d           1.950  -4.268  -5.528  0.00  0.00     0.159 HD
BRANCH   9  11
ATOM     11  C13 <0> d           3.523  -5.869  -6.750  0.00  0.00     0.013 A 
ATOM     12  C18 <0> d           2.533  -5.411  -7.629  0.00  0.00     0.077 A 
ATOM     13  C17 <0> d           2.499  -5.882  -8.932  0.00  0.00     0.039 A 
ATOM     14  C16 <0> d           3.431  -6.808  -9.358  0.00  0.00     0.022 A 
ATOM     15  C15 <0> d           4.409  -7.268  -8.491  0.00  0.00     0.011 A 
ATOM     16  C14 <0> d           4.461  -6.806  -7.193  0.00  0.00     0.034 A 
ATOM     17 Br1  <0> d           5.678  -8.536  -9.090  0.00  0.00    -0.051 Br
BRANCH  12  18
ATOM     18  O1  <0> d           1.613  -4.505  -7.208  0.00  0.00    -0.360 OA
ATOM     19  H20 <0> d           1.878  -3.585  -7.342  0.00  0.00     0.217 HD
ENDBRANCH  12  18
ENDBRANCH   9  11
ENDBRANCH   4   8
BRANCH   1  20
ATOM     20  C6  <0> d           1.238  -2.192  -0.014  0.00  0.00     0.293 C 
BRANCH  20  21
ATOM     21  C4  <0> d           1.192  -0.685  -0.004  0.00  0.00     0.060 A 
ATOM     22  N1  <0> d           2.318   0.001  -0.014  0.00  0.00    -0.264 NA
ATOM     23  C3  <0> d           2.326   1.320  -0.006  0.00  0.00     0.117 A 
ATOM     24  C2  <0> d           1.143   2.034   0.013  0.00  0.00     0.019 A 
ATOM     25  C1  <0> d          -0.061   1.347   0.025  0.00  0.00     0.003 A 
ATOM     26  C5  <0> d          -0.030  -0.040   0.016  0.00  0.00     0.029 A 
ENDBRANCH  20  21
ENDBRANCH   1  20
TORSDOF 5
