REMARK  7 active torsions:
REMARK  status: ('A' for Active; 'I' for Inactive)
REMARK    1  A    between atoms: C4_4  and  C5_7 
REMARK    2  A    between atoms: C6_8  and  C9_13 
REMARK       I    between atoms: C9_13  and  N3_15 
REMARK    3  A    between atoms: C11_17  and  C18_25 
REMARK       I    between atoms: C18_25  and  N5_27 
REMARK    4  A    between atoms: N5_27  and  C19_28 
REMARK    5  A    between atoms: C19_28  and  C20_29 
REMARK    6  A    between atoms: C20_29  and  C21_30 
REMARK    7  A    between atoms: C20_29  and  N6_36 
ROOT
ATOM      1  C9  <0> d           1.460  -5.212   0.185  0.00  0.00     0.258 C 
ATOM      2  O3  <0> d           2.184  -5.376   1.148  0.00  0.00    -0.267 OA
ATOM      3  N3  <0> d           1.947  -5.379  -1.060  0.00  0.00    -0.346 N 
ATOM      4  C10 <0> d           1.227  -5.220  -2.346  0.00  0.00     0.141 C 
ATOM      5  C11 <0> d           2.250  -4.542  -3.285  0.00  0.00     0.106 C 
ATOM      6  C12 <0> d           3.624  -4.904  -2.695  0.00  0.00    -0.007 C 
ATOM      7  C13 <0> d           3.326  -5.758  -1.454  0.00  0.00     0.136 C 
ATOM      8  C14 <0> d           4.438  -5.705  -3.706  0.00  0.00     0.039 C 
ATOM      9  C15 <0> d           5.821  -6.004  -3.119  0.00  0.00     0.233 C 
ATOM     10  N4  <0> d           6.502  -4.743  -2.802  0.00  0.00    -0.075 N 
ATOM     11  C16 <0> d           5.760  -4.021  -1.761  0.00  0.00     0.233 C 
ATOM     12  C17 <0> d           4.375  -3.639  -2.290  0.00  0.00     0.039 C 
ATOM     13  H18 <0> d           7.435  -4.940  -2.473  0.00  0.00     0.277 HD
ATOM     14  H37 <0> d           6.555  -4.172  -3.632  0.00  0.00     0.277 HD
ENDROOT
BRANCH   5  15
ATOM     15  C18 <0> d           2.118  -5.084  -4.684  0.00  0.00     0.224 C 
ATOM     16  O4  <0> d           1.782  -6.236  -4.859  0.00  0.00    -0.273 OA
ATOM     17  N5  <0> d           2.373  -4.288  -5.742  0.00  0.00    -0.358 N 
ATOM     18  H23 <0> d           2.641  -3.367  -5.602  0.00  0.00     0.162 HD
BRANCH  17  19
ATOM     19  C19 <0> d           2.244  -4.815  -7.103  0.00  0.00     0.160 C 
BRANCH  19  20
ATOM     20  C20 <0> d           2.692  -3.751  -8.107  0.00  0.00     0.237 C 
BRANCH  20  21
ATOM     21  C21 <0> d           1.750  -2.576  -8.046  0.00  0.00    -0.026 A 
ATOM     22  C26 <0> d           2.103  -1.443  -7.337  0.00  0.00     0.009 A 
ATOM     23  C25 <0> d           1.242  -0.363  -7.284  0.00  0.00     0.001 A 
ATOM     24  C24 <0> d           0.023  -0.420  -7.934  0.00  0.00     0.000 A 
ATOM     25  C23 <0> d          -0.333  -1.555  -8.638  0.00  0.00     0.001 A 
ATOM     26  C22 <0> d           0.531  -2.633  -8.694  0.00  0.00     0.009 A 
ENDBRANCH  20  21
BRANCH  20  27
ATOM     27  N6  <0> d           2.679  -4.319  -9.461  0.00  0.00    -0.069 N 
ATOM     28  C27 <0> d           3.096  -3.293 -10.426  0.00  0.00     0.270 C 
ATOM     29  C28 <0> d           3.606  -5.457  -9.524  0.00  0.00     0.270 C 
ATOM     30  H38 <0> d           1.746  -4.632  -9.686  0.00  0.00     0.279 HD
ENDBRANCH  20  27
ENDBRANCH  19  20
ENDBRANCH  17  19
ENDBRANCH   5  15
BRANCH   1  31
ATOM     31  C6  <0> d           0.051  -4.832   0.380  0.00  0.00     0.097 A 
ATOM     32  C5  <0> d          -0.450  -3.540   0.456  0.00  0.00     0.150 A 
ATOM     33  O2  <0> d          -1.776  -3.635   0.641  0.00  0.00    -0.210 OA
ATOM     34  N2  <0> d          -2.124  -5.006   0.675  0.00  0.00    -0.132 NA
ATOM     35  C7  <0> d          -1.046  -5.717   0.523  0.00  0.00     0.077 A 
ATOM     36  C8  <0> d          -0.977  -7.222   0.504  0.00  0.00     0.074 C 
BRANCH  32  37
ATOM     37  C4  <0> d           0.334  -2.290   0.358  0.00  0.00     0.123 A 
ATOM     38  C3  <0> d          -0.181  -0.972   0.442  0.00  0.00     0.071 A 
ATOM     39  C2  <0> d           0.846  -0.115   0.307  0.00  0.00     0.077 A 
ATOM     40  C1  <0> d           0.749   1.389   0.334  0.00  0.00     0.079 C 
ATOM     41  O1  <0> d           1.970  -0.827   0.138  0.00  0.00    -0.218 OA
ATOM     42  N1  <0> d           1.631  -2.201   0.178  0.00  0.00    -0.126 NA
ENDBRANCH  32  37
ENDBRANCH   1  31
TORSDOF 7
