REMARK  5 active torsions:
REMARK  status: ('A' for Active; 'I' for Inactive)
REMARK    1  A    between atoms: C6_6  and  S1_7 
REMARK    2  A    between atoms: S1_7  and  N1_10 
REMARK    3  A    between atoms: N1_10  and  C7_11 
REMARK    4  A    between atoms: N1_10  and  C13_18 
REMARK    5  A    between atoms: C7_11  and  C8_12 
ROOT
ATOM      1  S1  <0> d          -1.435  -1.383   0.161  0.00  0.00     0.261 S 
ATOM      2  O1  <0> d          -1.315  -2.791   0.321  0.00  0.00    -0.200 OA
ATOM      3  O2  <0> d          -2.290  -0.595   0.977  0.00  0.00    -0.200 OA
ENDROOT
BRANCH   1   4
ATOM      4  C6  <0> d           0.187  -0.717   0.339  0.00  0.00     0.082 A 
ATOM      5  C1  <0> d           0.352   0.634   0.591  0.00  0.00     0.028 A 
ATOM      6  C2  <0> d           1.620   1.166   0.732  0.00  0.00     0.033 A 
ATOM      7  C3  <0> d           2.730   0.343   0.622  0.00  0.00     0.063 A 
ATOM      8  N4  <0> d           4.101   0.570   0.712  0.00  0.00    -0.307 N 
ATOM      9  C4  <0> d           2.562  -1.020   0.368  0.00  0.00     0.064 A 
ATOM     10  C16 <0> d           4.738  -0.601   0.522  0.00  0.00     0.325 A 
ATOM     11  H2  <0> d           4.524   1.426   0.883  0.00  0.00     0.170 HD
ATOM     12  N3  <0> d           3.837  -1.579   0.312  0.00  0.00    -0.306 N 
ATOM     13  O3  <0> d           5.946  -0.751   0.537  0.00  0.00    -0.247 OA
ATOM     14  H1  <0> d           4.041  -2.513   0.149  0.00  0.00     0.170 HD
ATOM     15  C5  <0> d           1.287  -1.545   0.226  0.00  0.00     0.057 A 
ENDBRANCH   1   4
BRANCH   1  16
ATOM     16  N1  <0> d          -1.902  -1.123  -1.406  0.00  0.00    -0.298 N 
BRANCH  16  17
ATOM     17  C7  <0> d          -1.752  -2.187  -2.401  0.00  0.00     0.174 C 
BRANCH  17  18
ATOM     18  C8  <0> d          -0.434  -2.026  -3.115  0.00  0.00    -0.037 A 
ATOM     19  C12 <0> d           0.728  -2.570  -2.589  0.00  0.00     0.028 A 
ATOM     20  C11 <0> d           1.917  -2.408  -3.274  0.00  0.00     0.116 A 
ATOM     21  N2  <0> d           1.956  -1.735  -4.408  0.00  0.00    -0.273 NA
ATOM     22  C10 <0> d           0.872  -1.199  -4.934  0.00  0.00     0.116 A 
ATOM     23  C9  <0> d          -0.354  -1.326  -4.308  0.00  0.00     0.028 A 
ENDBRANCH  17  18
ENDBRANCH  16  17
BRANCH  16  24
ATOM     24  C13 <0> d          -2.465   0.172  -1.797  0.00  0.00     0.096 A 
ATOM     25  C15 <0> d          -1.662   1.022  -2.783  0.00  0.00     0.028 A 
ATOM     26  C14 <0> d          -2.946   0.326  -3.241  0.00  0.00     0.028 A 
ENDBRANCH  16  24
ENDBRANCH   1  16
TORSDOF 5
