REMARK  4 active torsions:
REMARK  status: ('A' for Active; 'I' for Inactive)
REMARK    1  A    between atoms: C4_4  and  C7_7 
REMARK    2  A    between atoms: C9_9  and  C14_19 
REMARK    3  A    between atoms: C11_13  and  C13_16 
REMARK       I    between atoms: C13_16  and  N4_18 
REMARK       I    between atoms: C14_19  and  N5_21 
REMARK    4  A    between atoms: N5_21  and  C15_22 
ROOT
ATOM      1  C7  <0> d           3.200   3.114  -0.051  0.00  0.00     0.071 A 
ATOM      2  C8  <0> d           4.032   1.970  -0.051  0.00  0.00     0.068 A 
ATOM      3  C9  <0> d           3.459   0.731  -0.058  0.00  0.00     0.112 A 
ATOM      4  N1  <0> d           2.083   0.633  -0.066  0.00  0.00    -0.283 N 
ATOM      5  C10 <0> d           1.233  -0.425  -0.074  0.00  0.00     0.217 A 
ATOM      6  N2  <0> d           0.001  -0.001  -0.079  0.00  0.00    -0.234 NA
ATOM      7  C11 <0> d          -0.017   1.346  -0.074  0.00  0.00     0.171 A 
ATOM      8  C12 <0> d           1.319   1.775  -0.065  0.00  0.00     0.171 A 
ATOM      9  N3  <0> d           1.886   2.979  -0.058  0.00  0.00    -0.227 NA
ENDROOT
BRANCH   3  10
ATOM     10  C14 <0> d           4.298  -0.484  -0.059  0.00  0.00     0.273 C 
ATOM     11  O2  <0> d           3.780  -1.580   0.029  0.00  0.00    -0.266 OA
ATOM     12  N5  <0> d           5.638  -0.377  -0.156  0.00  0.00    -0.320 N 
ATOM     13  H10 <0> d           6.057   0.497  -0.144  0.00  0.00     0.169 HD
BRANCH  12  14
ATOM     14  C15 <0> d           6.422  -1.525  -0.275  0.00  0.00     0.065 A 
ATOM     15  C20 <0> d           7.708  -1.571   0.306  0.00  0.00     0.093 A 
ATOM     16  C19 <0> d           8.480  -2.752   0.175  0.00  0.00    -0.005 A 
ATOM     17  N6  <0> d           8.194  -0.530   0.987  0.00  0.00    -0.258 NA
ATOM     18  C18 <0> d           7.963  -3.846  -0.537  0.00  0.00     0.014 A 
ATOM     19  C23 <0> d           9.760  -2.797   0.759  0.00  0.00     0.015 A 
ATOM     20  C17 <0> d           6.721  -3.771  -1.091  0.00  0.00     0.003 A 
ATOM     21  C16 <0> d           5.950  -2.620  -0.965  0.00  0.00     0.032 A 
ATOM     22  C22 <0> d          10.200  -1.696   1.436  0.00  0.00     0.020 A 
ATOM     23  C21 <0> d           9.386  -0.569   1.532  0.00  0.00     0.117 A 
ENDBRANCH  12  14
ENDBRANCH   3  10
BRANCH   1  24
ATOM     24  C4  <0> d           3.804   4.466  -0.043  0.00  0.00    -0.007 A 
ATOM     25  C3  <0> d           2.989   5.597  -0.043  0.00  0.00     0.014 A 
ATOM     26  C2  <0> d           3.557   6.854  -0.035  0.00  0.00     0.001 A 
ATOM     27  C1  <0> d           4.934   6.994  -0.027  0.00  0.00     0.000 A 
ATOM     28  C6  <0> d           5.748   5.875  -0.027  0.00  0.00     0.001 A 
ATOM     29  C5  <0> d           5.192   4.613  -0.030  0.00  0.00     0.014 A 
ENDBRANCH   1  24
BRANCH   7  30
ATOM     30  C13 <0> d          -1.207   2.201  -0.082  0.00  0.00     0.272 C 
ATOM     31  O1  <0> d          -1.086   3.412  -0.076  0.00  0.00    -0.266 OA
ATOM     32  N4  <0> d          -2.435   1.646  -0.095  0.00  0.00    -0.365 N 
ATOM     33  H8  <0> d          -2.532   0.681  -0.100  0.00  0.00     0.159 HD
ATOM     34  H9  <0> d          -3.223   2.213  -0.101  0.00  0.00     0.159 HD
ENDBRANCH   7  30
TORSDOF 4
