REMARK  4 active torsions:
REMARK  status: ('A' for Active; 'I' for Inactive)
REMARK    1  A    between atoms: C2_2  and  N1_3 
REMARK    2  A    between atoms: N1_3  and  C3_4 
REMARK    3  A    between atoms: N1_3  and  C11_15 
REMARK    4  A    between atoms: C8_9  and  O1_10 
ROOT
ATOM      1  C3  <0> d           0.299  -1.763  -1.839  0.00  0.00     0.222 C 
ATOM      2  C4  <0> d          -1.153  -1.914  -2.298  0.00  0.00     0.104 C 
ATOM      3  C5  <0> d          -1.454  -3.390  -2.559  0.00  0.00     0.166 C 
ATOM      4  C6  <0> d          -0.517  -3.927  -3.643  0.00  0.00     0.071 C 
ATOM      5  C7  <0> d           0.934  -3.773  -3.182  0.00  0.00     0.039 C 
ATOM      6  C8  <0> d           1.234  -2.295  -2.927  0.00  0.00     0.149 C 
ATOM      7  O2  <0> d          -2.817  -3.532  -2.993  0.00  0.00    -0.353 OA
ATOM      8  C9  <0> d          -3.263  -4.780  -2.410  0.00  0.00     0.197 C 
ATOM      9  C10 <0> d          -2.534  -4.766  -1.043  0.00  0.00     0.197 C 
ATOM     10  O3  <0> d          -1.273  -4.140  -1.352  0.00  0.00    -0.353 OA
ENDROOT
BRANCH   1  11
ATOM     11  N1  <0> d           0.590  -0.345  -1.593  0.00  0.00    -0.061 N 
ATOM     12  H26 <0> d           0.550   0.163  -2.464  0.00  0.00     0.280 HD
BRANCH  11  13
ATOM     13  C2  <0> d          -0.402   0.204  -0.659  0.00  0.00     0.231 C 
ATOM     14  C1  <0> d          -0.529   1.713  -0.878  0.00  0.00     0.034 C 
ENDBRANCH  11  13
BRANCH  11  15
ATOM     15  C11 <0> d           1.933  -0.214  -1.012  0.00  0.00     0.180 C 
ATOM     16  C12 <0> d           2.189   1.248  -0.642  0.00  0.00     0.039 C 
ATOM     17  C13 <0> d           2.032  -1.083   0.243  0.00  0.00     0.039 C 
ENDBRANCH  11  15
ENDBRANCH   1  11
BRANCH   6  18
ATOM     18  O1  <0> d           2.591  -2.151  -2.501  0.00  0.00    -0.393 OA
ATOM     19  H14 <0> d           3.242  -2.395  -3.173  0.00  0.00     0.210 HD
ENDBRANCH   6  18
TORSDOF 4
