REMARK  4 active torsions:
REMARK  status: ('A' for Active; 'I' for Inactive)
REMARK    1  A    between atoms: C2_2  and  C4_4 
REMARK    2  A    between atoms: C4_4  and  C5_5 
REMARK    3  A    between atoms: C4_4  and  N1_8 
REMARK    4  A    between atoms: C8_12  and  C9_13 
ROOT
ATOM      1  C9  <0> d          -3.116  -4.614   3.036  0.00  0.00     0.126 A 
ATOM      2  C10 <0> d          -4.549  -5.099   2.944  0.00  0.00     0.005 A 
ATOM      3  C11 <0> d          -4.999  -5.912   3.937  0.00  0.00    -0.009 A 
ATOM      4  C12 <0> d          -6.371  -6.423   3.921  0.00  0.00     0.053 A 
ATOM      5  C13 <0> d          -6.790  -7.232   4.929  0.00  0.00     0.105 A 
ATOM      6  C14 <0> d          -5.926  -7.589   5.987  0.00  0.00     0.107 A 
ATOM      7  C15 <0> d          -4.625  -7.135   6.046  0.00  0.00     0.070 A 
ATOM      8  C16 <0> d          -4.112  -6.296   5.050  0.00  0.00     0.047 A 
ATOM      9  N2  <0> d          -2.849  -5.868   5.127  0.00  0.00    -0.325 N 
ATOM     10  C17 <0> d          -2.301  -5.075   4.224  0.00  0.00     0.233 A 
ATOM     11  O4  <0> d          -1.145  -4.717   4.347  0.00  0.00    -0.272 OA
ATOM     12  O5  <0> d          -6.614  -8.401   6.841  0.00  0.00    -0.323 OA
ATOM     13  C18 <0> d          -8.004  -8.202   6.532  0.00  0.00     0.352 C 
ATOM     14  O6  <0> d          -8.002  -7.827   5.143  0.00  0.00    -0.323 OA
ATOM     15  H16 <0> d          -2.310  -6.152   5.881  0.00  0.00     0.169 HD
ENDROOT
BRANCH   1  16
ATOM     16  C8  <0> d          -2.398  -5.053   1.785  0.00  0.00     0.016 C 
ATOM     17  C7  <0> d          -1.921  -4.139   0.932  0.00  0.00     0.073 A 
ATOM     18  C6  <0> d          -1.977  -2.657   1.004  0.00  0.00     0.267 A 
ATOM     19  S1  <0> d          -1.041  -4.366  -0.607  0.00  0.00    -0.055 SA
ATOM     20  N1  <0> d          -1.413  -1.998   0.005  0.00  0.00    -0.282 N 
ATOM     21  O3  <0> d          -2.511  -2.080   1.931  0.00  0.00    -0.266 OA
ATOM     22  C19 <0> d          -0.826  -2.643  -1.024  0.00  0.00     0.149 A 
ATOM     23  S2  <0> d          -0.058  -1.971  -2.398  0.00  0.00    -0.052 SA
BRANCH  20  24
ATOM     24  C4  <0> d          -1.433  -0.534   0.013  0.00  0.00     0.199 C 
BRANCH  24  25
ATOM     25  C2  <0> d           0.002  -0.004   0.002  0.00  0.00     0.011 C 
ATOM     26  C1  <0> d          -0.019   1.526   0.010  0.00  0.00     0.012 C 
ATOM     27  C3  <0> d           0.742  -0.511   1.242  0.00  0.00     0.012 C 
ENDBRANCH  24  25
BRANCH  24  28
ATOM     28  C5  <0> d          -2.162  -0.034  -1.208  0.00  0.00     0.197 C 
ATOM     29  O1  <0> d          -2.146  -0.688  -2.237  0.00  0.00    -0.646 OA
ATOM     30  O2  <0> d          -2.768   1.023  -1.166  0.00  0.00    -0.646 OA
ENDBRANCH  24  28
ENDBRANCH  20  24
ENDBRANCH   1  16
TORSDOF 4
