REMARK  5 active torsions:
REMARK  status: ('A' for Active; 'I' for Inactive)
REMARK    1  A    between atoms: C4_4  and  N1_7 
REMARK    2  A    between atoms: N1_7  and  C7_8 
REMARK    3  A    between atoms: C10_11  and  N3_14 
REMARK    4  A    between atoms: N3_14  and  S1_15 
REMARK    5  A    between atoms: S1_15  and  C12_18 
ROOT
ATOM      1  N3  <0> d           2.514  -2.958   0.471  0.00  0.00    -0.279 N 
ATOM      2  H10 <0> d           2.344  -3.866   0.769  0.00  0.00     0.179 HD
ENDROOT
BRANCH   1   3
ATOM      3  C10 <0> d           1.482  -2.013   0.480  0.00  0.00     0.060 A 
ATOM      4  C9  <0> d           0.502  -2.029  -0.511  0.00  0.00     0.035 A 
ATOM      5  C8  <0> d          -0.499  -1.076  -0.464  0.00  0.00     0.053 A 
ATOM      6  C7  <0> d          -0.494  -0.139   0.563  0.00  0.00     0.127 A 
ATOM      7  N2  <0> d           0.452  -0.153   1.488  0.00  0.00    -0.241 NA
ATOM      8  C11 <0> d           1.422  -1.048   1.474  0.00  0.00     0.149 A 
BRANCH   6   9
ATOM      9  N1  <0> d          -1.495   0.830   0.617  0.00  0.00    -0.341 N 
ATOM     10  H6  <0> d          -2.140   0.901  -0.104  0.00  0.00     0.167 HD
BRANCH   9  11
ATOM     11  C4  <0> d          -1.569   1.698   1.709  0.00  0.00     0.033 A 
ATOM     12  C3  <0> d          -2.802   2.172   2.139  0.00  0.00     0.029 A 
ATOM     13  C2  <0> d          -2.872   3.030   3.219  0.00  0.00     0.002 A 
ATOM     14  C1  <0> d          -1.716   3.418   3.872  0.00  0.00     0.000 A 
ATOM     15  C6  <0> d          -0.487   2.948   3.446  0.00  0.00     0.002 A 
ATOM     16  C5  <0> d          -0.410   2.086   2.370  0.00  0.00     0.029 A 
ENDBRANCH   9  11
ENDBRANCH   6   9
ENDBRANCH   1   3
BRANCH   1  17
ATOM     17  S1  <0> d           4.027  -2.528  -0.047  0.00  0.00     0.263 S 
ATOM     18  O1  <0> d           4.330  -1.285   0.570  0.00  0.00    -0.200 OA
ATOM     19  O2  <0> d           4.851  -3.676   0.106  0.00  0.00    -0.200 OA
BRANCH  17  20
ATOM     20  C12 <0> d           3.915  -2.217  -1.778  0.00  0.00     0.080 A 
ATOM     21  C17 <0> d           3.798  -0.919  -2.243  0.00  0.00     0.035 A 
ATOM     22  C16 <0> d           3.712  -0.679  -3.596  0.00  0.00    -0.021 A 
ATOM     23  C15 <0> d           3.740  -1.727  -4.507  0.00  0.00     0.041 A 
ATOM     24  C18 <0> d           3.579   0.588  -4.410  0.00  0.00     0.144 A 
ATOM     25  C14 <0> d           3.858  -3.032  -4.031  0.00  0.00     0.031 A 
ATOM     26  N4  <0> d           3.638  -1.237  -5.810  0.00  0.00    -0.326 N 
ATOM     27  C13 <0> d           3.950  -3.269  -2.675  0.00  0.00     0.027 A 
ATOM     28  C19 <0> d           3.540   0.102  -5.843  0.00  0.00     0.226 A 
ATOM     29  H16 <0> d           3.638  -1.799  -6.600  0.00  0.00     0.169 HD
ATOM     30  O3  <0> d           3.439   0.793  -6.835  0.00  0.00    -0.273 OA
ENDBRANCH  17  20
ENDBRANCH   1  17
TORSDOF 5
