REMARK  6 active torsions:
REMARK  status: ('A' for Active; 'I' for Inactive)
REMARK    1  A    between atoms: C3_3  and  N2_14 
REMARK    2  A    between atoms: C7_7  and  N1_8 
REMARK       I    between atoms: N2_14  and  C12_15 
REMARK       I    between atoms: C12_15  and  N3_17 
REMARK    3  A    between atoms: N3_17  and  C13_18 
REMARK    4  A    between atoms: C13_18  and  C14_19 
REMARK    5  A    between atoms: C14_19  and  C15_20 
REMARK    6  A    between atoms: C14_19  and  N4_27 
ROOT
ATOM      1  N2  <0> d          -0.236   0.086  -2.446  0.00  0.00    -0.308 N 
ATOM      2  C12 <0> d          -0.038  -0.593  -3.593  0.00  0.00     0.320 C 
ATOM      3  O2  <0> d           0.035  -1.807  -3.576  0.00  0.00    -0.247 OA
ATOM      4  N3  <0> d           0.079   0.072  -4.759  0.00  0.00    -0.341 N 
ATOM      5  H14 <0> d          -0.373   1.046  -2.468  0.00  0.00     0.170 HD
ATOM      6  H15 <0> d           0.021   1.041  -4.772  0.00  0.00     0.164 HD
ENDROOT
BRANCH   1   7
ATOM      7  C3  <0> d          -0.244  -0.594  -1.222  0.00  0.00     0.044 A 
ATOM      8  C2  <0> d          -0.919  -0.058  -0.135  0.00  0.00    -0.008 A 
ATOM      9  C1  <0> d          -1.644   1.256  -0.268  0.00  0.00     0.053 C 
ATOM     10  C7  <0> d          -0.921  -0.733   1.078  0.00  0.00     0.045 A 
ATOM     11  C6  <0> d          -0.257  -1.948   1.196  0.00  0.00     0.030 A 
ATOM     12  C5  <0> d           0.414  -2.478   0.111  0.00  0.00     0.005 A 
ATOM     13  C4  <0> d           0.422  -1.806  -1.096  0.00  0.00     0.030 A 
BRANCH  10  14
ATOM     14  N1  <0> d          -1.595  -0.193   2.179  0.00  0.00    -0.317 N 
ATOM     15  C11 <0> d          -1.038   0.638   3.076  0.00  0.00     0.224 C 
ATOM     16  C10 <0> d          -2.051   1.019   4.133  0.00  0.00     0.105 C 
ATOM     17  O1  <0> d           0.111   1.028   3.043  0.00  0.00    -0.273 OA
ATOM     18  C9  <0> d          -3.171  -0.037   3.979  0.00  0.00     0.029 C 
ATOM     19  C8  <0> d          -2.999  -0.466   2.505  0.00  0.00     0.133 C 
ENDBRANCH  10  14
ENDBRANCH   1   7
BRANCH   4  20
ATOM     20  C13 <0> d           0.294  -0.666  -6.005  0.00  0.00     0.162 C 
BRANCH  20  21
ATOM     21  C14 <0> d           0.514   0.323  -7.152  0.00  0.00     0.237 C 
BRANCH  21  22
ATOM     22  C15 <0> d          -0.746   1.118  -7.379  0.00  0.00    -0.026 A 
ATOM     23  C20 <0> d          -0.857   2.397  -6.866  0.00  0.00     0.012 A 
ATOM     24  C19 <0> d          -2.011   3.128  -7.078  0.00  0.00     0.043 A 
ATOM     25  C18 <0> d          -3.059   2.576  -7.794  0.00  0.00     0.116 A 
ATOM     26  C17 <0> d          -2.948   1.292  -8.303  0.00  0.00     0.043 A 
ATOM     27  F1  <0> d          -4.188   3.288  -7.997  0.00  0.00    -0.206 F 
ATOM     28  C16 <0> d          -1.792   0.565  -8.094  0.00  0.00     0.012 A 
ENDBRANCH  21  22
BRANCH  21  29
ATOM     29  N4  <0> d           0.855  -0.415  -8.376  0.00  0.00    -0.069 N 
ATOM     30  C21 <0> d           1.164   0.537  -9.451  0.00  0.00     0.270 C 
ATOM     31  C22 <0> d           2.025  -1.266  -8.125  0.00  0.00     0.270 C 
ATOM     32  H28 <0> d           0.073  -0.990  -8.651  0.00  0.00     0.279 HD
ENDBRANCH  21  29
ENDBRANCH  20  21
ENDBRANCH   4  20
TORSDOF 6
