REMARK  4 active torsions:
REMARK  status: ('A' for Active; 'I' for Inactive)
REMARK    1  A    between atoms: C3_4  and  C7_11 
REMARK    2  A    between atoms: C7_11  and  C8_12 
REMARK    3  A    between atoms: C8_12  and  C10_15 
REMARK       I    between atoms: C10_15  and  N4_17 
REMARK    4  A    between atoms: N4_17  and  C11_18 
ROOT
ATOM      1  C8  <0> d          -4.833   2.375   1.290  0.00  0.00     0.113 C 
ATOM      2  C9  <0> d          -4.216   1.923   0.080  0.00  0.00     0.105 C 
ATOM      3  N3  <0> d          -3.726   1.564  -0.881  0.00  0.00    -0.191 NA
ENDROOT
BRANCH   1   4
ATOM      4  C7  <0> d          -4.083   2.498   2.444  0.00  0.00     0.046 C 
BRANCH   4   5
ATOM      5  C3  <0> d          -2.684   2.284   2.406  0.00  0.00     0.050 A 
ATOM      6  C2  <0> d          -1.903   2.841   1.402  0.00  0.00     0.112 A 
ATOM      7  N1  <0> d          -0.565   2.613   1.400  0.00  0.00    -0.313 N 
ATOM      8  C1  <0> d           0.259   3.201   0.341  0.00  0.00     0.160 C 
ATOM      9  C5  <0> d           0.021   1.861   2.344  0.00  0.00     0.330 A 
ATOM     10  N2  <0> d          -0.676   1.292   3.343  0.00  0.00    -0.270 N 
ATOM     11  O2  <0> d           1.223   1.688   2.295  0.00  0.00    -0.246 OA
ATOM     12  C4  <0> d          -2.013   1.458   3.427  0.00  0.00     0.262 A 
ATOM     13  C6  <0> d           0.020   0.481   4.345  0.00  0.00     0.164 C 
ATOM     14  O1  <0> d          -2.649   0.942   4.326  0.00  0.00    -0.267 OA
ENDBRANCH   4   5
ENDBRANCH   1   4
BRANCH   1  15
ATOM     15  C10 <0> d          -6.263   2.709   1.304  0.00  0.00     0.266 C 
ATOM     16  O3  <0> d          -6.788   3.094   2.333  0.00  0.00    -0.267 OA
ATOM     17  N4  <0> d          -6.995   2.590   0.179  0.00  0.00    -0.321 N 
ATOM     18  H9  <0> d          -6.545   2.154  -0.726  0.00  0.00     0.169 HD
BRANCH  17  19
ATOM     19  C11 <0> d          -8.326   3.020   0.161  0.00  0.00     0.057 A 
ATOM     20  C16 <0> d          -9.222   2.474  -0.751  0.00  0.00     0.062 A 
ATOM     21  C15 <0> d         -10.537   2.898  -0.763  0.00  0.00     0.050 A 
ATOM     22 Cl1  <0> d          -8.691   1.257  -1.869  0.00  0.00    -0.082 Cl
ATOM     23  C14 <0> d         -10.960   3.873   0.124  0.00  0.00     0.035 A 
ATOM     24  C13 <0> d         -10.068   4.421   1.029  0.00  0.00     0.026 A 
ATOM     25 Cl2  <0> d         -12.611   4.408   0.101  0.00  0.00    -0.084 Cl
ATOM     26  C12 <0> d          -8.754   3.998   1.049  0.00  0.00     0.033 A 
ENDBRANCH  17  19
ENDBRANCH   1  15
TORSDOF 4
