REMARK  7 active torsions:
REMARK  status: ('A' for Active; 'I' for Inactive)
REMARK    1  A    between atoms: C4_4  and  C7_7 
REMARK    2  A    between atoms: C8_8  and  C16_18 
REMARK    3  A    between atoms: N1_10  and  C10_12 
REMARK       I    between atoms: C16_18  and  N3_20 
REMARK    4  A    between atoms: N3_20  and  C17_21 
REMARK    5  A    between atoms: C20_24  and  S1_27 
REMARK    6  A    between atoms: S1_27  and  N4_30 
REMARK    7  A    between atoms: N4_30  and  C23_31 
ROOT
ATOM      1  C16 <0> d           6.239   3.779   1.126  0.00  0.00     0.260 C 
ATOM      2  O1  <0> d           5.673   3.588   2.185  0.00  0.00    -0.267 OA
ATOM      3  N3  <0> d           5.618   3.481  -0.033  0.00  0.00    -0.323 N 
ATOM      4  H12 <0> d           6.092   3.570  -0.874  0.00  0.00     0.169 HD
ENDROOT
BRANCH   1   5
ATOM      5  C8  <0> d           7.601   4.338   1.108  0.00  0.00     0.081 A 
ATOM      6  C7  <0> d           8.411   4.714   2.271  0.00  0.00     0.105 A 
ATOM      7  N2  <0> d           9.556   5.166   1.812  0.00  0.00    -0.166 NA
ATOM      8  N1  <0> d           9.544   5.107   0.416  0.00  0.00    -0.244 N 
ATOM      9  C9  <0> d           8.371   4.605  -0.005  0.00  0.00     0.138 A 
BRANCH   6  10
ATOM     10  C4  <0> d           8.013   4.605   3.695  0.00  0.00    -0.005 A 
ATOM     11  C3  <0> d           8.962   4.283   4.664  0.00  0.00     0.014 A 
ATOM     12  C2  <0> d           8.586   4.183   5.988  0.00  0.00     0.001 A 
ATOM     13  C1  <0> d           7.270   4.402   6.355  0.00  0.00     0.000 A 
ATOM     14  C6  <0> d           6.324   4.722   5.398  0.00  0.00     0.001 A 
ATOM     15  C5  <0> d           6.690   4.830   4.071  0.00  0.00     0.014 A 
ENDBRANCH   6  10
BRANCH   8  16
ATOM     16  C10 <0> d          10.598   5.506  -0.418  0.00  0.00     0.058 A 
ATOM     17  C15 <0> d          11.770   6.007   0.133  0.00  0.00     0.031 A 
ATOM     18  C14 <0> d          12.806   6.399  -0.691  0.00  0.00     0.002 A 
ATOM     19  C13 <0> d          12.677   6.293  -2.064  0.00  0.00     0.000 A 
ATOM     20  C12 <0> d          11.511   5.795  -2.616  0.00  0.00     0.002 A 
ATOM     21  C11 <0> d          10.473   5.396  -1.796  0.00  0.00     0.031 A 
ENDBRANCH   8  16
ENDBRANCH   1   5
BRANCH   3  22
ATOM     22  C17 <0> d           4.290   3.042  -0.022  0.00  0.00     0.035 A 
ATOM     23  C22 <0> d           3.829   2.243   1.016  0.00  0.00     0.031 A 
ATOM     24  C21 <0> d           2.516   1.815   1.027  0.00  0.00     0.027 A 
ATOM     25  C20 <0> d           1.663   2.173  -0.001  0.00  0.00     0.080 A 
ATOM     26  C19 <0> d           2.118   2.969  -1.036  0.00  0.00     0.027 A 
ATOM     27  C18 <0> d           3.429   3.404  -1.050  0.00  0.00     0.031 A 
BRANCH  25  28
ATOM     28  S1  <0> d          -0.010   1.620   0.013  0.00  0.00     0.264 S 
ATOM     29  O2  <0> d          -0.750   2.545  -0.773  0.00  0.00    -0.200 OA
ATOM     30  O3  <0> d          -0.334   1.341   1.368  0.00  0.00    -0.200 OA
BRANCH  28  31
ATOM     31  N4  <0> d          -0.054   0.173  -0.792  0.00  0.00    -0.258 N 
ATOM     32  H17 <0> d          -0.543   0.097  -1.626  0.00  0.00     0.181 HD
BRANCH  31  33
ATOM     33  C23 <0> d           0.609  -0.928  -0.274  0.00  0.00     0.179 A 
ATOM     34  S2  <0> d           0.717  -2.538  -0.916  0.00  0.00    -0.062 SA
ATOM     35  C25 <0> d           1.733  -3.237   0.377  0.00  0.00     0.072 A 
ATOM     36  C24 <0> d           1.892  -2.160   1.182  0.00  0.00     0.126 A 
ATOM     37  N5  <0> d           1.326  -1.021   0.830  0.00  0.00    -0.236 NA
ENDBRANCH  31  33
ENDBRANCH  28  31
ENDBRANCH  25  28
ENDBRANCH   3  22
TORSDOF 7
