REMARK  4 active torsions:
REMARK  status: ('A' for Active; 'I' for Inactive)
REMARK    1  A    between atoms: C5_5  and  O1_8 
REMARK    2  A    between atoms: O1_8  and  C7_9 
REMARK    3  A    between atoms: C7_9  and  C8_11 
REMARK       I    between atoms: N2_15  and  C11_16 
REMARK    4  A    between atoms: C11_16  and  C12_18 
ROOT
ATOM      1  C8  <0> d           0.319  -6.154   1.376  0.00  0.00     0.197 C 
ATOM      2  C9  <0> d           1.521  -6.597   0.507  0.00  0.00     0.111 C 
ATOM      3  S1  <0> d           2.200  -7.951   1.566  0.00  0.00    -0.147 SA
ATOM      4  C10 <0> d           1.648  -7.246   3.182  0.00  0.00     0.201 C 
ATOM      5  N2  <0> d           0.421  -6.526   2.777  0.00  0.00    -0.324 N 
ATOM      6  C11 <0> d          -0.552  -6.230   3.662  0.00  0.00     0.257 C 
ATOM      7  O3  <0> d          -1.592  -5.729   3.278  0.00  0.00    -0.267 OA
ENDROOT
BRANCH   1   8
ATOM      8  C7  <0> d           0.191  -4.655   1.288  0.00  0.00     0.288 C 
ATOM      9  O2  <0> d           0.187  -3.988   2.296  0.00  0.00    -0.262 OA
BRANCH   8  10
ATOM     10  O1  <0> d           0.081  -4.060   0.089  0.00  0.00    -0.276 OA
BRANCH  10  11
ATOM     11  C5  <0> d           0.073  -2.701   0.049  0.00  0.00     0.096 A 
ATOM     12  C4  <0> d           1.200  -1.978   0.428  0.00  0.00     0.041 A 
ATOM     13  C3  <0> d           1.145  -0.595   0.370  0.00  0.00     0.029 A 
ATOM     14  C2  <0> d          -0.019   0.017  -0.059  0.00  0.00     0.030 A 
ATOM     15  C1  <0> d          -0.087   1.520  -0.125  0.00  0.00     0.070 C 
ATOM     16  N1  <0> d          -1.071  -0.698  -0.406  0.00  0.00    -0.263 NA
ATOM     17  C6  <0> d          -1.057  -2.016  -0.370  0.00  0.00     0.154 A 
ENDBRANCH  10  11
ENDBRANCH   8  10
ENDBRANCH   1   8
BRANCH   6  18
ATOM     18  C12 <0> d          -0.357  -6.514   5.090  0.00  0.00     0.060 A 
ATOM     19  C15 <0> d          -1.410  -6.742   6.097  0.00  0.00     0.008 A 
ATOM     20  C14 <0> d          -0.740  -6.974   7.309  0.00  0.00     0.043 A 
ATOM     21  C16 <0> d          -2.801  -6.766   6.052  0.00  0.00     0.015 A 
ATOM     22  N3  <0> d           0.614  -6.883   7.056  0.00  0.00    -0.364 N 
ATOM     23  C19 <0> d          -1.479  -7.229   8.459  0.00  0.00     0.030 A 
ATOM     24  C13 <0> d           0.834  -6.612   5.748  0.00  0.00     0.106 A 
ATOM     25  H1  <0> d           1.310  -6.997   7.723  0.00  0.00     0.165 HD
ATOM     26  C18 <0> d          -2.856  -7.241   8.402  0.00  0.00     0.002 A 
ATOM     27  C17 <0> d          -3.516  -7.015   7.204  0.00  0.00     0.001 A 
ENDBRANCH   6  18
TORSDOF 4
