REMARK  3 active torsions:
REMARK  status: ('A' for Active; 'I' for Inactive)
REMARK    1  A    between atoms: C4_4  and  N2_10 
REMARK    2  A    between atoms: N3_13  and  C12_16 
REMARK    3  A    between atoms: C12_16  and  C13_17 
ROOT
ATOM      1  C1  <0> d           2.480  -0.404   1.190  0.00  0.00     0.052 C 
ATOM      2  C2  <0> d           1.208  -0.924   0.571  0.00  0.00    -0.014 A 
ATOM      3  C3  <0> d           1.238  -1.654  -0.623  0.00  0.00     0.098 A 
ATOM      4  C4  <0> d           0.026  -2.119  -1.162  0.00  0.00     0.147 A 
ATOM      5  N1  <0> d          -1.120  -1.869  -0.548  0.00  0.00    -0.233 NA
ATOM      6  C5  <0> d          -1.169  -1.183   0.578  0.00  0.00     0.055 A 
ATOM      7  C6  <0> d          -0.018  -0.697   1.173  0.00  0.00     0.066 A 
ATOM      8 Cl1  <0> d          -0.111   0.196   2.659  0.00  0.00    -0.082 Cl
ATOM      9  C7  <0> d          -2.503  -0.929   1.231  0.00  0.00     0.072 C 
ATOM     10  C17 <0> d           2.480  -1.922  -1.284  0.00  0.00     0.104 C 
ATOM     11  N6  <0> d           3.465  -2.134  -1.808  0.00  0.00    -0.191 NA
ENDROOT
BRANCH   4  12
ATOM     12  N2  <0> d           0.030  -2.843  -2.342  0.00  0.00    -0.361 N 
ATOM     13  C11 <0> d           0.161  -4.308  -2.328  0.00  0.00     0.154 C 
ATOM     14  C10 <0> d          -0.974  -4.901  -3.179  0.00  0.00     0.292 C 
ATOM     15  N3  <0> d          -0.949  -4.288  -4.514  0.00  0.00     0.097 N 
ATOM     16  C9  <0> d          -1.208  -2.844  -4.442  0.00  0.00     0.292 C 
ATOM     17  C8  <0> d          -0.089  -2.167  -3.643  0.00  0.00     0.154 C 
BRANCH  15  18
ATOM     18  C12 <0> d          -1.903  -4.949  -5.414  0.00  0.00     0.330 C 
BRANCH  18  19
ATOM     19  C13 <0> d          -1.463  -6.370  -5.656  0.00  0.00     0.054 A 
ATOM     20  C14 <0> d          -1.890  -7.456  -4.983  0.00  0.00     0.116 A 
ATOM     21  N4  <0> d          -1.242  -8.535  -5.521  0.00  0.00    -0.354 N 
ATOM     22  H1  <0> d          -1.340  -9.461  -5.247  0.00  0.00     0.166 HD
ATOM     23  C15 <0> d          -0.441  -8.071  -6.505  0.00  0.00     0.077 A 
ATOM     24  C16 <0> d           0.462  -8.910  -7.372  0.00  0.00     0.089 C 
ATOM     25  N5  <0> d          -0.583  -6.776  -6.583  0.00  0.00    -0.347 N 
ATOM     26  H22 <0> d          -0.122  -6.198  -7.211  0.00  0.00     0.167 HD
ENDBRANCH  18  19
ENDBRANCH  15  18
ENDBRANCH   4  12
TORSDOF 3
