REMARK  6 active torsions:
REMARK  status: ('A' for Active; 'I' for Inactive)
REMARK    1  A    between atoms: C6_6  and  C8_8 
REMARK    2  A    between atoms: C8_8  and  N5_37 
REMARK    3  A    between atoms: C10_10  and  S2_26 
REMARK    4  A    between atoms: C12_12  and  C13_13 
REMARK       I    between atoms: C13_13  and  N1_15 
REMARK    5  A    between atoms: N1_15  and  C14_16 
REMARK    6  A    between atoms: S2_26  and  C22_27 
ROOT
ATOM      1  C9  <0> d          -3.079   2.085  -1.422  0.00  0.00     0.252 C 
ATOM      2  C10 <0> d          -4.456   2.040  -2.117  0.00  0.00     0.083 C 
ATOM      3  C11 <0> d          -4.634   0.534  -2.443  0.00  0.00     0.060 C 
ATOM      4  C12 <0> d          -3.965  -0.134  -1.216  0.00  0.00     0.281 C 
ATOM      5  N5  <0> d          -2.806   0.728  -0.916  0.00  0.00    -0.053 N 
ATOM      6  H32 <0> d          -1.973   0.351  -1.384  0.00  0.00     0.281 HD
ENDROOT
BRANCH   4   7
ATOM      7  C13 <0> d          -3.497  -1.523  -1.565  0.00  0.00     0.253 C 
ATOM      8  O1  <0> d          -2.313  -1.785  -1.554  0.00  0.00    -0.271 OA
ATOM      9  N1  <0> d          -4.395  -2.475  -1.888  0.00  0.00    -0.325 N 
ATOM     10  H15 <0> d          -5.335  -2.248  -1.965  0.00  0.00     0.169 HD
BRANCH   9  11
ATOM     11  C14 <0> d          -3.971  -3.791  -2.113  0.00  0.00     0.037 A 
ATOM     12  C19 <0> d          -4.775  -4.836  -1.717  0.00  0.00     0.062 A 
ATOM     13  C18 <0> d          -4.374  -6.172  -1.937  0.00  0.00     0.077 A 
ATOM     14  C17 <0> d          -3.121  -6.361  -2.562  0.00  0.00     0.035 A 
ATOM     15  N2  <0> d          -5.022  -7.314  -1.625  0.00  0.00    -0.245 NA
ATOM     16  C16 <0> d          -2.321  -5.313  -2.950  0.00  0.00     0.023 A 
ATOM     17  S1  <0> d          -3.006  -8.131  -2.637  0.00  0.00    -0.073 SA
ATOM     18  C15 <0> d          -2.740  -4.016  -2.728  0.00  0.00     0.031 A 
ATOM     19  C20 <0> d          -4.528  -8.492  -1.883  0.00  0.00     0.072 A 
ATOM     20  C21 <0> d          -5.131  -9.843  -1.595  0.00  0.00     0.079 C 
ENDBRANCH   9  11
ENDBRANCH   4   7
BRANCH   5  21
ATOM     21  C8  <0> d          -2.561   0.769   0.549  0.00  0.00     0.275 C 
BRANCH  21  22
ATOM     22  C6  <0> d          -1.315   1.569   0.825  0.00  0.00    -0.026 A 
ATOM     23  C5  <0> d          -0.071   1.013   0.592  0.00  0.00    -0.054 A 
ATOM     24  C4  <0> d           1.073   1.745   0.850  0.00  0.00     0.008 A 
ATOM     25  C28 <0> d           0.038  -0.393   0.060  0.00  0.00     0.049 C 
ATOM     26  C3  <0> d           0.973   3.035   1.337  0.00  0.00     0.007 A 
ATOM     27  C2  <0> d          -0.271   3.593   1.565  0.00  0.00    -0.061 A 
ATOM     28  C1  <0> d          -0.380   4.999   2.096  0.00  0.00     0.048 C 
ATOM     29  C7  <0> d          -1.415   2.861   1.307  0.00  0.00     0.016 A 
ENDBRANCH  21  22
ENDBRANCH   5  21
BRANCH   2  30
ATOM     30  S2  <0> d          -4.440   3.026  -3.634  0.00  0.00    -0.084 SA
BRANCH  30  31
ATOM     31  C22 <0> d          -4.492   4.648  -2.946  0.00  0.00     0.189 A 
ATOM     32  N4  <0> d          -4.592   5.692  -3.756  0.00  0.00    -0.228 NA
ATOM     33  C25 <0> d          -4.634   6.922  -3.272  0.00  0.00     0.035 A 
ATOM     34  C24 <0> d          -4.572   7.111  -1.900  0.00  0.00     0.053 A 
ATOM     35  C26 <0> d          -4.746   8.104  -4.200  0.00  0.00     0.070 C 
ATOM     36  C23 <0> d          -4.468   5.997  -1.081  0.00  0.00     0.035 A 
ATOM     37  N3  <0> d          -4.437   4.794  -1.629  0.00  0.00    -0.228 NA
ATOM     38  C27 <0> d          -4.399   6.155   0.416  0.00  0.00     0.070 C 
ENDBRANCH  30  31
ENDBRANCH   2  30
TORSDOF 6
