REMARK  8 active torsions:
REMARK  status: ('A' for Active; 'I' for Inactive)
REMARK    1  A    between atoms: N1_2  and  C2_3 
REMARK       I    between atoms: N1_2  and  C7_9 
REMARK    2  A    between atoms: C2_3  and  C3_4 
REMARK    3  A    between atoms: C7_9  and  C8_11 
REMARK    4  A    between atoms: C8_11  and  N2_12 
REMARK    5  A    between atoms: C15_20  and  N4_21 
REMARK    6  A    between atoms: N4_21  and  C16_22 
REMARK    7  A    between atoms: C16_22  and  C17_23 
REMARK    8  A    between atoms: C17_23  and  O2_24 
ROOT
ATOM      1  N2  <0> d          -0.020  -0.857  -3.588  0.00  0.00    -0.172 N 
ATOM      2  C9  <0> d           1.096  -1.377  -4.223  0.00  0.00     0.079 A 
ATOM      3  C10 <0> d           2.462  -1.212  -4.053  0.00  0.00     0.032 A 
ATOM      4  C11 <0> d           3.343  -1.889  -4.871  0.00  0.00     0.002 A 
ATOM      5  C12 <0> d           2.871  -2.735  -5.863  0.00  0.00     0.002 A 
ATOM      6  C13 <0> d           1.518  -2.911  -6.046  0.00  0.00     0.032 A 
ATOM      7  C14 <0> d           0.613  -2.232  -5.226  0.00  0.00     0.076 A 
ATOM      8  N3  <0> d          -0.744  -2.198  -5.161  0.00  0.00    -0.190 N 
ATOM      9  C15 <0> d          -1.118  -1.395  -4.196  0.00  0.00     0.681 A 
ATOM     10  H21 <0> d          -1.344  -2.695  -5.739  0.00  0.00     0.184 HD
ENDROOT
BRANCH   1  11
ATOM     11  C8  <0> d          -0.023   0.089  -2.470  0.00  0.00     0.250 C 
BRANCH  11  12
ATOM     12  C7  <0> d           0.000  -0.672  -1.169  0.00  0.00     0.238 C 
ATOM     13  N1  <0> d           0.002  -0.004   0.002  0.00  0.00    -0.350 N 
ATOM     14  C1  <0> d          -0.018   1.461   0.010  0.00  0.00     0.153 C 
ATOM     15  O1  <0> d           0.017  -1.884  -1.175  0.00  0.00    -0.272 OA
BRANCH  13  16
ATOM     16  C2  <0> d           0.024  -0.743   1.267  0.00  0.00     0.171 C 
BRANCH  16  17
ATOM     17  C3  <0> d          -1.389  -1.016   1.714  0.00  0.00     0.000 A 
ATOM     18  S1  <0> d          -2.453  -0.023   2.748  0.00  0.00    -0.105 SA
ATOM     19  C6  <0> d          -3.883  -1.091   2.738  0.00  0.00     0.050 A 
ATOM     20  C5  <0> d          -3.458  -2.121   1.965  0.00  0.00     0.008 A 
ATOM     21  C4  <0> d          -2.180  -2.082   1.440  0.00  0.00     0.017 A 
ENDBRANCH  16  17
ENDBRANCH  13  16
ENDBRANCH  11  12
ENDBRANCH   1  11
BRANCH   9  22
ATOM     22  N4  <0> d          -2.426  -1.131  -3.848  0.00  0.00    -0.224 N 
ATOM     23  H15 <0> d          -2.620  -0.520  -3.119  0.00  0.00     0.177 HD
BRANCH  22  24
ATOM     24  C16 <0> d          -3.523  -1.772  -4.577  0.00  0.00     0.164 C 
BRANCH  24  25
ATOM     25  C17 <0> d          -4.861  -1.311  -3.996  0.00  0.00     0.184 C 
BRANCH  25  26
ATOM     26  O2  <0> d          -5.022   0.090  -4.225  0.00  0.00    -0.399 OA
ATOM     27  H20 <0> d          -5.851   0.452  -3.882  0.00  0.00     0.209 HD
ENDBRANCH  25  26
ENDBRANCH  24  25
ENDBRANCH  22  24
ENDBRANCH   9  22
TORSDOF 8
