REMARK  6 active torsions:
REMARK  status: ('A' for Active; 'I' for Inactive)
REMARK    1  A    between atoms: C2_2  and  C3_3 
REMARK    2  A    between atoms: C7_8  and  C19_24 
REMARK    3  A    between atoms: C8_9  and  O1_10 
REMARK    4  A    between atoms: C15_18  and  C16_19 
REMARK    5  A    between atoms: C16_19  and  O3_21 
REMARK    6  A    between atoms: O3_21  and  C17_22 
ROOT
ATOM      1  C3  <0> d          -1.470  -0.429  -0.048  0.00  0.00     0.014 C 
ATOM      2  C4  <0> d          -1.983   0.110  -1.349  0.00  0.00     0.044 C 
ATOM      3  C5  <0> d          -3.462   0.290  -1.420  0.00  0.00     0.277 C 
ATOM      4  N1  <0> d          -4.242  -0.621  -0.622  0.00  0.00     0.130 N 
ATOM      5  C6  <0> d          -3.849  -2.009  -0.647  0.00  0.00     0.289 C 
ATOM      6  C7  <0> d          -2.832  -2.454   0.382  0.00  0.00     0.039 C 
ATOM      7  C8  <0> d          -1.437  -1.939   0.011  0.00  0.00     0.140 C 
ATOM      8  C9  <0> d          -3.183  -1.887   1.763  0.00  0.00     0.289 C 
ATOM      9  N2  <0> d          -3.352  -0.434   1.604  0.00  0.00     0.131 N 
ATOM     10  C10 <0> d          -2.099   0.196   1.182  0.00  0.00     0.288 C 
ATOM     11  C11 <0> d          -4.473  -0.115   0.736  0.00  0.00     0.365 C 
ATOM     12  C12 <0> d          -4.729   1.409   0.723  0.00  0.00     0.077 C 
ATOM     13  C13 <0> d          -6.136   1.487   0.077  0.00  0.00     0.005 C 
ATOM     14  C14 <0> d          -6.891   0.273   0.668  0.00  0.00     0.019 C 
ATOM     15  C15 <0> d          -5.812  -0.660   1.268  0.00  0.00     0.156 C 
ENDROOT
BRANCH  15  16
ATOM     16  C16 <0> d          -5.867  -0.563   2.771  0.00  0.00     0.267 C 
ATOM     17  O2  <0> d          -4.932  -0.102   3.382  0.00  0.00    -0.265 OA
BRANCH  16  18
ATOM     18  O3  <0> d          -6.956  -0.988   3.432  0.00  0.00    -0.321 OA
BRANCH  18  19
ATOM     19  C17 <0> d          -6.940  -0.865   4.855  0.00  0.00     0.174 C 
ATOM     20  C18 <0> d          -8.255  -1.397   5.428  0.00  0.00     0.034 C 
ENDBRANCH  18  19
ENDBRANCH  16  18
ENDBRANCH  15  16
BRANCH   6  21
ATOM     21  C19 <0> d          -2.812  -3.982   0.449  0.00  0.00     0.011 C 
ATOM     22  C20 <0> d          -4.198  -4.494   0.847  0.00  0.00     0.006 C 
ENDBRANCH   6  21
BRANCH   1  23
ATOM     23  C2  <0> d           0.002  -0.004   0.002  0.00  0.00     0.009 C 
ATOM     24  C1  <0> d           0.752  -0.624  -1.178  0.00  0.00     0.006 C 
ENDBRANCH   1  23
BRANCH   7  25
ATOM     25  O1  <0> d          -0.485  -2.360   0.990  0.00  0.00    -0.394 OA
ATOM     26  H14 <0> d           0.418  -2.062   0.814  0.00  0.00     0.210 HD
ENDBRANCH   7  25
TORSDOF 6
