REMARK  7 active torsions:
REMARK  status: ('A' for Active; 'I' for Inactive)
REMARK    1  A    between atoms: C4_4  and  N6_29 
REMARK    2  A    between atoms: C7_7  and  N1_8 
REMARK       I    between atoms: N1_8  and  C8_9 
REMARK    3  A    between atoms: C8_9  and  C9_11 
REMARK       I    between atoms: C9_11  and  N2_13 
REMARK    4  A    between atoms: N2_13  and  C10_14 
REMARK    5  A    between atoms: C10_14  and  C11_15 
REMARK    6  A    between atoms: C11_15  and  C12_16 
REMARK    7  A    between atoms: C11_15  and  N4_22 
ROOT
ATOM      1  C9  <0> d          -1.453  -0.506   3.907  0.00  0.00     0.309 C 
ATOM      2  O2  <0> d          -2.508   0.028   4.180  0.00  0.00    -0.262 OA
ATOM      3  N2  <0> d          -1.106  -0.693   2.618  0.00  0.00    -0.350 N 
ATOM      4  H9  <0> d          -0.149  -1.177   2.371  0.00  0.00     0.162 HD
ENDROOT
BRANCH   3   5
ATOM      5  C10 <0> d          -2.002  -0.252   1.547  0.00  0.00     0.165 C 
BRANCH   5   6
ATOM      6  C11 <0> d          -1.309  -0.434   0.195  0.00  0.00     0.290 C 
BRANCH   6   7
ATOM      7  C12 <0> d          -0.765  -1.836   0.094  0.00  0.00     0.046 A 
ATOM      8  N3  <0> d          -1.500  -2.983   0.130  0.00  0.00    -0.363 N 
ATOM      9  C15 <0> d          -0.657  -4.048   0.007  0.00  0.00     0.090 A 
ATOM     10  C16 <0> d          -2.956  -3.060   0.273  0.00  0.00     0.155 C 
ATOM     11  C14 <0> d           0.603  -3.578  -0.096  0.00  0.00     0.019 A 
ATOM     12  C13 <0> d           0.534  -2.171  -0.041  0.00  0.00     0.029 A 
ENDBRANCH   6   7
BRANCH   6  13
ATOM     13  N4  <0> d          -0.207   0.529   0.076  0.00  0.00     0.103 N 
ATOM     14  C20 <0> d           0.659   0.488   1.262  0.00  0.00     0.301 C 
ATOM     15  C19 <0> d           1.836   1.446   1.065  0.00  0.00     0.264 C 
ATOM     16  N5  <0> d           1.326   2.805   0.836  0.00  0.00    -0.072 N 
ATOM     17  C18 <0> d           0.460   2.846  -0.350  0.00  0.00     0.264 C 
ATOM     18  C21 <0> d           2.428   3.768   0.717  0.00  0.00     0.269 C 
ATOM     19  H29 <0> d           0.720   3.092   1.709  0.00  0.00     0.279 HD
ATOM     20  C17 <0> d          -0.717   1.888  -0.153  0.00  0.00     0.301 C 
ENDBRANCH   6  13
ENDBRANCH   5   6
ENDBRANCH   3   5
BRANCH   1  21
ATOM     21  C8  <0> d          -0.539  -0.956   4.999  0.00  0.00     0.313 C 
ATOM     22  N1  <0> d          -0.886  -0.769   6.288  0.00  0.00    -0.319 N 
ATOM     23  H8  <0> d          -1.872  -0.349   6.537  0.00  0.00     0.169 HD
ATOM     24  O1  <0> d           0.516  -1.490   4.726  0.00  0.00    -0.262 OA
BRANCH  22  25
ATOM     25  C7  <0> d           0.007  -1.107   7.308  0.00  0.00     0.041 A 
ATOM     26  C2  <0> d          -0.058  -0.457   8.534  0.00  0.00    -0.033 A 
ATOM     27  C1  <0> d          -1.092   0.615   8.766  0.00  0.00     0.050 C 
ATOM     28  C3  <0> d           0.823  -0.797   9.542  0.00  0.00     0.045 A 
ATOM     29  C4  <0> d           1.775  -1.777   9.328  0.00  0.00     0.103 A 
ATOM     30  C5  <0> d           1.846  -2.423   8.107  0.00  0.00     0.038 A 
ATOM     31  C6  <0> d           0.965  -2.091   7.097  0.00  0.00     0.032 A 
BRANCH  29  32
ATOM     32  N6  <0> d           2.722  -2.135  10.409  0.00  0.00    -0.116 N 
ATOM     33  O3  <0> d           3.561  -2.997  10.222  0.00  0.00    -0.532 OA
ATOM     34  O4  <0> d           2.661  -1.567  11.484  0.00  0.00    -0.532 OA
ENDBRANCH  29  32
ENDBRANCH  22  25
ENDBRANCH   1  21
TORSDOF 7
