REMARK  2 active torsions:
REMARK  status: ('A' for Active; 'I' for Inactive)
REMARK    1  A    between atoms: C3_3  and  C11_14 
REMARK    2  A    between atoms: C4_4  and  N1_6 
ROOT
ATOM      1  C1  <0> d          -0.067   1.501  -0.014  0.00  0.00     0.003 C 
ATOM      2  C2  <0> d           1.429   1.905  -0.022  0.00  0.00     0.013 C 
ATOM      3  C3  <0> d           2.105   0.870   0.899  0.00  0.00     0.070 C 
ATOM      4  C4  <0> d           1.195  -0.371   0.908  0.00  0.00     0.106 C 
ATOM      5  C5  <0> d          -0.003  -0.046  -0.008  0.00  0.00     0.027 C 
ENDROOT
BRANCH   4   6
ATOM      6  N1  <0> d           0.728  -0.641   2.270  0.00  0.00    -0.282 N 
ATOM      7  C10 <0> d           0.871  -1.833   2.862  0.00  0.00     0.232 A 
ATOM      8  C9  <0> d           0.287  -1.769   4.257  0.00  0.00     0.092 A 
ATOM      9  O2  <0> d           1.388  -2.808   2.362  0.00  0.00    -0.272 OA
ATOM     10  C7  <0> d          -0.232  -0.321   4.366  0.00  0.00     0.092 A 
ATOM     11  C8  <0> d           0.905  -0.777   5.282  0.00  0.00     0.030 A 
ATOM     12  C6  <0> d           0.118   0.283   3.023  0.00  0.00     0.232 A 
ATOM     13  O1  <0> d          -0.117   1.423   2.683  0.00  0.00    -0.272 OA
ENDBRANCH   4   6
BRANCH   3  14
ATOM     14  C11 <0> d           3.465   0.510   0.360  0.00  0.00     0.077 C 
ATOM     15  S1  <0> d           3.712  -0.931  -0.289  0.00  0.00    -0.065 SA
ATOM     16  N2  <0> d           4.474   1.402   0.424  0.00  0.00    -0.393 N 
ATOM     17  H13 <0> d           4.324   2.275   0.818  0.00  0.00     0.156 HD
ATOM     18  H14 <0> d           5.349   1.170   0.077  0.00  0.00     0.156 HD
ENDBRANCH   3  14
TORSDOF 2
