REMARK  6 active torsions:
REMARK  status: ('A' for Active; 'I' for Inactive)
REMARK    1  A    between atoms: C2_2  and  C4_4 
REMARK    2  A    between atoms: C4_4  and  N1_5 
REMARK    3  A    between atoms: C5_6  and  C16_24 
REMARK    4  A    between atoms: C6_9  and  S1_10 
REMARK    5  A    between atoms: S1_10  and  C7_11 
REMARK    6  A    between atoms: C7_11  and  C8_12 
ROOT
ATOM      1  N1  <0> d          -1.474  -1.870  -0.110  0.00  0.00    -0.023 N 
ATOM      2  C5  <0> d          -2.788  -2.549   0.037  0.00  0.00     0.314 C 
ATOM      3  N2  <0> d          -2.570  -3.845  -0.657  0.00  0.00    -0.225 NA
ATOM      4  N3  <0> d          -1.725  -3.507  -1.806  0.00  0.00    -0.221 NA
ATOM      5  C6  <0> d          -1.021  -2.254  -1.466  0.00  0.00     0.340 C 
ATOM      6  H13 <0> d          -2.108  -4.507  -0.051  0.00  0.00     0.143 HD
ATOM      7  H14 <0> d          -1.069  -4.248  -2.003  0.00  0.00     0.143 HD
ATOM      8  H25 <0> d          -0.823  -2.200   0.587  0.00  0.00     0.285 HD
ENDROOT
BRANCH   5   9
ATOM      9  S1  <0> d           0.772  -2.529  -1.468  0.00  0.00    -0.112 SA
BRANCH   9  10
ATOM     10  C7  <0> d           1.012  -3.869  -0.270  0.00  0.00     0.155 C 
BRANCH  10  11
ATOM     11  C8  <0> d           2.479  -4.200  -0.173  0.00  0.00     0.116 A 
ATOM     12  N5  <0> d           3.312  -3.529  -0.909  0.00  0.00    -0.234 NA
ATOM     13  C15 <0> d           4.647  -3.767  -0.871  0.00  0.00     0.074 A 
ATOM     14  C10 <0> d           5.138  -4.780  -0.018  0.00  0.00     0.061 A 
ATOM     15  C14 <0> d           5.543  -3.041  -1.657  0.00  0.00     0.032 A 
ATOM     16  C9  <0> d           4.168  -5.526   0.797  0.00  0.00     0.259 A 
ATOM     17  C11 <0> d           6.504  -5.047   0.034  0.00  0.00     0.019 A 
ATOM     18  N4  <0> d           2.862  -5.190   0.675  0.00  0.00    -0.310 N 
ATOM     19  O1  <0> d           4.524  -6.411   1.553  0.00  0.00    -0.267 OA
ATOM     20  H3  <0> d           2.194  -5.661   1.197  0.00  0.00     0.170 HD
ATOM     21  C12 <0> d           7.369  -4.317  -0.751  0.00  0.00     0.001 A 
ATOM     22  C13 <0> d           6.890  -3.320  -1.591  0.00  0.00     0.002 A 
ENDBRANCH  10  11
ENDBRANCH   9  10
ENDBRANCH   5   9
BRANCH   1  23
ATOM     23  C4  <0> d          -1.634  -0.413  -0.014  0.00  0.00     0.244 C 
BRANCH  23  24
ATOM     24  C2  <0> d          -0.268   0.261  -0.154  0.00  0.00     0.003 C 
ATOM     25  C1  <0> d          -0.449   1.780  -0.180  0.00  0.00     0.011 C 
ATOM     26  C3  <0> d           0.616  -0.127   1.032  0.00  0.00     0.011 C 
ENDBRANCH  23  24
ENDBRANCH   1  23
BRANCH   2  27
ATOM     27  C16 <0> d          -3.117  -2.768   1.492  0.00  0.00     0.026 A 
ATOM     28  C21 <0> d          -4.437  -2.868   1.896  0.00  0.00     0.126 A 
ATOM     29  C20 <0> d          -4.737  -3.074   3.232  0.00  0.00     0.043 A 
ATOM     30  F1  <0> d          -5.432  -2.769   0.988  0.00  0.00    -0.205 F 
ATOM     31  C19 <0> d          -3.718  -3.169   4.162  0.00  0.00     0.003 A 
ATOM     32  C18 <0> d          -2.401  -3.064   3.757  0.00  0.00     0.001 A 
ATOM     33  C17 <0> d          -2.100  -2.863   2.423  0.00  0.00     0.013 A 
ENDBRANCH   2  27
TORSDOF 6
