REMARK  7 active torsions:
REMARK  status: ('A' for Active; 'I' for Inactive)
REMARK    1  A    between atoms: S1_2  and  C2_5 
REMARK    2  A    between atoms: C5_8  and  C8_11 
REMARK    3  A    between atoms: C8_11  and  C9_12 
REMARK    4  A    between atoms: C8_11  and  O3_28 
REMARK    5  A    between atoms: C9_12  and  N1_13 
REMARK    6  A    between atoms: C13_17  and  C14_18 
REMARK    7  A    between atoms: C14_18  and  N2_19 
ROOT
ATOM      1  N1  <0> d           4.098  -3.312  -6.188  0.00  0.00    -0.063 N 
ATOM      2  C10 <0> d           3.373  -2.905  -7.411  0.00  0.00     0.235 C 
ATOM      3  C11 <0> d           3.703  -4.005  -8.451  0.00  0.00     0.030 C 
ATOM      4  C12 <0> d           3.722  -5.279  -7.565  0.00  0.00     0.036 C 
ATOM      5  C13 <0> d           4.319  -4.769  -6.236  0.00  0.00     0.206 C 
ATOM      6  H29 <0> d           4.986  -2.835  -6.148  0.00  0.00     0.280 HD
ENDROOT
BRANCH   1   7
ATOM      7  C9  <0> d           3.299  -2.973  -5.003  0.00  0.00     0.271 C 
BRANCH   7   8
ATOM      8  C8  <0> d           3.139  -1.454  -4.914  0.00  0.00     0.177 C 
BRANCH   8   9
ATOM      9  C5  <0> d           2.299  -1.107  -3.712  0.00  0.00    -0.028 A 
ATOM     10  C4  <0> d           0.953  -0.828  -3.867  0.00  0.00     0.011 A 
ATOM     11  C3  <0> d           0.182  -0.511  -2.765  0.00  0.00     0.024 A 
ATOM     12  C2  <0> d           0.756  -0.472  -1.508  0.00  0.00     0.058 A 
ATOM     13  C7  <0> d           2.102  -0.745  -1.354  0.00  0.00     0.024 A 
ATOM     14  C6  <0> d           2.873  -1.067  -2.455  0.00  0.00     0.011 A 
BRANCH  12  15
ATOM     15  S1  <0> d          -0.228  -0.067  -0.103  0.00  0.00     0.171 S 
ATOM     16  C1  <0> d          -0.117   1.738   0.039  0.00  0.00     0.167 C 
ATOM     17  O1  <0> d           0.433  -0.686   0.993  0.00  0.00    -0.223 OA
ATOM     18  O2  <0> d          -1.548  -0.450  -0.462  0.00  0.00    -0.223 OA
ENDBRANCH  12  15
ENDBRANCH   8   9
BRANCH   8  19
ATOM     19  O3  <0> d           4.426  -0.846  -4.786  0.00  0.00    -0.389 OA
ATOM     20  H28 <0> d           4.918  -1.128  -4.003  0.00  0.00     0.210 HD
ENDBRANCH   8  19
ENDBRANCH   7   8
ENDBRANCH   1   7
BRANCH   5  21
ATOM     21  C14 <0> d           3.614  -5.442  -5.057  0.00  0.00     0.156 C 
BRANCH  21  22
ATOM     22  N2  <0> d           3.905  -6.878  -5.068  0.00  0.00    -0.378 N 
ATOM     23  C18 <0> d           4.950  -7.487  -4.371  0.00  0.00     0.036 A 
ATOM     24  C17 <0> d           4.968  -8.859  -4.574  0.00  0.00    -0.030 A 
ATOM     25  C19 <0> d           5.914  -6.912  -3.542  0.00  0.00     0.030 A 
ATOM     26  C16 <0> d           3.835  -9.222  -5.508  0.00  0.00     0.060 A 
ATOM     27  C22 <0> d           5.927  -9.644  -3.965  0.00  0.00     0.009 A 
ATOM     28  C15 <0> d           3.147  -7.883  -5.818  0.00  0.00     0.128 A 
ATOM     29  C21 <0> d           6.885  -9.066  -3.152  0.00  0.00     0.001 A 
ATOM     30  C20 <0> d           6.872  -7.700  -2.939  0.00  0.00     0.002 A 
ENDBRANCH  21  22
ENDBRANCH   5  21
TORSDOF 7
