REMARK  4 active torsions:
REMARK  status: ('A' for Active; 'I' for Inactive)
REMARK    1  A    between atoms: C3_3  and  N2_10 
REMARK    2  A    between atoms: C5_5  and  N1_7 
REMARK       I    between atoms: N2_10  and  C7_11 
REMARK    3  A    between atoms: C7_11  and  C8_13 
REMARK       I    between atoms: C8_13  and  N3_15 
REMARK    4  A    between atoms: N3_15  and  N4_16 
ROOT
ATOM      1  C8  <0> d           4.849   4.220  -0.237  0.00  0.00     0.329 C 
ATOM      2  O4  <0> d           5.905   3.623  -0.250  0.00  0.00    -0.261 OA
ATOM      3  N3  <0> d           4.834   5.565  -0.332  0.00  0.00    -0.238 N 
ATOM      4  H6  <0> d           3.990   6.042  -0.321  0.00  0.00     0.192 HD
ENDROOT
BRANCH   1   5
ATOM      5  C7  <0> d           3.567   3.466  -0.116  0.00  0.00     0.315 C 
ATOM      6  N2  <0> d           3.583   2.122  -0.021  0.00  0.00    -0.319 N 
ATOM      7  H5  <0> d           4.427   1.650   0.045  0.00  0.00     0.169 HD
ATOM      8  O3  <0> d           2.511   4.064  -0.103  0.00  0.00    -0.262 OA
BRANCH   6   9
ATOM      9  C3  <0> d           2.381   1.408  -0.019  0.00  0.00     0.037 A 
ATOM     10  C2  <0> d           1.298   1.867  -0.757  0.00  0.00     0.029 A 
ATOM     11  C1  <0> d           0.112   1.159  -0.753  0.00  0.00     0.005 A 
ATOM     12  C6  <0> d           0.003  -0.006  -0.015  0.00  0.00     0.036 A 
ATOM     13  C5  <0> d           1.080  -0.465   0.721  0.00  0.00     0.105 A 
ATOM     14  C4  <0> d           2.268   0.238   0.721  0.00  0.00     0.065 A 
BRANCH  13  15
ATOM     15  N1  <0> d           0.959  -1.713   1.509  0.00  0.00    -0.116 N 
ATOM     16  O1  <0> d           1.900  -2.115   2.152  0.00  0.00    -0.532 OA
ATOM     17  O2  <0> d          -0.081  -2.329   1.509  0.00  0.00    -0.532 OA
ENDBRANCH  13  15
ENDBRANCH   6   9
ENDBRANCH   1   5
BRANCH   3  18
ATOM     18  N4  <0> d           6.037   6.272  -0.446  0.00  0.00    -0.165 NA
ATOM     19  C9  <0> d           6.023   7.580  -0.538  0.00  0.00     0.157 A 
ATOM     20  C16 <0> d           4.842   8.469  -0.539  0.00  0.00     0.277 A 
ATOM     21  C10 <0> d           7.185   8.489  -0.670  0.00  0.00     0.028 A 
ATOM     22  N5  <0> d           5.279   9.735  -0.649  0.00  0.00    -0.321 N 
ATOM     23  O5  <0> d           3.681   8.117  -0.454  0.00  0.00    -0.266 OA
ATOM     24  C15 <0> d           6.667   9.789  -0.733  0.00  0.00     0.048 A 
ATOM     25  H10 <0> d           4.700  10.513  -0.671  0.00  0.00     0.169 HD
ATOM     26  C14 <0> d           7.544  10.860  -0.858  0.00  0.00     0.032 A 
ATOM     27  C13 <0> d           8.905  10.639  -0.920  0.00  0.00     0.021 A 
ATOM     28  C12 <0> d           9.414   9.352  -0.858  0.00  0.00     0.011 A 
ATOM     29  C11 <0> d           8.558   8.275  -0.733  0.00  0.00     0.035 A 
ATOM     30 Br1  <0> d          11.281   9.069  -0.945  0.00  0.00    -0.051 Br
ENDBRANCH   3  18
TORSDOF 4
