REMARK  6 active torsions:
REMARK  status: ('A' for Active; 'I' for Inactive)
REMARK    1  A    between atoms: C7_7  and  N1_11 
REMARK       I    between atoms: N1_11  and  C10_12 
REMARK       I    between atoms: C10_12  and  N2_14 
REMARK    2  A    between atoms: N2_14  and  C11_15 
REMARK    3  A    between atoms: C11_15  and  C12_16 
REMARK    4  A    between atoms: C12_16  and  C13_17 
REMARK    5  A    between atoms: C12_16  and  O2_24 
REMARK    6  A    between atoms: C13_17  and  N3_18 
ROOT
ATOM      1  N1  <0> d          -0.048  -2.624   0.725  0.00  0.00    -0.334 N 
ATOM      2  C10 <0> d          -1.274  -2.646   0.167  0.00  0.00     0.316 C 
ATOM      3  O1  <0> d          -1.420  -2.316  -0.994  0.00  0.00    -0.247 OA
ATOM      4  N2  <0> d          -2.339  -3.035   0.896  0.00  0.00    -0.341 N 
ATOM      5  H11 <0> d           0.069  -2.888   1.651  0.00  0.00     0.165 HD
ATOM      6  H12 <0> d          -2.223  -3.298   1.822  0.00  0.00     0.164 HD
ENDROOT
BRANCH   1   7
ATOM      7  C7  <0> d           1.110  -2.202  -0.068  0.00  0.00     0.121 C 
ATOM      8  C5  <0> d           1.206  -0.705  -0.017  0.00  0.00    -0.019 A 
ATOM      9  C4  <0> d           2.390   0.006  -0.010  0.00  0.00     0.008 A 
ATOM     10  C6  <0> d           0.002  -0.004   0.002  0.00  0.00     0.010 A 
ATOM     11  C3  <0> d           2.369   1.401  -0.004  0.00  0.00     0.019 A 
ATOM     12  S1  <0> d           3.963  -0.796   0.002  0.00  0.00    -0.129 SA
ATOM     13  C2  <0> d           1.171   2.083   0.002  0.00  0.00     0.001 A 
ATOM     14  C1  <0> d          -0.017   1.374   0.010  0.00  0.00     0.001 A 
ATOM     15  C9  <0> d           3.555  -2.522  -0.395  0.00  0.00     0.082 C 
ATOM     16  C8  <0> d           2.343  -2.911   0.464  0.00  0.00     0.040 C 
ENDBRANCH   1   7
BRANCH   4  17
ATOM     17  C11 <0> d          -3.672  -3.059   0.289  0.00  0.00     0.157 C 
BRANCH  17  18
ATOM     18  C12 <0> d          -4.695  -3.534   1.324  0.00  0.00     0.161 C 
BRANCH  18  19
ATOM     19  C13 <0> d          -6.065  -3.678   0.658  0.00  0.00     0.268 C 
BRANCH  19  20
ATOM     20  N3  <0> d          -7.046  -4.134   1.651  0.00  0.00    -0.069 N 
ATOM     21  C18 <0> d          -8.382  -4.158   1.042  0.00  0.00     0.235 C 
ATOM     22  C17 <0> d          -9.419  -4.554   2.095  0.00  0.00     0.028 C 
ATOM     23  C16 <0> d          -9.080  -5.944   2.640  0.00  0.00     0.003 C 
ATOM     24  C15 <0> d          -7.657  -5.927   3.205  0.00  0.00     0.028 C 
ATOM     25  C14 <0> d          -6.685  -5.480   2.112  0.00  0.00     0.235 C 
ATOM     26  H28 <0> d          -7.047  -3.501   2.437  0.00  0.00     0.280 HD
ENDBRANCH  19  20
ENDBRANCH  18  19
BRANCH  18  27
ATOM     27  O2  <0> d          -4.779  -2.579   2.384  0.00  0.00    -0.392 OA
ATOM     28  H27 <0> d          -5.051  -1.696   2.097  0.00  0.00     0.210 HD
ENDBRANCH  18  27
ENDBRANCH  17  18
ENDBRANCH   4  17
TORSDOF 6
