REMARK  4 active torsions:
REMARK  status: ('A' for Active; 'I' for Inactive)
REMARK    1  A    between atoms: C4_4  and  C10_13 
REMARK    2  A    between atoms: N1_6  and  C6_7 
REMARK    3  A    between atoms: C12_16  and  C13_18 
REMARK    4  A    between atoms: C13_18  and  N4_19 
ROOT
ATOM      1  C10 <0> d           0.041  -3.341  -1.521  0.00  0.00     0.076 A 
ATOM      2  C11 <0> d           0.039  -3.249  -2.886  0.00  0.00     0.084 A 
ATOM      3  S2  <0> d           0.057  -4.977  -3.333  0.00  0.00    -0.083 SA
ATOM      4  C12 <0> d           0.065  -5.622  -1.779  0.00  0.00     0.094 A 
ATOM      5  N3  <0> d           0.059  -4.563  -1.010  0.00  0.00    -0.243 NA
ENDROOT
BRANCH   1   6
ATOM      6  C4  <0> d           0.028  -2.134  -0.656  0.00  0.00     0.018 A 
ATOM      7  C3  <0> d           0.008  -0.785  -1.095  0.00  0.00     0.041 A 
ATOM      8  C2  <0> d           0.002  -0.004   0.002  0.00  0.00     0.016 A 
ATOM      9  C1  <0> d          -0.018   1.503   0.010  0.00  0.00     0.068 C 
ATOM     10  N1  <0> d           0.024  -0.809   1.107  0.00  0.00    -0.298 N 
ATOM     11  C5  <0> d           0.034  -2.114   0.703  0.00  0.00     0.028 A 
ATOM     12  C9  <0> d           0.053  -3.321   1.605  0.00  0.00     0.070 C 
BRANCH  10  13
ATOM     13  C6  <0> d           0.030  -0.370   2.429  0.00  0.00     0.177 A 
ATOM     14  S1  <0> d           0.013   1.211   3.006  0.00  0.00    -0.062 SA
ATOM     15  C8  <0> d           0.033   0.836   4.752  0.00  0.00     0.072 A 
ATOM     16  C7  <0> d           0.059  -0.519   4.719  0.00  0.00     0.126 A 
ATOM     17  N2  <0> d           0.057  -1.090   3.529  0.00  0.00    -0.236 NA
ENDBRANCH  10  13
ENDBRANCH   1   6
BRANCH   4  18
ATOM     18  C13 <0> d           0.080  -7.072  -1.370  0.00  0.00     0.204 C 
BRANCH  18  19
ATOM     19  N4  <0> d          -1.296  -7.557  -1.237  0.00  0.00    -0.263 N 
ATOM     20  C16 <0> d          -1.999  -8.106  -2.235  0.00  0.00     0.325 A 
ATOM     21  N5  <0> d          -3.236  -8.470  -1.852  0.00  0.00    -0.334 N 
ATOM     22  O2  <0> d          -1.567  -8.260  -3.360  0.00  0.00    -0.247 OA
ATOM     23  C15 <0> d          -3.361  -8.107  -0.429  0.00  0.00     0.227 A 
ATOM     24  H15 <0> d          -3.915  -8.887  -2.405  0.00  0.00     0.164 HD
ATOM     25  C14 <0> d          -2.012  -7.500  -0.097  0.00  0.00     0.245 A 
ATOM     26  O1  <0> d          -1.653  -7.055   0.972  0.00  0.00    -0.271 OA
ENDBRANCH  18  19
ENDBRANCH   4  18
TORSDOF 4
