REMARK  7 active torsions:
REMARK  status: ('A' for Active; 'I' for Inactive)
REMARK    1  A    between atoms: C2_2  and  O1_3 
REMARK    2  A    between atoms: O1_3  and  C3_4 
REMARK    3  A    between atoms: C5_6  and  C9_11 
REMARK    4  A    between atoms: C8_9  and  O2_10 
REMARK    5  A    between atoms: C15_21  and  S1_24 
REMARK    6  A    between atoms: S1_24  and  C17_25 
REMARK    7  A    between atoms: C17_25  and  C18_26 
ROOT
ATOM      1  C9  <0> d           1.175   3.548   0.010  0.00  0.00     0.070 C 
ATOM      2  C10 <0> d          -0.014   4.063   0.823  0.00  0.00     0.117 C 
ATOM      3  C11 <0> d          -1.266   3.339   0.401  0.00  0.00     0.224 C 
ATOM      4  O3  <0> d          -2.327   3.925   0.399  0.00  0.00    -0.273 OA
ATOM      5  N1  <0> d          -1.215   2.048   0.030  0.00  0.00    -0.312 N 
ATOM      6  C12 <0> d          -0.017   1.366   0.010  0.00  0.00     0.124 A 
ATOM      7  C13 <0> d           1.163   2.044   0.002  0.00  0.00     0.065 A 
ATOM      8  C14 <0> d           2.372   1.318  -0.013  0.00  0.00     0.280 A 
ATOM      9  O4  <0> d           3.443   1.907  -0.019  0.00  0.00    -0.265 OA
ATOM     10  N2  <0> d           2.337  -0.024  -0.019  0.00  0.00    -0.185 NA
ATOM     11  C15 <0> d           1.190  -0.671  -0.012  0.00  0.00     0.173 A 
ATOM     12  N3  <0> d           0.002  -0.004   0.002  0.00  0.00    -0.316 N 
ATOM     13  C16 <0> d          -1.257  -0.753   0.009  0.00  0.00     0.160 C 
ATOM     14  H13 <0> d          -2.031   1.592  -0.228  0.00  0.00     0.170 HD
ENDROOT
BRANCH   1  15
ATOM     15  C5  <0> d           1.076   4.059  -1.405  0.00  0.00    -0.046 A 
ATOM     16  C4  <0> d           2.081   4.853  -1.924  0.00  0.00     0.047 A 
ATOM     17  C3  <0> d           1.994   5.319  -3.226  0.00  0.00     0.102 A 
ATOM     18  C8  <0> d           0.887   4.995  -4.005  0.00  0.00     0.099 A 
ATOM     19  C7  <0> d          -0.120   4.203  -3.477  0.00  0.00     0.040 A 
ATOM     20  C6  <0> d          -0.024   3.737  -2.179  0.00  0.00     0.011 A 
BRANCH  17  21
ATOM     21  O1  <0> d           2.985   6.096  -3.740  0.00  0.00    -0.349 OA
BRANCH  21  22
ATOM     22  C2  <0> d           4.090   6.388  -2.882  0.00  0.00     0.171 C 
ATOM     23  C1  <0> d           5.096   7.267  -3.629  0.00  0.00     0.034 C 
ENDBRANCH  21  22
ENDBRANCH  17  21
BRANCH  18  24
ATOM     24  O2  <0> d           0.794   5.454  -5.281  0.00  0.00    -0.358 OA
ATOM     25  H10 <0> d           0.351   6.310  -5.360  0.00  0.00     0.217 HD
ENDBRANCH  18  24
ENDBRANCH   1  15
BRANCH  11  26
ATOM     26  S1  <0> d           1.192  -2.433  -0.020  0.00  0.00    -0.087 SA
BRANCH  26  27
ATOM     27  C17 <0> d           2.975  -2.745  -0.038  0.00  0.00     0.121 C 
BRANCH  27  28
ATOM     28  C18 <0> d           3.224  -4.231  -0.047  0.00  0.00    -0.048 A 
ATOM     29  C23 <0> d           3.355  -4.917   1.146  0.00  0.00     0.014 A 
ATOM     30  C22 <0> d           3.579  -6.282   1.137  0.00  0.00    -0.061 A 
ATOM     31  C21 <0> d           3.683  -6.958  -0.064  0.00  0.00     0.007 A 
ATOM     32  C24 <0> d           3.717  -7.031   2.438  0.00  0.00     0.048 C 
ATOM     33  C20 <0> d           3.557  -6.270  -1.257  0.00  0.00     0.001 A 
ATOM     34  C19 <0> d           3.328  -4.907  -1.248  0.00  0.00     0.008 A 
ENDBRANCH  27  28
ENDBRANCH  26  27
ENDBRANCH  11  26
TORSDOF 7
