REMARK  6 active torsions:
REMARK  status: ('A' for Active; 'I' for Inactive)
REMARK    1  A    between atoms: C2_2  and  C3_3 
REMARK    2  A    between atoms: C3_3  and  C4_4 
REMARK    3  A    between atoms: C4_4  and  C6_6 
REMARK       I    between atoms: C6_6  and  N1_8 
REMARK    4  A    between atoms: C8_10  and  C15_18 
REMARK       I    between atoms: C15_18  and  N3_20 
REMARK    5  A    between atoms: N3_20  and  C16_21 
REMARK    6  A    between atoms: C16_21  and  C17_22 
ROOT
ATOM      1  C6  <0> d          -2.739  -2.510  -0.421  0.00  0.00     0.223 C 
ATOM      2  O1  <0> d          -3.692  -1.803  -0.668  0.00  0.00    -0.273 OA
ATOM      3  N1  <0> d          -2.911  -3.835  -0.241  0.00  0.00    -0.350 N 
ATOM      4  C7  <0> d          -1.900  -4.834   0.177  0.00  0.00     0.140 C 
ATOM      5  C8  <0> d          -2.657  -5.778   1.137  0.00  0.00     0.106 C 
ATOM      6  C9  <0> d          -4.137  -5.636   0.741  0.00  0.00    -0.007 C 
ATOM      7  C10 <0> d          -4.157  -4.620  -0.410  0.00  0.00     0.136 C 
ATOM      8  C11 <0> d          -4.950  -5.106   1.919  0.00  0.00     0.039 C 
ATOM      9  C12 <0> d          -6.426  -5.026   1.519  0.00  0.00     0.233 C 
ATOM     10  N2  <0> d          -6.902  -6.360   1.130  0.00  0.00    -0.075 N 
ATOM     11  C13 <0> d          -6.177  -6.823  -0.059  0.00  0.00     0.233 C 
ATOM     12  C14 <0> d          -4.691  -6.978   0.274  0.00  0.00     0.039 C 
ATOM     13  H21 <0> d          -6.746  -7.005   1.890  0.00  0.00     0.277 HD
ATOM     14  H36 <0> d          -7.889  -6.317   0.926  0.00  0.00     0.277 HD
ENDROOT
BRANCH   5  15
ATOM     15  C15 <0> d          -2.451  -5.349   2.567  0.00  0.00     0.224 C 
ATOM     16  O2  <0> d          -2.191  -4.192   2.821  0.00  0.00    -0.273 OA
ATOM     17  N3  <0> d          -2.554  -6.252   3.563  0.00  0.00    -0.355 N 
ATOM     18  H26 <0> d          -2.762  -7.177   3.359  0.00  0.00     0.162 HD
BRANCH  17  19
ATOM     19  C16 <0> d          -2.353  -5.835   4.953  0.00  0.00     0.181 C 
BRANCH  19  20
ATOM     20  C17 <0> d          -2.523  -7.023   5.863  0.00  0.00     0.044 A 
ATOM     21  N5  <0> d          -1.574  -7.910   6.171  0.00  0.00    -0.343 N 
ATOM     22  C23 <0> d          -2.077  -8.816   6.998  0.00  0.00     0.112 A 
ATOM     23  H37 <0> d          -0.661  -7.893   5.844  0.00  0.00     0.167 HD
ATOM     24  N4  <0> d          -3.393  -8.504   7.220  0.00  0.00    -0.311 N 
ATOM     25  C22 <0> d          -1.515  -9.950   7.620  0.00  0.00     0.049 A 
ATOM     26  C18 <0> d          -3.663  -7.372   6.500  0.00  0.00     0.125 A 
ATOM     27  C19 <0> d          -4.160  -9.283   8.037  0.00  0.00     0.014 A 
ATOM     28  C20 <0> d          -3.636 -10.371   8.639  0.00  0.00     0.025 A 
ATOM     29  C24 <0> d          -5.605  -8.924   8.270  0.00  0.00     0.068 C 
ATOM     30  C21 <0> d          -2.291 -10.717   8.432  0.00  0.00     0.006 A 
ENDBRANCH  19  20
ENDBRANCH  17  19
ENDBRANCH   5  15
BRANCH   1  31
ATOM     31  C4  <0> d          -1.361  -1.909  -0.315  0.00  0.00     0.074 C 
ATOM     32  C5  <0> d          -1.462  -0.506   0.289  0.00  0.00     0.020 C 
BRANCH  31  33
ATOM     33  C3  <0> d          -0.734  -1.820  -1.708  0.00  0.00     0.013 C 
BRANCH  33  34
ATOM     34  C2  <0> d           0.709  -1.326  -1.587  0.00  0.00    -0.004 C 
ATOM     35  C1  <0> d           1.335  -1.238  -2.980  0.00  0.00     0.005 C 
ENDBRANCH  33  34
ENDBRANCH  31  33
ENDBRANCH   1  31
TORSDOF 6
