REMARK  7 active torsions:
REMARK  status: ('A' for Active; 'I' for Inactive)
REMARK    1  A    between atoms: C2_2  and  N1_4 
REMARK    2  A    between atoms: C8_10  and  N3_15 
REMARK    3  A    between atoms: C9_11  and  C10_12 
REMARK       I    between atoms: C10_12  and  N2_14 
REMARK       I    between atoms: N3_15  and  C11_16 
REMARK    4  A    between atoms: C11_16  and  C12_18 
REMARK    5  A    between atoms: C14_20  and  O6_29 
REMARK    6  A    between atoms: C15_21  and  O5_27 
REMARK    7  A    between atoms: C17_23  and  N4_24 
ROOT
ATOM      1  N1  <0> d          -1.091  -0.548   0.206  0.00  0.00    -0.063 N 
ATOM      2  C4  <0> d          -1.112  -1.994   0.463  0.00  0.00     0.240 C 
ATOM      3  C5  <0> d          -2.447  -2.399   1.098  0.00  0.00     0.068 C 
ATOM      4  C6  <0> d          -3.565  -1.849   0.223  0.00  0.00    -0.023 A 
ATOM      5  C7  <0> d          -3.307  -0.875  -0.679  0.00  0.00     0.018 A 
ATOM      6  S1  <0> d          -4.863  -0.558  -1.453  0.00  0.00    -0.074 SA
ATOM      7  C8  <0> d          -5.824  -1.660  -0.625  0.00  0.00     0.093 A 
ATOM      8  C9  <0> d          -4.949  -2.281   0.254  0.00  0.00     0.073 A 
ATOM      9  C20 <0> d          -1.978  -0.234  -0.929  0.00  0.00     0.282 C 
ATOM     10  H25 <0> d          -1.409  -0.057   1.028  0.00  0.00     0.280 HD
ENDROOT
BRANCH   7  11
ATOM     11  N3  <0> d          -7.180  -1.895  -0.784  0.00  0.00    -0.316 N 
ATOM     12  C11 <0> d          -7.883  -1.192  -1.695  0.00  0.00     0.259 C 
ATOM     13  O2  <0> d          -7.328  -0.353  -2.377  0.00  0.00    -0.267 OA
ATOM     14  H14 <0> d          -7.624  -2.564  -0.240  0.00  0.00     0.169 HD
BRANCH  12  15
ATOM     15  C12 <0> d          -9.328  -1.442  -1.864  0.00  0.00     0.068 A 
ATOM     16  C17 <0> d         -10.237  -0.387  -1.763  0.00  0.00     0.121 A 
ATOM     17  C16 <0> d         -11.586  -0.621  -1.927  0.00  0.00     0.076 A 
ATOM     18  C15 <0> d         -12.044  -1.906  -2.182  0.00  0.00     0.103 A 
ATOM     19  C14 <0> d         -11.142  -2.965  -2.279  0.00  0.00     0.102 A 
ATOM     20  C13 <0> d          -9.790  -2.737  -2.121  0.00  0.00     0.059 A 
BRANCH  16  21
ATOM     21  N4  <0> d          -9.752   0.984  -1.485  0.00  0.00    -0.115 N 
ATOM     22  O3  <0> d         -10.525   1.914  -1.505  0.00  0.00    -0.532 OA
ATOM     23  O4  <0> d          -8.584   1.173  -1.238  0.00  0.00    -0.532 OA
ENDBRANCH  16  21
BRANCH  18  24
ATOM     24  O5  <0> d         -13.374  -2.132  -2.337  0.00  0.00    -0.353 OA
ATOM     25  C18 <0> d         -14.242  -1.002  -2.225  0.00  0.00     0.210 C 
ENDBRANCH  18  24
BRANCH  19  26
ATOM     26  O6  <0> d         -11.595  -4.223  -2.529  0.00  0.00    -0.353 OA
ATOM     27  C19 <0> d         -10.615  -5.260  -2.615  0.00  0.00     0.210 C 
ENDBRANCH  19  26
ENDBRANCH  12  15
ENDBRANCH   7  11
BRANCH   8  28
ATOM     28  C10 <0> d          -5.403  -3.328   1.174  0.00  0.00     0.252 C 
ATOM     29  O1  <0> d          -5.803  -3.031   2.284  0.00  0.00    -0.268 OA
ATOM     30  N2  <0> d          -5.377  -4.620   0.790  0.00  0.00    -0.366 N 
ATOM     31  H12 <0> d          -5.058  -4.857  -0.095  0.00  0.00     0.159 HD
ATOM     32  H13 <0> d          -5.678  -5.313   1.399  0.00  0.00     0.159 HD
ENDBRANCH   8  28
BRANCH   1  33
ATOM     33  C2  <0> d           0.280  -0.129  -0.114  0.00  0.00     0.180 C 
ATOM     34  C1  <0> d           0.284   1.353  -0.494  0.00  0.00     0.039 C 
ATOM     35  C3  <0> d           1.178  -0.345   1.106  0.00  0.00     0.039 C 
ENDBRANCH   1  33
TORSDOF 7
