REMARK  7 active torsions:
REMARK  status: ('A' for Active; 'I' for Inactive)
REMARK    1  A    between atoms: C2_2  and  C3_3 
REMARK    2  A    between atoms: C3_3  and  C4_4 
REMARK    3  A    between atoms: C4_4  and  N1_5 
REMARK    4  A    between atoms: N1_5  and  C6_7 
REMARK    5  A    between atoms: C14_15  and  O1_16 
REMARK    6  A    between atoms: N2_19  and  C19_22 
REMARK    7  A    between atoms: C19_22  and  C20_23 
ROOT
ATOM      1  C6  <0> d          -1.268  -5.023   4.527  0.00  0.00     0.250 C 
ATOM      2  C7  <0> d          -0.334  -5.154   5.712  0.00  0.00    -0.018 A 
ATOM      3  C8  <0> d          -0.578  -5.596   7.001  0.00  0.00     0.010 A 
ATOM      4  C9  <0> d           0.443  -5.628   7.931  0.00  0.00     0.001 A 
ATOM      5  C10 <0> d           1.714  -5.218   7.573  0.00  0.00     0.001 A 
ATOM      6  C11 <0> d           1.960  -4.777   6.288  0.00  0.00     0.009 A 
ATOM      7  C12 <0> d           0.937  -4.743   5.354  0.00  0.00    -0.038 A 
ATOM      8  C13 <0> d           0.941  -4.311   3.907  0.00  0.00     0.019 C 
ATOM      9  C14 <0> d          -0.344  -4.900   3.296  0.00  0.00     0.166 C 
ATOM     10  C15 <0> d           2.165  -4.870   3.188  0.00  0.00     0.047 C 
ATOM     11  C16 <0> d           2.160  -4.393   1.733  0.00  0.00     0.274 C 
ATOM     12  N2  <0> d           2.158  -2.925   1.699  0.00  0.00     0.095 N 
ATOM     13  C17 <0> d           0.950  -2.378   2.331  0.00  0.00     0.274 C 
ATOM     14  C18 <0> d           0.916  -2.788   3.806  0.00  0.00     0.047 C 
ENDROOT
BRANCH   9  15
ATOM     15  O1  <0> d          -0.091  -6.183   2.720  0.00  0.00    -0.392 OA
ATOM     16  H20 <0> d           0.552  -6.271   1.832  0.00  0.00     0.210 HD
ENDBRANCH   9  15
BRANCH   1  17
ATOM     17  N1  <0> d          -2.100  -3.820   4.662  0.00  0.00    -0.064 N 
ATOM     18  C5  <0> d          -2.985  -3.659   3.500  0.00  0.00     0.270 C 
ATOM     19  H33 <0> d          -1.430  -2.948   4.699  0.00  0.00     0.280 HD
BRANCH  17  20
ATOM     20  C4  <0> d          -2.871  -3.850   5.911  0.00  0.00     0.235 C 
BRANCH  20  21
ATOM     21  C3  <0> d          -3.527  -2.487   6.139  0.00  0.00     0.027 C 
BRANCH  21  22
ATOM     22  C2  <0> d          -4.331  -2.519   7.441  0.00  0.00    -0.003 C 
ATOM     23  C1  <0> d          -4.987  -1.155   7.669  0.00  0.00     0.005 C 
ENDBRANCH  21  22
ENDBRANCH  20  21
ENDBRANCH  17  20
ENDBRANCH   1  17
BRANCH  12  24
ATOM     24  C19 <0> d           2.303  -2.430   0.324  0.00  0.00     0.348 C 
BRANCH  24  25
ATOM     25  C20 <0> d           2.052  -0.944   0.295  0.00  0.00     0.109 A 
ATOM     26  N4  <0> d           0.883  -0.371   0.201  0.00  0.00    -0.353 N 
ATOM     27  C22 <0> d           1.041   0.960   0.205  0.00  0.00     0.106 A 
ATOM     28  H34 <0> d          -0.026  -0.986   0.133  0.00  0.00     0.166 HD
ATOM     29  C21 <0> d           2.358   1.223   0.307  0.00  0.00     0.106 A 
ATOM     30  N3  <0> d           3.000   0.015   0.364  0.00  0.00    -0.353 N 
ATOM     31  H3  <0> d           4.060  -0.264   0.449  0.00  0.00     0.166 HD
ENDBRANCH  24  25
ENDBRANCH  12  24
TORSDOF 7
