REMARK  7 active torsions:
REMARK  status: ('A' for Active; 'I' for Inactive)
REMARK    1  A    between atoms: C3_3  and  C4_4 
REMARK    2  A    between atoms: C3_3  and  C14_19 
REMARK    3  A    between atoms: C3_3  and  N3_27 
REMARK    4  A    between atoms: C4_4  and  N1_5 
REMARK       I    between atoms: N1_5  and  C5_6 
REMARK    5  A    between atoms: C5_6  and  C6_8 
REMARK       I    between atoms: C6_8  and  N2_10 
REMARK    6  A    between atoms: N2_10  and  C7_11 
REMARK    7  A    between atoms: C12_16  and  S1_17 
ROOT
ATOM      1  N1  <0> d           1.611   6.258  -0.213  0.00  0.00    -0.351 N 
ATOM      2  C5  <0> d           1.630   7.395  -0.937  0.00  0.00     0.309 C 
ATOM      3  O1  <0> d           1.546   7.346  -2.147  0.00  0.00    -0.262 OA
ATOM      4  H10 <0> d           1.678   6.297   0.753  0.00  0.00     0.162 HD
ENDROOT
BRANCH   1   5
ATOM      5  C4  <0> d           1.488   4.963  -0.887  0.00  0.00     0.161 C 
BRANCH   5   6
ATOM      6  C3  <0> d           1.361   3.853   0.159  0.00  0.00     0.237 C 
BRANCH   6   7
ATOM      7  C14 <0> d           0.072   4.026   0.919  0.00  0.00    -0.026 A 
ATOM      8  C19 <0> d          -1.120   3.595   0.367  0.00  0.00     0.009 A 
ATOM      9  C18 <0> d          -2.303   3.753   1.064  0.00  0.00     0.001 A 
ATOM     10  C17 <0> d          -2.294   4.343   2.314  0.00  0.00     0.000 A 
ATOM     11  C16 <0> d          -1.103   4.774   2.867  0.00  0.00     0.001 A 
ATOM     12  C15 <0> d           0.080   4.616   2.170  0.00  0.00     0.009 A 
ENDBRANCH   6   7
BRANCH   6  13
ATOM     13  N3  <0> d           1.342   2.546  -0.530  0.00  0.00    -0.069 N 
ATOM     14  C1  <0> d           2.621   2.330  -1.239  0.00  0.00     0.270 C 
ATOM     15  C2  <0> d           1.118   1.462   0.449  0.00  0.00     0.270 C 
ATOM     16  H24 <0> d           0.576   2.541  -1.215  0.00  0.00     0.279 HD
ENDBRANCH   6  13
ENDBRANCH   5   6
ENDBRANCH   1   5
BRANCH   2  17
ATOM     17  C6  <0> d           1.755   8.715  -0.250  0.00  0.00     0.314 C 
ATOM     18  O2  <0> d           1.839   8.764   0.960  0.00  0.00    -0.262 OA
ATOM     19  N2  <0> d           1.774   9.852  -0.973  0.00  0.00    -0.318 N 
ATOM     20  H11 <0> d           1.780   9.810  -1.942  0.00  0.00     0.169 HD
BRANCH  19  21
ATOM     21  C7  <0> d           1.786  11.092  -0.327  0.00  0.00     0.052 A 
ATOM     22  C12 <0> d           1.137  12.187  -0.900  0.00  0.00     0.026 A 
ATOM     23  C11 <0> d           1.153  13.414  -0.253  0.00  0.00     0.021 A 
ATOM     24  C10 <0> d           1.810  13.549   0.956  0.00  0.00     0.002 A 
ATOM     25  C9  <0> d           2.452  12.464   1.524  0.00  0.00     0.002 A 
ATOM     26  C8  <0> d           2.437  11.236   0.890  0.00  0.00     0.031 A 
BRANCH  22  27
ATOM     27  S1  <0> d           0.301  12.011  -2.441  0.00  0.00    -0.132 SA
ATOM     28  C13 <0> d          -0.368  13.665  -2.768  0.00  0.00     0.095 C 
ENDBRANCH  22  27
ENDBRANCH  19  21
ENDBRANCH   2  17
TORSDOF 7
