REMARK  4 active torsions:
REMARK  status: ('A' for Active; 'I' for Inactive)
REMARK    1  A    between atoms: C2_2  and  N1_3 
REMARK    2  A    between atoms: N1_3  and  C3_4 
REMARK    3  A    between atoms: C3_4  and  C4_5 
REMARK    4  A    between atoms: C3_4  and  C9_11 
ROOT
ATOM      1  C9  <0> d          -0.700  -2.467  -1.328  0.00  0.00    -0.004 A 
ATOM      2  C10 <0> d          -1.677  -1.685  -1.912  0.00  0.00     0.043 A 
ATOM      3  C11 <0> d          -2.974  -2.164  -2.016  0.00  0.00     0.064 A 
ATOM      4  C12 <0> d          -3.287  -3.436  -1.530  0.00  0.00     0.064 A 
ATOM      5  C13 <0> d          -2.300  -4.214  -0.946  0.00  0.00     0.051 A 
ATOM      6  C14 <0> d          -1.009  -3.731  -0.851  0.00  0.00     0.021 A 
ATOM      7 Br1  <0> d           0.340  -4.795  -0.061  0.00  0.00    -0.050 Br
ATOM      8  N3  <0> d          -4.644  -3.636  -1.772  0.00  0.00    -0.306 N 
ATOM      9  H2  <0> d          -5.150  -4.432  -1.543  0.00  0.00     0.170 HD
ATOM     10  C15 <0> d          -5.134  -2.538  -2.377  0.00  0.00     0.325 A 
ATOM     11  O1  <0> d          -6.290  -2.386  -2.725  0.00  0.00    -0.247 OA
ATOM     12  N4  <0> d          -4.151  -1.632  -2.538  0.00  0.00    -0.306 N 
ATOM     13  H3  <0> d          -4.246  -0.758  -2.947  0.00  0.00     0.170 HD
ENDROOT
BRANCH   1  14
ATOM     14  C3  <0> d           0.710  -1.947  -1.215  0.00  0.00     0.253 C 
BRANCH  14  15
ATOM     15  N1  <0> d           0.690  -0.478  -1.207  0.00  0.00    -0.063 N 
ATOM     16  H9  <0> d           0.202  -0.144  -2.024  0.00  0.00     0.278 HD
ATOM     17  H16 <0> d           1.636  -0.129  -1.214  0.00  0.00     0.278 HD
BRANCH  15  18
ATOM     18  C2  <0> d           0.002  -0.004   0.002  0.00  0.00     0.229 C 
ATOM     19  C1  <0> d          -0.019   1.526   0.010  0.00  0.00     0.034 C 
ENDBRANCH  15  18
ENDBRANCH  14  15
BRANCH  14  20
ATOM     20  C4  <0> d           1.520  -2.432  -2.389  0.00  0.00    -0.021 A 
ATOM     21  C8  <0> d           2.373  -3.518  -2.263  0.00  0.00     0.029 A 
ATOM     22  C7  <0> d           3.096  -3.938  -3.363  0.00  0.00     0.116 A 
ATOM     23  N2  <0> d           2.990  -3.311  -4.519  0.00  0.00    -0.273 NA
ATOM     24  C6  <0> d           2.194  -2.272  -4.674  0.00  0.00     0.116 A 
ATOM     25  C5  <0> d           1.435  -1.799  -3.620  0.00  0.00     0.029 A 
ENDBRANCH  14  20
ENDBRANCH   1  14
TORSDOF 4
