REMARK  4 active torsions:
REMARK  status: ('A' for Active; 'I' for Inactive)
REMARK    1  A    between atoms: C2_2  and  C3_4 
REMARK    2  A    between atoms: C8_9  and  O2_10 
REMARK    3  A    between atoms: O2_10  and  C9_11 
REMARK    4  A    between atoms: C12_17  and  O5_18 
ROOT
ATOM      1  C3  <0> d          -1.271  -0.768  -0.167  0.00  0.00     0.044 A 
ATOM      2  C4  <0> d          -2.494  -0.087  -0.122  0.00  0.00     0.037 A 
ATOM      3  C5  <0> d          -3.657  -0.782   0.125  0.00  0.00     0.012 A 
ATOM      4  C6  <0> d          -3.623  -2.154   0.328  0.00  0.00     0.022 A 
ATOM      5  C7  <0> d          -2.425  -2.838   0.287  0.00  0.00     0.039 A 
ATOM      6  C8  <0> d          -1.243  -2.157   0.034  0.00  0.00     0.083 A 
ATOM      7 Br1  <0> d          -5.308   0.137   0.186  0.00  0.00    -0.051 Br
ENDROOT
BRANCH   6   8
ATOM      8  O2  <0> d          -0.066  -2.829  -0.013  0.00  0.00    -0.341 OA
BRANCH   8   9
ATOM      9  C9  <0> d          -0.128  -4.253   0.091  0.00  0.00     0.172 C 
ATOM     10  C12 <0> d           1.089  -4.844  -0.606  0.00  0.00     0.162 C 
ATOM     11  C11 <0> d           1.978  -5.711   0.307  0.00  0.00     0.174 C 
ATOM     12  S1  <0> d           0.784  -6.173   1.638  0.00  0.00     0.149 S 
ATOM     13  C10 <0> d          -0.235  -4.634   1.585  0.00  0.00     0.175 C 
ATOM     14  O3  <0> d           1.469  -6.241   2.881  0.00  0.00    -0.228 OA
ATOM     15  O4  <0> d          -0.002  -7.274   1.205  0.00  0.00    -0.228 OA
BRANCH  10  16
ATOM     16  O5  <0> d           1.879  -3.774  -1.128  0.00  0.00    -0.392 OA
ATOM     17  H13 <0> d           2.678  -4.064  -1.590  0.00  0.00     0.210 HD
ENDBRANCH  10  16
ENDBRANCH   8   9
ENDBRANCH   6   8
BRANCH   1  18
ATOM     18  C2  <0> d          -0.026  -0.034  -0.428  0.00  0.00     0.158 C 
ATOM     19  C1  <0> d          -0.062   1.457  -0.643  0.00  0.00     0.097 C 
ATOM     20  O1  <0> d           1.030  -0.628  -0.472  0.00  0.00    -0.293 OA
ENDBRANCH   1  18
TORSDOF 4
