REMARK  6 active torsions:
REMARK  status: ('A' for Active; 'I' for Inactive)
REMARK       I    between atoms: N1_2  and  C3_4 
REMARK    1  A    between atoms: C3_4  and  C4_6 
REMARK    2  A    between atoms: C4_6  and  N2_7 
REMARK    3  A    between atoms: N2_7  and  C5_8 
REMARK    4  A    between atoms: N2_7  and  C7_13 
REMARK    5  A    between atoms: C5_8  and  C6_9 
REMARK    6  A    between atoms: C7_13  and  N3_14 
ROOT
ATOM      1  C7  <0> d           0.360  -4.431  -3.058  0.00  0.00     0.410 C 
ENDROOT
BRANCH   1   2
ATOM      2  N2  <0> d           0.219  -3.021  -2.668  0.00  0.00     0.123 N 
BRANCH   2   3
ATOM      3  C4  <0> d           0.378  -2.858  -1.217  0.00  0.00     0.377 C 
BRANCH   3   4
ATOM      4  C3  <0> d           0.411  -1.390  -0.877  0.00  0.00     0.247 C 
ATOM      5  N1  <0> d           0.550  -0.998   0.405  0.00  0.00    -0.359 N 
ATOM      6  C1  <0> d           0.582   0.429   0.735  0.00  0.00     0.152 C 
ATOM      7  C2  <0> d           0.669  -1.999   1.468  0.00  0.00     0.152 C 
ATOM      8  O1  <0> d           0.312  -0.561  -1.757  0.00  0.00    -0.271 OA
ENDBRANCH   3   4
ENDBRANCH   2   3
BRANCH   2   9
ATOM      9  C5  <0> d          -1.067  -2.475  -3.122  0.00  0.00     0.391 C 
BRANCH   9  10
ATOM     10  C6  <0> d          -2.192  -3.024  -2.244  0.00  0.00     0.413 C 
ATOM     11  F1  <0> d          -2.063  -2.514  -0.947  0.00  0.00    -0.169 F 
ATOM     12  F2  <0> d          -3.428  -2.640  -2.775  0.00  0.00    -0.169 F 
ATOM     13  F3  <0> d          -2.115  -4.421  -2.205  0.00  0.00    -0.169 F 
ENDBRANCH   9  10
ENDBRANCH   2   9
ENDBRANCH   1   2
BRANCH   1  14
ATOM     14  N3  <0> d           0.811  -4.510  -4.449  0.00  0.00    -0.240 N 
ATOM     15  C13 <0> d           2.096  -4.555  -4.821  0.00  0.00     0.327 A 
ATOM     16  N4  <0> d           2.242  -4.630  -6.157  0.00  0.00    -0.324 N 
ATOM     17  O3  <0> d           3.027  -4.535  -4.040  0.00  0.00    -0.247 OA
ATOM     18  C9  <0> d           0.885  -4.623  -6.728  0.00  0.00     0.125 A 
ATOM     19  H19 <0> d           3.078  -4.675  -6.647  0.00  0.00     0.165 HD
ATOM     20  C8  <0> d          -0.015  -4.540  -5.513  0.00  0.00     0.258 A 
ATOM     21  C12 <0> d           0.698  -3.360  -7.590  0.00  0.00     0.115 C 
ATOM     22  C10 <0> d           0.627  -5.923  -7.485  0.00  0.00     0.052 C 
ATOM     23  O2  <0> d          -1.227  -4.508  -5.501  0.00  0.00    -0.270 OA
ATOM     24  S1  <0> d           0.078  -4.031  -9.189  0.00  0.00    -0.166 SA
ATOM     25  C11 <0> d          -0.443  -5.699  -8.591  0.00  0.00     0.077 C 
ENDBRANCH   1  14
TORSDOF 6
