REMARK  6 active torsions:
REMARK  status: ('A' for Active; 'I' for Inactive)
REMARK    1  A    between atoms: C5_5  and  N1_7 
REMARK    2  A    between atoms: N1_7  and  C7_8 
REMARK    3  A    between atoms: N2_10  and  C8_11 
REMARK    4  A    between atoms: C8_11  and  C9_12 
REMARK    5  A    between atoms: C8_11  and  N3_16 
REMARK       I    between atoms: N3_16  and  C10_17 
REMARK    6  A    between atoms: C10_17  and  C11_19 
ROOT
ATOM      1  C7  <0> d          -2.818   0.223  -2.235  0.00  0.00     0.173 C 
ATOM      2  S1  <0> d          -1.772  -1.075  -1.844  0.00  0.00    -0.041 SA
ATOM      3  N2  <0> d          -2.887   1.300  -1.427  0.00  0.00    -0.342 N 
ATOM      4  H7  <0> d          -3.479   2.035  -1.649  0.00  0.00     0.164 HD
ENDROOT
BRANCH   3   5
ATOM      5  C8  <0> d          -2.066   1.360  -0.215  0.00  0.00     0.241 C 
BRANCH   5   6
ATOM      6  C9  <0> d          -2.920   1.853   0.955  0.00  0.00     0.226 C 
ATOM      7 Cl1  <0> d          -3.561   3.497   0.580  0.00  0.00    -0.080 Cl
ATOM      8 Cl2  <0> d          -4.296   0.717   1.216  0.00  0.00    -0.080 Cl
ATOM      9 Cl3  <0> d          -1.910   1.928   2.446  0.00  0.00    -0.080 Cl
ENDBRANCH   5   6
BRANCH   5  10
ATOM     10  N3  <0> d          -0.949   2.283  -0.427  0.00  0.00    -0.334 N 
ATOM     11  C10 <0> d           0.294   1.802  -0.629  0.00  0.00     0.247 C 
ATOM     12  O1  <0> d           0.487   0.605  -0.635  0.00  0.00    -0.271 OA
ATOM     13  H8  <0> d          -1.103   3.241  -0.423  0.00  0.00     0.164 HD
BRANCH  11  14
ATOM     14  C11 <0> d           1.442   2.752  -0.854  0.00  0.00     0.324 C 
ATOM     15  F1  <0> d           2.621   2.022  -1.044  0.00  0.00    -0.246 F 
ENDBRANCH  11  14
ENDBRANCH   5  10
ENDBRANCH   3   5
BRANCH   1  16
ATOM     16  N1  <0> d          -3.573   0.168  -3.350  0.00  0.00    -0.332 N 
ATOM     17  H6  <0> d          -4.211   0.873  -3.539  0.00  0.00     0.168 HD
BRANCH  16  18
ATOM     18  C5  <0> d          -3.436  -0.908  -4.235  0.00  0.00     0.056 A 
ATOM     19  C4  <0> d          -3.313  -0.676  -5.599  0.00  0.00     0.060 A 
ATOM     20  C3  <0> d          -3.177  -1.740  -6.470  0.00  0.00     0.026 A 
ATOM     21 Cl4  <0> d          -3.327   0.950  -6.209  0.00  0.00    -0.082 Cl
ATOM     22  C2  <0> d          -3.165  -3.035  -5.985  0.00  0.00     0.002 A 
ATOM     23  C1  <0> d          -3.288  -3.269  -4.627  0.00  0.00     0.002 A 
ATOM     24  C6  <0> d          -3.418  -2.209  -3.751  0.00  0.00     0.031 A 
ENDBRANCH  16  18
ENDBRANCH   1  16
TORSDOF 6
