REMARK  4 active torsions:
REMARK  status: ('A' for Active; 'I' for Inactive)
REMARK    1  A    between atoms: C6_6  and  N1_9 
REMARK    2  A    between atoms: C9_10  and  N3_18 
REMARK       I    between atoms: N3_18  and  C14_19 
REMARK    3  A    between atoms: C14_19  and  C15_21 
REMARK    4  A    between atoms: C19_25  and  N4_27 
ROOT
ATOM      1  N1  <0> d          -0.309   8.224   0.239  0.00  0.00    -0.216 N 
ATOM      2  C9  <0> d          -1.361   7.368   0.242  0.00  0.00     0.141 A 
ATOM      3  C10 <0> d          -2.509   8.120   0.350  0.00  0.00     0.027 A 
ATOM      4  C11 <0> d          -2.138   9.452   0.423  0.00  0.00     0.077 A 
ATOM      5  N2  <0> d          -0.816   9.520   0.353  0.00  0.00    -0.169 NA
ATOM      6  C12 <0> d          -3.266  10.473   0.555  0.00  0.00     0.170 C 
ATOM      7  S1  <0> d          -4.683   9.408   1.049  0.00  0.00     0.025 S 
ATOM      8  O1  <0> d          -4.767   9.360   2.466  0.00  0.00    -0.257 OA
ATOM      9  C13 <0> d          -4.004   7.817   0.421  0.00  0.00     0.153 C 
ENDROOT
BRANCH   2  10
ATOM     10  N3  <0> d          -1.292   5.979   0.147  0.00  0.00    -0.307 N 
ATOM     11  C14 <0> d          -2.325   5.288  -0.375  0.00  0.00     0.257 C 
ATOM     12  O2  <0> d          -3.272   5.880  -0.856  0.00  0.00    -0.267 OA
ATOM     13  H14 <0> d          -0.501   5.510   0.456  0.00  0.00     0.170 HD
BRANCH  11  14
ATOM     14  C15 <0> d          -2.305   3.810  -0.364  0.00  0.00     0.034 A 
ATOM     15  C20 <0> d          -3.417   3.091  -0.807  0.00  0.00     0.053 A 
ATOM     16  C19 <0> d          -3.392   1.711  -0.794  0.00  0.00     0.103 A 
ATOM     17  C18 <0> d          -2.269   1.041  -0.344  0.00  0.00     0.036 A 
ATOM     18  C17 <0> d          -1.165   1.748   0.102  0.00  0.00     0.003 A 
ATOM     19  C16 <0> d          -1.175   3.127   0.089  0.00  0.00     0.017 A 
BRANCH  16  20
ATOM     20  N4  <0> d          -4.569   0.947  -1.263  0.00  0.00    -0.116 N 
ATOM     21  O3  <0> d          -4.549  -0.271  -1.253  0.00  0.00    -0.532 OA
ATOM     22  O4  <0> d          -5.559   1.536  -1.660  0.00  0.00    -0.532 OA
ENDBRANCH  16  20
ENDBRANCH  11  14
ENDBRANCH   2  10
BRANCH   1  23
ATOM     23  C6  <0> d           1.044   7.871   0.139  0.00  0.00     0.067 A 
ATOM     24  C5  <0> d           1.569   6.886   0.964  0.00  0.00     0.032 A 
ATOM     25  C4  <0> d           2.902   6.541   0.863  0.00  0.00     0.003 A 
ATOM     26  C3  <0> d           3.714   7.175  -0.060  0.00  0.00     0.007 A 
ATOM     27  C2  <0> d           3.193   8.156  -0.884  0.00  0.00    -0.054 A 
ATOM     28  C1  <0> d           4.082   8.845  -1.888  0.00  0.00     0.049 C 
ATOM     29  C7  <0> d           1.860   8.502  -0.790  0.00  0.00    -0.027 A 
ATOM     30  C8  <0> d           1.293   9.568  -1.692  0.00  0.00     0.051 C 
ENDBRANCH   1  23
TORSDOF 4
