REMARK  8 active torsions:
REMARK  status: ('A' for Active; 'I' for Inactive)
REMARK    1  A    between atoms: C5_5  and  C8_8 
REMARK    2  A    between atoms: C8_8  and  C9_9 
REMARK    3  A    between atoms: C8_8  and  N5_22 
REMARK    4  A    between atoms: C9_9  and  N1_10 
REMARK       I    between atoms: N1_10  and  C10_11 
REMARK       I    between atoms: C10_11  and  N2_13 
REMARK    5  A    between atoms: N2_13  and  C11_14 
REMARK    6  A    between atoms: C11_14  and  C12_15 
REMARK    7  A    between atoms: C12_15  and  C13_16 
REMARK    8  A    between atoms: C13_16  and  N3_17 
ROOT
ATOM      1  N1  <0> d           0.774  -6.390   0.509  0.00  0.00    -0.341 N 
ATOM      2  C10 <0> d           1.768  -7.243   0.827  0.00  0.00     0.316 C 
ATOM      3  O1  <0> d           2.916  -6.844   0.883  0.00  0.00    -0.247 OA
ATOM      4  N2  <0> d           1.491  -8.537   1.083  0.00  0.00    -0.343 N 
ATOM      5  H11 <0> d          -0.141  -6.708   0.465  0.00  0.00     0.164 HD
ATOM      6  H12 <0> d           0.576  -8.854   1.038  0.00  0.00     0.164 HD
ENDROOT
BRANCH   1   7
ATOM      7  C9  <0> d           1.075  -4.984   0.231  0.00  0.00     0.162 C 
BRANCH   7   8
ATOM      8  C8  <0> d          -0.229  -4.220  -0.007  0.00  0.00     0.237 C 
BRANCH   8   9
ATOM      9  C5  <0> d          -0.902  -4.750  -1.247  0.00  0.00    -0.026 A 
ATOM     10  C4  <0> d          -1.948  -5.647  -1.136  0.00  0.00     0.010 A 
ATOM     11  C3  <0> d          -2.566  -6.132  -2.273  0.00  0.00     0.007 A 
ATOM     12  C2  <0> d          -2.139  -5.720  -3.521  0.00  0.00    -0.062 A 
ATOM     13  C1  <0> d          -2.812  -6.249  -4.761  0.00  0.00     0.048 C 
ATOM     14  C7  <0> d          -1.089  -4.827  -3.632  0.00  0.00     0.007 A 
ATOM     15  C6  <0> d          -0.474  -4.338  -2.495  0.00  0.00     0.010 A 
ENDBRANCH   8   9
BRANCH   8  16
ATOM     16  N5  <0> d           0.065  -2.792  -0.182  0.00  0.00    -0.069 N 
ATOM     17  C17 <0> d          -1.182  -2.065  -0.455  0.00  0.00     0.270 C 
ATOM     18  C18 <0> d           0.680  -2.265   1.044  0.00  0.00     0.270 C 
ATOM     19  H28 <0> d           0.701  -2.671  -0.956  0.00  0.00     0.279 HD
ENDBRANCH   8  16
ENDBRANCH   7   8
ENDBRANCH   1   7
BRANCH   4  20
ATOM     20  C11 <0> d           2.572  -9.463   1.429  0.00  0.00     0.126 C 
BRANCH  20  21
ATOM     21  C12 <0> d           1.991 -10.858   1.669  0.00  0.00     0.040 C 
BRANCH  21  22
ATOM     22  C13 <0> d           3.120 -11.825   2.030  0.00  0.00     0.130 C 
BRANCH  22  23
ATOM     23  N3  <0> d           2.563 -13.161   2.259  0.00  0.00    -0.352 N 
ATOM     24  C16 <0> d           2.393 -14.128   1.333  0.00  0.00     0.182 A 
ATOM     25  N4  <0> d           1.874 -15.176   1.912  0.00  0.00    -0.361 N 
ATOM     26  C15 <0> d           1.689 -14.915   3.215  0.00  0.00     0.106 A 
ATOM     27  H29 <0> d           1.653 -16.011   1.470  0.00  0.00     0.166 HD
ATOM     28  C14 <0> d           2.114 -13.660   3.452  0.00  0.00     0.108 A 
ENDBRANCH  22  23
ENDBRANCH  21  22
ENDBRANCH  20  21
ENDBRANCH   4  20
TORSDOF 8
