REMARK  6 active torsions:
REMARK  status: ('A' for Active; 'I' for Inactive)
REMARK    1  A    between atoms: C4_4  and  C7_7 
REMARK    2  A    between atoms: C7_7  and  C8_9 
REMARK    3  A    between atoms: C9_10  and  C13_21 
REMARK    4  A    between atoms: C11_15  and  C12_16 
REMARK    5  A    between atoms: C11_15  and  O2_20 
REMARK    6  A    between atoms: C16_24  and  N3_27 
ROOT
ATOM      1  C8  <0> d           5.098   0.364  -0.081  0.00  0.00     0.152 C 
ATOM      2  C9  <0> d           6.303  -0.463   0.378  0.00  0.00     0.134 C 
ATOM      3  N1  <0> d           7.533   0.192  -0.069  0.00  0.00    -0.358 N 
ATOM      4  C10 <0> d           7.560   0.942  -1.181  0.00  0.00     0.170 C 
ATOM      5  S1  <0> d           9.039   1.664  -1.651  0.00  0.00    -0.041 SA
ATOM      6  N2  <0> d           6.473   1.147  -1.940  0.00  0.00    -0.328 N 
ATOM      7  C11 <0> d           5.182   0.548  -1.600  0.00  0.00     0.247 C 
ATOM      8  H8  <0> d           8.346   0.081   0.449  0.00  0.00     0.162 HD
ATOM      9  H9  <0> d           6.544   1.705  -2.731  0.00  0.00     0.165 HD
ENDROOT
BRANCH   2  10
ATOM     10  C13 <0> d           6.304  -0.562   1.882  0.00  0.00    -0.034 A 
ATOM     11  C18 <0> d           5.828  -1.703   2.500  0.00  0.00     0.012 A 
ATOM     12  C17 <0> d           5.828  -1.793   3.879  0.00  0.00     0.037 A 
ATOM     13  C16 <0> d           6.305  -0.742   4.641  0.00  0.00     0.102 A 
ATOM     14  C15 <0> d           6.782   0.399   4.022  0.00  0.00     0.037 A 
ATOM     15  C14 <0> d           6.785   0.487   2.643  0.00  0.00     0.012 A 
BRANCH  13  16
ATOM     16  N3  <0> d           6.304  -0.838   6.118  0.00  0.00    -0.116 N 
ATOM     17  O3  <0> d           5.884  -1.843   6.662  0.00  0.00    -0.532 OA
ATOM     18  O4  <0> d           6.724   0.088   6.788  0.00  0.00    -0.532 OA
ENDBRANCH  13  16
ENDBRANCH   2  10
BRANCH   1  19
ATOM     19  C7  <0> d           3.824  -0.359   0.272  0.00  0.00     0.171 C 
ATOM     20  O1  <0> d           3.625  -1.478  -0.151  0.00  0.00    -0.292 OA
BRANCH  19  21
ATOM     21  C4  <0> d           2.820   0.292   1.129  0.00  0.00     0.010 A 
ATOM     22  C3  <0> d           3.104   1.522   1.733  0.00  0.00     0.015 A 
ATOM     23  C2  <0> d           2.158   2.126   2.534  0.00  0.00     0.001 A 
ATOM     24  C1  <0> d           0.932   1.519   2.742  0.00  0.00     0.000 A 
ATOM     25  C6  <0> d           0.644   0.302   2.148  0.00  0.00     0.001 A 
ATOM     26  C5  <0> d           1.579  -0.314   1.343  0.00  0.00     0.015 A 
ENDBRANCH  19  21
ENDBRANCH   1  19
BRANCH   7  27
ATOM     27  C12 <0> d           4.051   1.466  -2.067  0.00  0.00     0.438 C 
ATOM     28  F1  <0> d           4.094   2.663  -1.345  0.00  0.00    -0.166 F 
ATOM     29  F2  <0> d           4.205   1.739  -3.431  0.00  0.00    -0.166 F 
ATOM     30  F3  <0> d           2.820   0.836  -1.853  0.00  0.00    -0.166 F 
ENDBRANCH   7  27
BRANCH   7  31
ATOM     31  O2  <0> d           5.061  -0.723  -2.242  0.00  0.00    -0.363 OA
ATOM     32  H10 <0> d           5.106  -0.682  -3.207  0.00  0.00     0.213 HD
ENDBRANCH   7  31
TORSDOF 6
