REMARK  3 active torsions:
REMARK  status: ('A' for Active; 'I' for Inactive)
REMARK    1  A    between atoms: C5_7  and  N3_11 
REMARK    2  A    between atoms: N3_11  and  S1_12 
REMARK    3  A    between atoms: S1_12  and  C9_15 
ROOT
ATOM      1  N3  <0> d          -0.020   1.652   0.011  0.00  0.00    -0.306 N 
ATOM      2  H12 <0> d           0.579   1.714  -0.909  0.00  0.00     0.173 HD
ENDROOT
BRANCH   1   3
ATOM      3  C5  <0> d          -1.265   2.416   0.127  0.00  0.00     0.129 C 
ATOM      4  C3  <0> d          -1.822   2.691  -1.248  0.00  0.00     0.009 A 
ATOM      5  C2  <0> d          -2.325   3.890  -1.639  0.00  0.00     0.040 A 
ATOM      6  C4  <0> d          -1.919   1.812  -2.324  0.00  0.00     0.150 A 
ATOM      7  N1  <0> d          -2.724   3.772  -2.916  0.00  0.00    -0.278 N 
ATOM      8  C8  <0> d          -2.399   5.107  -0.751  0.00  0.00     0.059 C 
ATOM      9  C1  <0> d          -3.326   4.828  -3.733  0.00  0.00     0.179 C 
ATOM     10  N2  <0> d          -2.460   2.457  -3.328  0.00  0.00    -0.184 NA
ATOM     11  C7  <0> d          -2.221   4.656   0.704  0.00  0.00     0.008 C 
ATOM     12  C6  <0> d          -0.986   3.758   0.814  0.00  0.00     0.031 C 
ENDBRANCH   1   3
BRANCH   1  13
ATOM     13  S1  <0> d           0.360   0.511   1.150  0.00  0.00     0.260 S 
ATOM     14  O1  <0> d           1.599  -0.060   0.754  0.00  0.00    -0.200 OA
ATOM     15  O2  <0> d           0.176   1.126   2.418  0.00  0.00    -0.200 OA
BRANCH  13  16
ATOM     16  C9  <0> d          -0.846  -0.767   1.030  0.00  0.00     0.097 A 
ATOM     17  C13 <0> d          -2.002  -0.710   1.783  0.00  0.00     0.143 A 
ATOM     18  N4  <0> d          -2.913  -1.661   1.696  0.00  0.00    -0.247 NA
ATOM     19  C12 <0> d          -2.753  -2.702   0.901  0.00  0.00     0.125 A 
ATOM     20  C11 <0> d          -1.617  -2.830   0.122  0.00  0.00     0.046 A 
ATOM     21 Cl1  <0> d          -3.982  -3.926   0.834  0.00  0.00    -0.062 Cl
ATOM     22  C10 <0> d          -0.642  -1.847   0.183  0.00  0.00     0.030 A 
ENDBRANCH  13  16
ENDBRANCH   1  13
TORSDOF 3
