REMARK  2 active torsions:
REMARK  status: ('A' for Active; 'I' for Inactive)
REMARK    1  A    between atoms: N2_11  and  N3_12 
REMARK       I    between atoms: N3_12  and  C8_13 
REMARK    2  A    between atoms: C8_13  and  C9_15 
ROOT
ATOM      1  N3  <0> d           2.357   1.227  -0.014  0.00  0.00    -0.253 N 
ATOM      2  C8  <0> d           2.784   0.640  -1.149  0.00  0.00     0.291 C 
ATOM      3  O2  <0> d           2.111   0.706  -2.160  0.00  0.00    -0.264 OA
ATOM      4  H6  <0> d           2.894   1.174   0.791  0.00  0.00     0.191 HD
ENDROOT
BRANCH   2   5
ATOM      5  C9  <0> d           4.071  -0.084  -1.166  0.00  0.00     0.157 A 
ATOM      6  N5  <0> d           4.803  -0.161  -0.082  0.00  0.00    -0.164 NA
ATOM      7  N4  <0> d           5.927  -0.767  -0.013  0.00  0.00    -0.238 N 
ATOM      8  C16 <0> d           6.495  -1.405  -1.057  0.00  0.00     0.274 A 
ATOM      9  C17 <0> d           6.636  -0.771   1.270  0.00  0.00     0.183 C 
ATOM     10  C15 <0> d           5.788  -1.405  -2.345  0.00  0.00     0.046 A 
ATOM     11  O3  <0> d           7.568  -1.967  -0.936  0.00  0.00    -0.266 OA
ATOM     12  C10 <0> d           4.544  -0.734  -2.399  0.00  0.00     0.016 A 
ATOM     13  C14 <0> d           6.287  -2.033  -3.482  0.00  0.00     0.018 A 
ATOM     14  C11 <0> d           3.831  -0.695  -3.592  0.00  0.00     0.015 A 
ATOM     15  C12 <0> d           4.343  -1.323  -4.708  0.00  0.00     0.001 A 
ATOM     16  C13 <0> d           5.562  -1.986  -4.654  0.00  0.00     0.001 A 
ENDBRANCH   2   5
BRANCH   1  17
ATOM     17  N2  <0> d           1.136   1.914   0.002  0.00  0.00    -0.203 N 
ATOM     18  C2  <0> d           1.137   3.272   0.009  0.00  0.00     0.126 A 
ATOM     19  C1  <0> d           2.450   4.011   0.000  0.00  0.00     0.093 C 
ATOM     20  N1  <0> d           0.019   3.949   0.024  0.00  0.00    -0.226 NA
ATOM     21  C3  <0> d          -1.157   3.329   0.032  0.00  0.00     0.115 A 
ATOM     22  S1  <0> d          -2.848   3.865   0.051  0.00  0.00    -0.081 SA
ATOM     23  C4  <0> d          -1.259   1.926   0.018  0.00  0.00     0.070 A 
ATOM     24  C6  <0> d          -3.644   2.270   0.031  0.00  0.00     0.053 A 
ATOM     25  C5  <0> d          -2.614   1.409   0.021  0.00  0.00     0.027 A 
ATOM     26  C7  <0> d          -0.015   1.215   0.009  0.00  0.00     0.281 A 
ATOM     27  O1  <0> d           0.002  -0.004   0.002  0.00  0.00    -0.265 OA
ENDBRANCH   1  17
TORSDOF 2
