REMARK  6 active torsions:
REMARK  status: ('A' for Active; 'I' for Inactive)
REMARK    1  A    between atoms: C2_2  and  O1_3 
REMARK    2  A    between atoms: O1_3  and  C3_4 
REMARK    3  A    between atoms: C5_6  and  C9_12 
REMARK    4  A    between atoms: C8_9  and  O2_10 
REMARK    5  A    between atoms: N1_13  and  N2_14 
REMARK       I    between atoms: N2_14  and  C10_15 
REMARK    6  A    between atoms: C10_15  and  C11_17 
ROOT
ATOM      1  C9  <0> d           2.232   4.257   0.102  0.00  0.00     0.150 C 
ATOM      2  N1  <0> d           1.121   3.591   0.182  0.00  0.00    -0.184 NA
ENDROOT
BRANCH   2   3
ATOM      3  N2  <0> d           1.121   2.288   0.697  0.00  0.00    -0.245 N 
ATOM      4  C10 <0> d          -0.007   1.551   0.667  0.00  0.00     0.269 C 
ATOM      5  O3  <0> d          -1.022   2.015   0.190  0.00  0.00    -0.269 OA
ATOM      6  H11 <0> d           2.042   1.866   1.125  0.00  0.00     0.192 HD
BRANCH   4   7
ATOM      7  C11 <0> d          -0.007   0.150   1.220  0.00  0.00     0.246 C 
ATOM      8  O5  <0> d          -1.335  -0.384   1.185  0.00  0.00    -0.331 OA
ATOM      9  C18 <0> d          -1.460  -1.727   1.368  0.00  0.00     0.103 A 
ATOM     10  C13 <0> d          -0.364  -2.569   1.224  0.00  0.00     0.102 A 
ATOM     11  C17 <0> d          -2.698  -2.256   1.701  0.00  0.00     0.040 A 
ATOM     12  O4  <0> d           0.861  -2.070   0.905  0.00  0.00    -0.345 OA
ATOM     13  C14 <0> d          -0.515  -3.935   1.412  0.00  0.00     0.039 A 
ATOM     14  C12 <0> d           0.895  -0.746   0.360  0.00  0.00     0.218 C 
ATOM     15  C15 <0> d          -1.752  -4.456   1.742  0.00  0.00     0.003 A 
ATOM     16  C16 <0> d          -2.841  -3.618   1.887  0.00  0.00     0.003 A 
ENDBRANCH   4   7
ENDBRANCH   2   3
BRANCH   1  17
ATOM     17  C5  <0> d           3.521   3.542   0.086  0.00  0.00    -0.013 A 
ATOM     18  C4  <0> d           4.713   4.242   0.288  0.00  0.00     0.052 A 
ATOM     19  C3  <0> d           5.919   3.566   0.273  0.00  0.00     0.103 A 
ATOM     20  C8  <0> d           5.944   2.190   0.056  0.00  0.00     0.115 A 
ATOM     21  C7  <0> d           4.761   1.494  -0.145  0.00  0.00     0.043 A 
ATOM     22  C6  <0> d           3.553   2.161  -0.126  0.00  0.00     0.034 A 
ATOM     23  I1  <0> d           4.807  -0.575  -0.471  0.00  0.00    -0.042 I 
BRANCH  19  24
ATOM     24  O1  <0> d           7.081   4.244   0.470  0.00  0.00    -0.349 OA
BRANCH  24  25
ATOM     25  C2  <0> d           6.981   5.653   0.686  0.00  0.00     0.171 C 
ATOM     26  C1  <0> d           8.380   6.239   0.887  0.00  0.00     0.034 C 
ENDBRANCH  24  25
ENDBRANCH  19  24
BRANCH  20  27
ATOM     27  O2  <0> d           7.131   1.528   0.041  0.00  0.00    -0.357 OA
ATOM     28  H9  <0> d           7.153   0.441  -0.130  0.00  0.00     0.218 HD
ENDBRANCH  20  27
ENDBRANCH   1  17
TORSDOF 6
