REMARK  6 active torsions:
REMARK  status: ('A' for Active; 'I' for Inactive)
REMARK    1  A    between atoms: C5_5  and  S1_9 
REMARK    2  A    between atoms: S1_9  and  N1_12 
REMARK    3  A    between atoms: N1_12  and  C9_13 
REMARK    4  A    between atoms: C11_15  and  S2_24 
REMARK    5  A    between atoms: C12_16  and  O3_23 
REMARK    6  A    between atoms: S2_24  and  C19_25 
ROOT
ATOM      1  C9  <0> d           3.589   2.296  -1.572  0.00  0.00     0.055 A 
ATOM      2  C10 <0> d           4.041   3.124  -0.570  0.00  0.00     0.052 A 
ATOM      3  C11 <0> d           4.443   4.433  -0.851  0.00  0.00     0.043 A 
ATOM      4  C12 <0> d           4.395   4.924  -2.142  0.00  0.00     0.094 A 
ATOM      5  C13 <0> d           3.937   4.099  -3.185  0.00  0.00     0.011 A 
ATOM      6  C14 <0> d           3.536   2.770  -2.900  0.00  0.00     0.004 A 
ATOM      7  C15 <0> d           3.075   1.951  -3.944  0.00  0.00     0.014 A 
ATOM      8  C16 <0> d           3.029   2.440  -5.214  0.00  0.00     0.001 A 
ATOM      9  C17 <0> d           3.428   3.745  -5.496  0.00  0.00     0.001 A 
ATOM     10  C18 <0> d           3.876   4.569  -4.509  0.00  0.00     0.015 A 
ENDROOT
BRANCH   1  11
ATOM     11  N1  <0> d           3.192   0.990  -1.277  0.00  0.00    -0.280 N 
ATOM     12  H10 <0> d           3.362   0.276  -1.911  0.00  0.00     0.179 HD
BRANCH  11  13
ATOM     13  S1  <0> d           2.430   0.661   0.156  0.00  0.00     0.263 S 
ATOM     14  O1  <0> d           3.270   1.160   1.187  0.00  0.00    -0.200 OA
ATOM     15  O2  <0> d           2.024  -0.700   0.096  0.00  0.00    -0.200 OA
BRANCH  13  16
ATOM     16  C5  <0> d           0.956   1.625   0.196  0.00  0.00     0.085 A 
ATOM     17  C4  <0> d           0.815   2.633   1.132  0.00  0.00     0.026 A 
ATOM     18  C3  <0> d          -0.344   3.386   1.167  0.00  0.00     0.008 A 
ATOM     19  C2  <0> d          -1.357   3.138   0.260  0.00  0.00    -0.061 A 
ATOM     20  C1  <0> d          -2.618   3.962   0.295  0.00  0.00     0.048 C 
ATOM     21  C7  <0> d          -1.216   2.131  -0.676  0.00  0.00     0.015 A 
ATOM     22  C6  <0> d          -0.059   1.374  -0.708  0.00  0.00    -0.038 A 
ATOM     23  C8  <0> d           0.096   0.276  -1.729  0.00  0.00     0.050 C 
ENDBRANCH  13  16
ENDBRANCH  11  13
ENDBRANCH   1  11
BRANCH   3  24
ATOM     24  S2  <0> d           5.016   5.468   0.455  0.00  0.00    -0.061 SA
BRANCH  24  25
ATOM     25  C19 <0> d           3.601   6.495   0.675  0.00  0.00     0.129 A 
ATOM     26  S3  <0> d           3.455   7.902   1.759  0.00  0.00    -0.102 SA
ATOM     27  C21 <0> d           1.722   8.373   1.385  0.00  0.00     0.103 A 
ATOM     28  C20 <0> d           1.362   7.290   0.344  0.00  0.00     0.161 A 
ATOM     29  N2  <0> d           2.456   6.385   0.076  0.00  0.00    -0.275 NA
ENDBRANCH  24  25
ENDBRANCH   3  24
BRANCH   4  30
ATOM     30  O3  <0> d           4.788   6.201  -2.402  0.00  0.00    -0.358 OA
ATOM     31  H16 <0> d           5.727   6.287  -2.615  0.00  0.00     0.217 HD
ENDBRANCH   4  30
TORSDOF 6
