REMARK  7 active torsions:
REMARK  status: ('A' for Active; 'I' for Inactive)
REMARK    1  A    between atoms: C2_2  and  C3_3 
REMARK    2  A    between atoms: C3_3  and  C4_4 
REMARK    3  A    between atoms: C9_9  and  O1_10 
REMARK    4  A    between atoms: O1_10  and  C10_11 
REMARK    5  A    between atoms: C10_11  and  C11_13 
REMARK    6  A    between atoms: C11_13  and  N2_27 
REMARK    7  A    between atoms: C13_16  and  C15_19 
ROOT
ATOM      1  C4  <0> d          -3.543   1.542  -0.014  0.00  0.00    -0.023 A 
ATOM      2  C5  <0> d          -4.626   0.708  -0.011  0.00  0.00     0.028 A 
ATOM      3  C6  <0> d          -4.435  -0.673   0.041  0.00  0.00     0.050 A 
ATOM      4  C7  <0> d          -3.137  -1.210   0.086  0.00  0.00     0.091 A 
ATOM      5  C8  <0> d          -2.048  -0.349   0.078  0.00  0.00     0.076 A 
ATOM      6  C9  <0> d          -2.253   1.019   0.025  0.00  0.00     0.088 A 
ATOM      7  O3  <0> d          -2.955  -2.545   0.137  0.00  0.00    -0.321 OA
ATOM      8  C12 <0> d          -3.961  -3.422   0.147  0.00  0.00     0.160 A 
ATOM      9  C13 <0> d          -5.265  -3.041   0.107  0.00  0.00     0.066 A 
ATOM     10  C14 <0> d          -5.580  -1.603   0.051  0.00  0.00     0.199 A 
ATOM     11  O4  <0> d          -6.730  -1.201   0.013  0.00  0.00    -0.286 OA
ENDROOT
BRANCH   6  12
ATOM     12  O1  <0> d          -1.186   1.860   0.018  0.00  0.00    -0.277 OA
BRANCH  12  13
ATOM     13  C10 <0> d          -0.782   2.342   1.204  0.00  0.00     0.289 C 
ATOM     14  O2  <0> d          -1.301   1.953   2.223  0.00  0.00    -0.263 OA
BRANCH  13  15
ATOM     15  C11 <0> d           0.324   3.365   1.264  0.00  0.00     0.340 C 
BRANCH  15  16
ATOM     16  N2  <0> d           0.560   3.734   2.671  0.00  0.00    -0.070 N 
ATOM     17  H12 <0> d           0.797   2.906   3.215  0.00  0.00     0.274 HD
ATOM     18  H13 <0> d           1.320   4.409   2.732  0.00  0.00     0.274 HD
ATOM     19  H19 <0> d          -0.293   4.155   3.057  0.00  0.00     0.274 HD
ENDBRANCH  15  16
ENDBRANCH  13  15
ENDBRANCH  12  13
ENDBRANCH   6  12
BRANCH   1  20
ATOM     20  C3  <0> d          -3.747   3.035  -0.064  0.00  0.00     0.041 C 
BRANCH  20  21
ATOM     21  C2  <0> d          -3.666   3.511  -1.516  0.00  0.00     0.000 C 
ATOM     22  C1  <0> d          -3.872   5.026  -1.568  0.00  0.00     0.005 C 
ENDBRANCH  20  21
ENDBRANCH   1  20
BRANCH   9  23
ATOM     23  C15 <0> d          -6.348  -4.051   0.122  0.00  0.00     0.072 A 
ATOM     24  N1  <0> d          -7.615  -3.659   0.083  0.00  0.00    -0.260 NA
ATOM     25  C19 <0> d          -8.608  -4.526   0.093  0.00  0.00     0.117 A 
ATOM     26  C18 <0> d          -8.362  -5.885   0.146  0.00  0.00     0.019 A 
ATOM     27  C17 <0> d          -7.051  -6.339   0.188  0.00  0.00     0.004 A 
ATOM     28  C16 <0> d          -6.028  -5.408   0.170  0.00  0.00     0.032 A 
ENDBRANCH   9  23
TORSDOF 7
