REMARK  7 active torsions:
REMARK  status: ('A' for Active; 'I' for Inactive)
REMARK    1  A    between atoms: C2_2  and  C3_3 
REMARK    2  A    between atoms: C4_4  and  C15_19 
REMARK    3  A    between atoms: C6_6  and  C7_8 
REMARK       I    between atoms: C7_8  and  N1_10 
REMARK    4  A    between atoms: C13_16  and  O3_18 
REMARK    5  A    between atoms: C15_19  and  N2_20 
REMARK    6  A    between atoms: N2_20  and  C16_21 
REMARK    7  A    between atoms: N2_20  and  C18_23 
ROOT
ATOM      1  C3  <0> d          -1.576  -0.828   0.009  0.00  0.00     0.061 A 
ATOM      2  C4  <0> d          -2.324  -0.881  -1.115  0.00  0.00     0.000 A 
ATOM      3  C5  <0> d          -3.601  -1.328  -0.742  0.00  0.00     0.054 A 
ATOM      4  C6  <0> d          -3.567  -1.527   0.609  0.00  0.00     0.144 A 
ATOM      5  O1  <0> d          -2.328  -1.222   1.045  0.00  0.00    -0.309 OA
ENDROOT
BRANCH   4   6
ATOM      6  C7  <0> d          -4.683  -1.994   1.439  0.00  0.00     0.278 C 
ATOM      7  O2  <0> d          -5.759  -2.241   0.928  0.00  0.00    -0.265 OA
ATOM      8  N1  <0> d          -4.516  -2.149   2.767  0.00  0.00    -0.337 N 
ATOM      9  C11 <0> d          -5.508  -2.605   3.769  0.00  0.00     0.090 C 
ATOM     10  C8  <0> d          -3.297  -1.897   3.574  0.00  0.00     0.090 C 
ATOM     11  C10 <0> d          -4.704  -3.559   4.689  0.00  0.00     0.027 C 
ATOM     12  C12 <0> d          -5.915  -1.378   4.601  0.00  0.00     0.057 C 
ATOM     13  C9  <0> d          -3.241  -3.086   4.560  0.00  0.00     0.027 C 
ATOM     14  C13 <0> d          -4.690  -0.870   5.366  0.00  0.00     0.122 C 
ATOM     15  C14 <0> d          -3.540  -0.611   4.379  0.00  0.00     0.057 C 
BRANCH  14  16
ATOM     16  O3  <0> d          -5.019   0.352   6.032  0.00  0.00    -0.395 OA
ATOM     17  H18 <0> d          -4.288   0.732   6.538  0.00  0.00     0.210 HD
ENDBRANCH  14  16
ENDBRANCH   4   6
BRANCH   2  18
ATOM     18  C15 <0> d          -1.871  -0.527  -2.509  0.00  0.00     0.275 C 
BRANCH  18  19
ATOM     19  N2  <0> d          -1.061  -1.625  -3.054  0.00  0.00    -0.068 N 
ATOM     20  H31 <0> d          -0.298  -1.825  -2.424  0.00  0.00     0.280 HD
BRANCH  19  21
ATOM     21  C16 <0> d          -1.898  -2.822  -3.206  0.00  0.00     0.231 C 
ATOM     22  C17 <0> d          -1.029  -3.998  -3.655  0.00  0.00     0.034 C 
ENDBRANCH  19  21
BRANCH  19  23
ATOM     23  C18 <0> d          -0.524  -1.233  -4.364  0.00  0.00     0.231 C 
ATOM     24  C19 <0> d           0.458  -0.073  -4.186  0.00  0.00     0.034 C 
ENDBRANCH  19  23
ENDBRANCH  18  19
ENDBRANCH   2  18
BRANCH   1  25
ATOM     25  C2  <0> d          -0.133  -0.402   0.084  0.00  0.00     0.061 C 
ATOM     26  C1  <0> d          -0.057   1.121   0.216  0.00  0.00     0.012 C 
ENDBRANCH   1  25
TORSDOF 7
