REMARK  2 active torsions:
REMARK  status: ('A' for Active; 'I' for Inactive)
REMARK    1  A    between atoms: N1_9  and  C11_12 
REMARK    2  A    between atoms: C11_12  and  C16_18 
ROOT
ATOM      1  C1  <0> d          -0.865   0.716   0.295  0.00  0.00     0.000 C 
ATOM      2  C2  <0> d           0.471   1.445   0.452  0.00  0.00     0.001 C 
ATOM      3  C3  <0> d           1.327   1.214  -0.794  0.00  0.00     0.010 C 
ATOM      4  C4  <0> d           1.579  -0.284  -0.970  0.00  0.00    -0.037 C 
ATOM      5  C5  <0> d           0.244  -1.014  -1.126  0.00  0.00     0.010 C 
ATOM      6  C6  <0> d          -0.612  -0.783   0.121  0.00  0.00     0.001 C 
ATOM      7  C7  <0> d           2.438  -0.517  -2.216  0.00  0.00     0.037 C 
ATOM      8  C8  <0> d           2.751  -2.010  -2.340  0.00  0.00     0.237 C 
ATOM      9  N1  <0> d           3.480  -2.461  -1.149  0.00  0.00    -0.052 N 
ATOM     10  C9  <0> d           2.634  -2.307   0.041  0.00  0.00     0.237 C 
ATOM     11  C10 <0> d           2.317  -0.826   0.257  0.00  0.00     0.037 C 
ATOM     12  H27 <0> d           4.317  -1.909  -1.038  0.00  0.00     0.281 HD
ENDROOT
BRANCH   9  13
ATOM     13  C11 <0> d           3.846  -3.875  -1.307  0.00  0.00     0.218 C 
ATOM     14  C15 <0> d           2.578  -4.733  -1.336  0.00  0.00     0.077 C 
ATOM     15  C14 <0> d           2.965  -6.194  -1.580  0.00  0.00     0.170 C 
ATOM     16  O1  <0> d           3.695  -6.294  -2.804  0.00  0.00    -0.391 OA
ATOM     17  C13 <0> d           4.915  -5.550  -2.818  0.00  0.00     0.170 C 
ATOM     18  C12 <0> d           4.606  -4.063  -2.624  0.00  0.00     0.077 C 
BRANCH  13  19
ATOM     19  C16 <0> d           4.718  -4.302  -0.154  0.00  0.00     0.211 C 
ATOM     20  O2  <0> d           5.101  -3.478   0.658  0.00  0.00    -0.646 OA
ATOM     21  O3  <0> d           5.040  -5.472  -0.034  0.00  0.00    -0.646 OA
ENDBRANCH  13  19
ENDBRANCH   9  13
TORSDOF 2
