REMARK  6 active torsions:
REMARK  status: ('A' for Active; 'I' for Inactive)
REMARK    1  A    between atoms: C2_2  and  C3_3 
REMARK    2  A    between atoms: C3_3  and  N1_4 
REMARK    3  A    between atoms: C6_7  and  N2_10 
REMARK       I    between atoms: N2_10  and  C9_11 
REMARK       I    between atoms: C9_11  and  N3_13 
REMARK    4  A    between atoms: N3_13  and  C10_14 
REMARK    5  A    between atoms: C10_14  and  C12_16 
REMARK    6  A    between atoms: C10_14  and  C15_19 
ROOT
ATOM      1  N2  <0> d           0.285  -6.016  -2.342  0.00  0.00    -0.338 N 
ATOM      2  C9  <0> d           0.506  -6.762  -3.442  0.00  0.00     0.317 C 
ATOM      3  O1  <0> d           0.643  -6.224  -4.524  0.00  0.00    -0.247 OA
ATOM      4  N3  <0> d           0.575  -8.104  -3.344  0.00  0.00    -0.324 N 
ATOM      5  H17 <0> d           0.175  -6.445  -1.479  0.00  0.00     0.164 HD
ATOM      6  H18 <0> d           0.466  -8.533  -2.481  0.00  0.00     0.165 HD
ENDROOT
BRANCH   1   7
ATOM      7  C6  <0> d           0.209  -4.557  -2.449  0.00  0.00     0.089 C 
ATOM      8  C5  <0> d          -0.627  -4.001  -1.293  0.00  0.00     0.053 C 
ATOM      9  C4  <0> d          -0.636  -2.472  -1.366  0.00  0.00     0.237 C 
ATOM     10  N1  <0> d           0.738  -1.966  -1.265  0.00  0.00    -0.071 N 
ATOM     11  C8  <0> d           1.528  -2.437  -2.409  0.00  0.00     0.237 C 
ATOM     12  H27 <0> d           1.155  -2.301  -0.409  0.00  0.00     0.279 HD
ATOM     13  C7  <0> d           1.620  -3.964  -2.376  0.00  0.00     0.053 C 
BRANCH  10  14
ATOM     14  C3  <0> d           0.718  -0.497  -1.257  0.00  0.00     0.234 C 
BRANCH  14  15
ATOM     15  C2  <0> d           0.002  -0.004   0.002  0.00  0.00     0.023 C 
ATOM     16  C1  <0> d          -0.019   1.526   0.010  0.00  0.00     0.007 C 
ENDBRANCH  14  15
ENDBRANCH  10  14
ENDBRANCH   1   7
BRANCH   4  17
ATOM     17  C10 <0> d           0.816  -8.915  -4.540  0.00  0.00     0.122 C 
ATOM     18  C11 <0> d           2.157  -8.521  -5.162  0.00  0.00     0.051 C 
BRANCH  17  19
ATOM     19  C12 <0> d           0.849 -10.395  -4.154  0.00  0.00     0.024 A 
ATOM     20  C14 <0> d           0.972 -11.418  -5.286  0.00  0.00     0.008 A 
ATOM     21  C13 <0> d           2.163 -11.151  -4.362  0.00  0.00     0.008 A 
ENDBRANCH  17  19
BRANCH  17  22
ATOM     22  C15 <0> d          -0.289  -8.680  -5.537  0.00  0.00     0.202 C 
ATOM     23  O2  <0> d          -1.194  -7.907  -5.273  0.00  0.00    -0.646 OA
ATOM     24  O3  <0> d          -0.279  -9.263  -6.607  0.00  0.00    -0.646 OA
ENDBRANCH  17  22
ENDBRANCH   4  17
TORSDOF 6
