REMARK  4 active torsions:
REMARK  status: ('A' for Active; 'I' for Inactive)
REMARK    1  A    between atoms: O1_2  and  C2_3 
REMARK    2  A    between atoms: C5_6  and  C9_11 
REMARK    3  A    between atoms: C7_8  and  O2_9 
REMARK    4  A    between atoms: N1_12  and  N2_13 
ROOT
ATOM      1  C2  <0> d           0.606  -0.607  -1.056  0.00  0.00     0.101 A 
ATOM      2  C3  <0> d           1.172   0.164  -2.061  0.00  0.00     0.040 A 
ATOM      3  C4  <0> d           1.786  -0.442  -3.137  0.00  0.00     0.016 A 
ATOM      4  C5  <0> d           1.839  -1.838  -3.216  0.00  0.00    -0.014 A 
ATOM      5  C6  <0> d           1.268  -2.614  -2.203  0.00  0.00     0.052 A 
ATOM      6  C7  <0> d           0.660  -1.998  -1.125  0.00  0.00     0.102 A 
ENDROOT
BRANCH   4   7
ATOM      7  C9  <0> d           2.492  -2.487  -4.364  0.00  0.00     0.152 C 
ATOM      8  N1  <0> d           3.024  -1.761  -5.309  0.00  0.00    -0.159 NA
BRANCH   8   9
ATOM      9  N2  <0> d           3.597  -2.330  -6.315  0.00  0.00    -0.125 NA
ATOM     10  C10 <0> d           4.133  -1.598  -7.268  0.00  0.00     0.190 A 
ATOM     11  S1  <0> d           4.973  -2.151  -8.744  0.00  0.00    -0.081 SA
ATOM     12  N3  <0> d           4.183  -0.223  -7.359  0.00  0.00    -0.304 N 
ATOM     13  C12 <0> d           5.358  -0.494  -9.446  0.00  0.00     0.185 A 
ATOM     14  C11 <0> d           4.755   0.401  -8.375  0.00  0.00     0.233 A 
ATOM     15  O3  <0> d           4.795   1.611  -8.448  0.00  0.00    -0.272 OA
ATOM     16  H11 <0> d           3.784   0.307  -6.651  0.00  0.00     0.171 HD
ENDBRANCH   8   9
ENDBRANCH   4   7
BRANCH   6  17
ATOM     17  O2  <0> d           0.108  -2.749  -0.135  0.00  0.00    -0.353 OA
ATOM     18  C8  <0> d           0.200  -4.169  -0.270  0.00  0.00     0.210 C 
ENDBRANCH   6  17
BRANCH   1  19
ATOM     19  O1  <0> d           0.002  -0.004   0.002  0.00  0.00    -0.353 OA
ATOM     20  C1  <0> d          -0.017   1.425   0.010  0.00  0.00     0.210 C 
ENDBRANCH   1  19
TORSDOF 4
