REMARK  5 active torsions:
REMARK  status: ('A' for Active; 'I' for Inactive)
REMARK    1  A    between atoms: C2_2  and  C3_3 
REMARK    2  A    between atoms: C6_6  and  N2_13 
REMARK    3  A    between atoms: C8_8  and  S1_9 
REMARK    4  A    between atoms: S1_9  and  N1_12 
REMARK       I    between atoms: N2_13  and  C9_14 
REMARK    5  A    between atoms: C9_14  and  C10_16 
ROOT
ATOM      1  C3  <0> d           0.521  -0.304  -1.216  0.00  0.00    -0.035 A 
ATOM      2  C4  <0> d          -0.168  -0.707  -2.345  0.00  0.00     0.011 A 
ATOM      3  C5  <0> d           0.488  -1.391  -3.349  0.00  0.00     0.030 A 
ATOM      4  C6  <0> d           1.842  -1.675  -3.224  0.00  0.00     0.036 A 
ATOM      5  C7  <0> d           2.531  -1.269  -2.089  0.00  0.00     0.055 A 
ATOM      6  C8  <0> d           1.870  -0.581  -1.091  0.00  0.00     0.087 A 
ENDROOT
BRANCH   4   7
ATOM      7  N2  <0> d           2.510  -2.367  -4.239  0.00  0.00    -0.322 N 
ATOM      8  C9  <0> d           3.503  -3.224  -3.929  0.00  0.00     0.272 C 
ATOM      9  O3  <0> d           3.756  -3.466  -2.764  0.00  0.00    -0.266 OA
ATOM     10  H12 <0> d           2.257  -2.232  -5.166  0.00  0.00     0.169 HD
BRANCH   8  11
ATOM     11  C10 <0> d           4.281  -3.865  -5.000  0.00  0.00     0.102 A 
ATOM     12  N3  <0> d           4.091  -3.671  -6.354  0.00  0.00    -0.351 N 
ATOM     13  C17 <0> d           5.005  -4.433  -7.043  0.00  0.00     0.043 A 
ATOM     14  H1  <0> d           3.423  -3.092  -6.754  0.00  0.00     0.166 HD
ATOM     15  C12 <0> d           5.779  -5.125  -6.091  0.00  0.00    -0.007 A 
ATOM     16  C16 <0> d           5.263  -4.617  -8.399  0.00  0.00     0.030 A 
ATOM     17  C11 <0> d           5.299  -4.746  -4.814  0.00  0.00     0.049 A 
ATOM     18  C13 <0> d           6.796  -5.989  -6.519  0.00  0.00     0.014 A 
ATOM     19  C14 <0> d           7.029  -6.153  -7.853  0.00  0.00     0.001 A 
ATOM     20  C15 <0> d           6.268  -5.471  -8.794  0.00  0.00     0.002 A 
ENDBRANCH   8  11
ENDBRANCH   4   7
BRANCH   6  21
ATOM     21  S1  <0> d           2.745  -0.060   0.347  0.00  0.00     0.257 S 
ATOM     22  O1  <0> d           1.976  -0.481   1.466  0.00  0.00    -0.201 OA
ATOM     23  O2  <0> d           4.099  -0.451   0.163  0.00  0.00    -0.201 OA
BRANCH  21  24
ATOM     24  N1  <0> d           2.728   1.596   0.358  0.00  0.00    -0.324 N 
ATOM     25  H10 <0> d           2.223   2.080  -0.314  0.00  0.00     0.169 HD
ATOM     26  H11 <0> d           3.223   2.082   1.036  0.00  0.00     0.169 HD
ENDBRANCH  21  24
ENDBRANCH   6  21
BRANCH   1  27
ATOM     27  C2  <0> d          -0.198   0.442  -0.122  0.00  0.00     0.035 C 
ATOM     28  C1  <0> d          -1.689   0.522  -0.455  0.00  0.00     0.010 C 
ENDBRANCH   1  27
TORSDOF 5
