REMARK  4 active torsions:
REMARK  status: ('A' for Active; 'I' for Inactive)
REMARK    1  A    between atoms: C2_2  and  C3_3 
REMARK    2  A    between atoms: C9_9  and  C16_20 
REMARK    3  A    between atoms: C10_12  and  C11_14 
REMARK    4  A    between atoms: C19_23  and  N5_26 
ROOT
ATOM      1  C3  <0> d           0.742   0.005  -1.869  0.00  0.00    -0.058 A 
ATOM      2  C4  <0> d           0.163  -0.288  -3.089  0.00  0.00     0.009 A 
ATOM      3  C5  <0> d           0.893  -0.938  -4.064  0.00  0.00     0.033 A 
ATOM      4  C6  <0> d           2.223  -1.307  -3.832  0.00  0.00     0.071 A 
ATOM      5  C7  <0> d           2.806  -1.014  -2.594  0.00  0.00     0.025 A 
ATOM      6  C8  <0> d           2.056  -0.350  -1.623  0.00  0.00     0.023 A 
ATOM      7  C9  <0> d           4.201  -1.376  -2.251  0.00  0.00     0.099 C 
ATOM      8  N1  <0> d           4.752  -2.488  -2.612  0.00  0.00    -0.172 NA
ATOM      9  N2  <0> d           4.075  -3.385  -3.450  0.00  0.00    -0.260 N 
ATOM     10  C10 <0> d           3.696  -2.935  -4.703  0.00  0.00     0.154 C 
ATOM     11  N3  <0> d           2.880  -1.939  -4.849  0.00  0.00    -0.228 NA
ATOM     12  H9  <0> d           3.879  -4.290  -3.162  0.00  0.00     0.191 HD
ENDROOT
BRANCH   7  13
ATOM     13  C16 <0> d           5.002  -0.420  -1.457  0.00  0.00    -0.005 A 
ATOM     14  C21 <0> d           4.662   0.935  -1.444  0.00  0.00     0.016 A 
ATOM     15  C20 <0> d           5.406   1.823  -0.698  0.00  0.00     0.030 A 
ATOM     16  C19 <0> d           6.502   1.373   0.031  0.00  0.00     0.030 A 
ATOM     17  C18 <0> d           6.846   0.026   0.015  0.00  0.00     0.030 A 
ATOM     18  C17 <0> d           6.102  -0.868  -0.723  0.00  0.00     0.016 A 
BRANCH  16  19
ATOM     19  N5  <0> d           7.257   2.276   0.781  0.00  0.00    -0.377 N 
ATOM     20  C25 <0> d           8.485   1.848   1.468  0.00  0.00     0.149 C 
ATOM     21  C24 <0> d           8.414   2.307   2.925  0.00  0.00     0.187 C 
ATOM     22  O1  <0> d           8.117   3.705   2.966  0.00  0.00    -0.388 OA
ATOM     23  C23 <0> d           6.851   4.051   2.400  0.00  0.00     0.187 C 
ATOM     24  C22 <0> d           6.845   3.682   0.912  0.00  0.00     0.149 C 
ENDBRANCH  16  19
ENDBRANCH   7  13
BRANCH   1  25
ATOM     25  C2  <0> d          -0.056   0.717  -0.808  0.00  0.00     0.034 C 
ATOM     26  C1  <0> d           0.114   2.229  -0.971  0.00  0.00     0.010 C 
ENDBRANCH   1  25
BRANCH  10  27
ATOM     27  C11 <0> d           4.234  -3.608  -5.904  0.00  0.00     0.014 A 
ATOM     28  C15 <0> d           5.117  -4.688  -5.788  0.00  0.00     0.034 A 
ATOM     29  C14 <0> d           5.592  -5.290  -6.936  0.00  0.00     0.117 A 
ATOM     30  N4  <0> d           5.232  -4.854  -8.127  0.00  0.00    -0.273 NA
ATOM     31  C13 <0> d           4.407  -3.837  -8.282  0.00  0.00     0.117 A 
ATOM     32  C12 <0> d           3.880  -3.180  -7.188  0.00  0.00     0.034 A 
ENDBRANCH  10  27
TORSDOF 4
