REMARK  4 active torsions:
REMARK  status: ('A' for Active; 'I' for Inactive)
REMARK    1  A    between atoms: C2_2  and  N1_3 
REMARK    2  A    between atoms: N1_3  and  C3_4 
REMARK    3  A    between atoms: C3_4  and  C4_5 
REMARK    4  A    between atoms: C4_5  and  N2_6 
ROOT
ATOM      1  C3  <0> d           0.729  -1.946  -1.249  0.00  0.00     0.344 C 
ATOM      2  C10 <0> d          -0.521  -2.453  -1.837  0.00  0.00     0.097 C 
ATOM      3  N4  <0> d          -1.486  -2.845  -2.292  0.00  0.00    -0.195 NA
ENDROOT
BRANCH   1   4
ATOM      4  N1  <0> d           0.690  -0.478  -1.207  0.00  0.00     0.102 N 
ATOM      5  H7  <0> d           0.258  -0.104  -2.038  0.00  0.00     0.317 HD
BRANCH   4   6
ATOM      6  C2  <0> d           0.002  -0.004   0.002  0.00  0.00     0.267 C 
ATOM      7  C1  <0> d          -0.019   1.526   0.010  0.00  0.00     0.037 C 
ENDBRANCH   4   6
ENDBRANCH   1   4
BRANCH   1   8
ATOM      8  C4  <0> d           1.915  -2.400  -2.101  0.00  0.00     0.180 C 
BRANCH   8   9
ATOM      9  N2  <0> d           3.166  -1.997  -1.452  0.00  0.00    -0.342 N 
ATOM     10  C7  <0> d           3.834  -2.688  -0.478  0.00  0.00     0.030 A 
ATOM     11  C6  <0> d           4.929  -1.967  -0.170  0.00  0.00     0.028 A 
ATOM     12  C8  <0> d           3.425  -4.004   0.131  0.00  0.00     0.070 C 
ATOM     13  N3  <0> d           4.924  -0.861  -0.929  0.00  0.00    -0.354 N 
ATOM     14  C9  <0> d           5.973  -2.335   0.852  0.00  0.00     0.070 C 
ATOM     15  C5  <0> d           3.871  -0.873  -1.700  0.00  0.00     0.183 A 
ATOM     16  H17 <0> d           5.597  -0.163  -0.909  0.00  0.00     0.166 HD
ENDBRANCH   8   9
ENDBRANCH   1   8
TORSDOF 4
