REMARK  5 active torsions:
REMARK  status: ('A' for Active; 'I' for Inactive)
REMARK    1  A    between atoms: C4_4  and  N5_21 
REMARK    2  A    between atoms: C7_10  and  C8_11 
REMARK       I    between atoms: C8_11  and  N3_13 
REMARK    3  A    between atoms: N4_16  and  C13_19 
REMARK    4  A    between atoms: N5_21  and  C14_22 
REMARK    5  A    between atoms: C14_22  and  C16_24 
ROOT
ATOM      1  C1  <0> d           2.282  -1.684   0.714  0.00  0.00     0.051 C 
ATOM      2  C2  <0> d           1.732  -0.361   0.245  0.00  0.00    -0.022 A 
ATOM      3  C3  <0> d           0.706   0.266   0.963  0.00  0.00     0.053 A 
ATOM      4  C4  <0> d           0.041  -0.163   2.150  0.00  0.00     0.139 A 
ATOM      5  N1  <0> d          -0.913   0.595   2.666  0.00  0.00    -0.224 NA
ATOM      6  C5  <0> d          -1.275   1.741   2.119  0.00  0.00     0.236 A 
ATOM      7  N2  <0> d          -0.697   2.195   1.024  0.00  0.00    -0.234 NA
ATOM      8  C6  <0> d           0.260   1.504   0.439  0.00  0.00     0.114 A 
ATOM      9  S1  <0> d           1.274   1.727  -1.000  0.00  0.00    -0.063 SA
ATOM     10  C7  <0> d           2.232   0.226  -0.876  0.00  0.00     0.082 A 
ENDROOT
BRANCH  10  11
ATOM     11  C8  <0> d           3.297  -0.256  -1.765  0.00  0.00     0.261 C 
ATOM     12  O1  <0> d           3.330  -1.426  -2.095  0.00  0.00    -0.267 OA
ATOM     13  N3  <0> d           4.238   0.599  -2.214  0.00  0.00    -0.344 N 
ATOM     14  C12 <0> d           4.273   1.989  -1.740  0.00  0.00     0.146 C 
ATOM     15  C9  <0> d           5.250   0.154  -3.182  0.00  0.00     0.146 C 
ATOM     16  C11 <0> d           4.225   2.923  -2.957  0.00  0.00     0.145 C 
ATOM     17  N4  <0> d           5.234   2.480  -3.929  0.00  0.00    -0.356 N 
ATOM     18  C10 <0> d           5.199   1.089  -4.403  0.00  0.00     0.145 C 
BRANCH  17  19
ATOM     19  C13 <0> d           6.175   3.334  -4.378  0.00  0.00     0.350 C 
ATOM     20  O2  <0> d           7.002   2.957  -5.181  0.00  0.00    -0.284 OA
ENDBRANCH  17  19
ENDBRANCH  10  11
BRANCH   4  21
ATOM     21  N5  <0> d           0.389  -1.355   2.754  0.00  0.00    -0.365 N 
ATOM     22  H15 <0> d           1.028  -1.946   2.327  0.00  0.00     0.162 HD
BRANCH  21  23
ATOM     23  C14 <0> d          -0.206  -1.725   4.040  0.00  0.00     0.119 C 
ATOM     24  C15 <0> d          -1.553  -2.410   3.801  0.00  0.00     0.038 C 
BRANCH  23  25
ATOM     25  C16 <0> d           0.715  -2.671   4.767  0.00  0.00     0.005 A 
ATOM     26  S2  <0> d           1.686  -4.019   4.113  0.00  0.00    -0.104 SA
ATOM     27  C19 <0> d           2.436  -4.554   5.642  0.00  0.00     0.050 A 
ATOM     28  C18 <0> d           1.905  -3.683   6.534  0.00  0.00     0.008 A 
ATOM     29  C17 <0> d           1.028  -2.714   6.085  0.00  0.00     0.017 A 
ENDBRANCH  23  25
ENDBRANCH  21  23
ENDBRANCH   4  21
TORSDOF 5
