REMARK  5 active torsions:
REMARK  status: ('A' for Active; 'I' for Inactive)
REMARK    1  A    between atoms: C3_3  and  C13_17 
REMARK    2  A    between atoms: C4_4  and  C6_9 
REMARK    3  A    between atoms: C11_14  and  O2_15 
REMARK       I    between atoms: C13_17  and  N3_19 
REMARK    4  A    between atoms: N3_19  and  C14_20 
REMARK    5  A    between atoms: C18_24  and  C20_26 
ROOT
ATOM      1  C1  <0> d          -2.313   3.061   2.103  0.00  0.00     0.069 C 
ATOM      2  C2  <0> d          -1.073   2.446   1.505  0.00  0.00     0.024 A 
ATOM      3  C3  <0> d          -1.192   1.394   0.668  0.00  0.00     0.059 A 
ATOM      4  C4  <0> d           0.080   0.807   0.090  0.00  0.00     0.163 A 
ATOM      5  N1  <0> d           1.349   1.436   0.492  0.00  0.00    -0.330 N 
ATOM      6  C5  <0> d           1.306   2.483   1.339  0.00  0.00     0.321 A 
ATOM      7  O1  <0> d           2.348   3.009   1.677  0.00  0.00    -0.247 OA
ATOM      8  N2  <0> d           0.152   2.962   1.821  0.00  0.00    -0.312 N 
ATOM      9  H5  <0> d           2.196   1.104   0.155  0.00  0.00     0.165 HD
ATOM     10  H6  <0> d           0.188   3.719   2.427  0.00  0.00     0.170 HD
ENDROOT
BRANCH   3  11
ATOM     11  C13 <0> d          -2.461   0.858   0.341  0.00  0.00     0.256 C 
ATOM     12  O3  <0> d          -3.474   1.413   0.726  0.00  0.00    -0.267 OA
ATOM     13  N3  <0> d          -2.548  -0.266  -0.398  0.00  0.00    -0.323 N 
ATOM     14  H14 <0> d          -1.741  -0.708  -0.706  0.00  0.00     0.169 HD
BRANCH  13  15
ATOM     15  C14 <0> d          -3.802  -0.796  -0.720  0.00  0.00     0.035 A 
ATOM     16  C19 <0> d          -3.986  -1.464  -1.923  0.00  0.00     0.045 A 
ATOM     17  C18 <0> d          -5.225  -1.987  -2.239  0.00  0.00     0.050 A 
ATOM     18  C17 <0> d          -6.281  -1.845  -1.358  0.00  0.00     0.016 A 
ATOM     19  C16 <0> d          -6.101  -1.180  -0.159  0.00  0.00     0.003 A 
ATOM     20  C15 <0> d          -4.864  -0.659   0.165  0.00  0.00     0.029 A 
BRANCH  17  21
ATOM     21  C20 <0> d          -5.426  -2.713  -3.544  0.00  0.00     0.417 C 
ATOM     22  F1  <0> d          -5.157  -4.074  -3.366  0.00  0.00    -0.166 F 
ATOM     23  F2  <0> d          -6.749  -2.550  -3.969  0.00  0.00    -0.166 F 
ATOM     24  F3  <0> d          -4.559  -2.188  -4.508  0.00  0.00    -0.166 F 
ENDBRANCH  17  21
ENDBRANCH  13  15
ENDBRANCH   3  11
BRANCH   4  25
ATOM     25  C6  <0> d          -0.019   0.877  -1.412  0.00  0.00     0.003 A 
ATOM     26  C11 <0> d           0.531  -0.130  -2.192  0.00  0.00     0.076 A 
ATOM     27  C10 <0> d           0.436  -0.064  -3.575  0.00  0.00     0.037 A 
ATOM     28  C9  <0> d          -0.198   1.009  -4.172  0.00  0.00     0.003 A 
ATOM     29  C8  <0> d          -0.741   2.014  -3.392  0.00  0.00     0.001 A 
ATOM     30  C7  <0> d          -0.651   1.948  -2.014  0.00  0.00     0.012 A 
BRANCH  26  31
ATOM     31  O2  <0> d           1.159  -1.181  -1.603  0.00  0.00    -0.355 OA
ATOM     32  C12 <0> d           1.791  -2.127  -2.467  0.00  0.00     0.210 C 
ENDBRANCH  26  31
ENDBRANCH   4  25
TORSDOF 5
