REMARK  5 active torsions:
REMARK  status: ('A' for Active; 'I' for Inactive)
REMARK    1  A    between atoms: C3_5  and  S1_8 
REMARK    2  A    between atoms: S1_8  and  C4_9 
REMARK    3  A    between atoms: C4_9  and  C5_10 
REMARK    4  A    between atoms: C4_9  and  C6_12 
REMARK    5  A    between atoms: C5_10  and  N4_11 
ROOT
ATOM      1  C4  <0> d          -5.048   2.277  -1.671  0.00  0.00     0.113 C 
ENDROOT
BRANCH   1   2
ATOM      2  S1  <0> d          -4.058   2.770  -3.108  0.00  0.00    -0.079 SA
BRANCH   2   3
ATOM      3  C3  <0> d          -2.396   2.466  -2.606  0.00  0.00     0.185 A 
ATOM      4  N1  <0> d          -2.007   2.067  -1.413  0.00  0.00    -0.207 NA
ATOM      5  C2  <0> d          -0.680   1.940  -1.392  0.00  0.00     0.145 A 
ATOM      6  C1  <0> d           0.137   1.503  -0.204  0.00  0.00     0.095 C 
ATOM      7  N3  <0> d          -0.201   2.259  -2.564  0.00  0.00    -0.158 NA
ATOM      8  N2  <0> d          -1.295   2.600  -3.377  0.00  0.00    -0.254 N 
ATOM      9  H1  <0> d          -1.265   2.880  -4.305  0.00  0.00     0.191 HD
ENDBRANCH   2   3
ENDBRANCH   1   2
BRANCH   1  10
ATOM     10  C5  <0> d          -4.801   3.256  -0.521  0.00  0.00     0.249 C 
BRANCH  10  11
ATOM     11  N4  <0> d          -5.498   2.784   0.682  0.00  0.00    -0.078 N 
ATOM     12  H8  <0> d          -5.212   1.838   0.888  0.00  0.00     0.274 HD
ATOM     13  H9  <0> d          -5.266   3.382   1.461  0.00  0.00     0.274 HD
ATOM     14  H14 <0> d          -6.494   2.807   0.525  0.00  0.00     0.274 HD
ENDBRANCH  10  11
ENDBRANCH   1  10
BRANCH   1  15
ATOM     15  C6  <0> d          -6.509   2.292  -2.038  0.00  0.00    -0.042 A 
ATOM     16  C11 <0> d          -7.257   1.133  -1.948  0.00  0.00     0.010 A 
ATOM     17  C10 <0> d          -8.598   1.148  -2.280  0.00  0.00     0.019 A 
ATOM     18  C9  <0> d          -9.190   2.321  -2.714  0.00  0.00     0.011 A 
ATOM     19  C8  <0> d          -8.441   3.479  -2.809  0.00  0.00     0.019 A 
ATOM     20 Br1  <0> d         -11.024   2.340  -3.175  0.00  0.00    -0.051 Br
ATOM     21  C7  <0> d          -7.101   3.465  -2.471  0.00  0.00     0.010 A 
ENDBRANCH   1  15
TORSDOF 5
