REMARK  3 active torsions:
REMARK  status: ('A' for Active; 'I' for Inactive)
REMARK    1  A    between atoms: C10_10  and  C11_11 
REMARK    2  A    between atoms: N1_12  and  N2_13 
REMARK    3  A    between atoms: N2_13  and  C12_14 
ROOT
ATOM      1  N2  <0> d          -3.709   6.123  -0.030  0.00  0.00    -0.260 N 
ATOM      2  H9  <0> d          -3.704   7.090   0.048  0.00  0.00     0.191 HD
ENDROOT
BRANCH   1   3
ATOM      3  N1  <0> d          -2.501   5.414  -0.045  0.00  0.00    -0.185 NA
ATOM      4  C11 <0> d          -1.373   6.051   0.046  0.00  0.00     0.151 C 
BRANCH   4   5
ATOM      5  C10 <0> d          -0.104   5.307   0.031  0.00  0.00    -0.006 A 
ATOM      6  C4  <0> d          -0.097   3.845   0.032  0.00  0.00    -0.014 A 
ATOM      7  C3  <0> d          -1.286   3.107   0.048  0.00  0.00     0.013 A 
ATOM      8  C5  <0> d           1.147   3.168   0.016  0.00  0.00    -0.025 A 
ATOM      9  C2  <0> d          -1.234   1.745   0.042  0.00  0.00     0.001 A 
ATOM     10  C1  <0> d          -0.012   1.076   0.033  0.00  0.00     0.001 A 
ATOM     11  C6  <0> d           1.163   1.762   0.017  0.00  0.00     0.012 A 
ATOM     12  C7  <0> d           2.339   3.912  -0.000  0.00  0.00     0.012 A 
ATOM     13  C8  <0> d           2.308   5.273  -0.000  0.00  0.00     0.002 A 
ATOM     14  C9  <0> d           1.113   5.978   0.015  0.00  0.00     0.014 A 
ENDBRANCH   4   5
ENDBRANCH   1   3
BRANCH   1  15
ATOM     15  C12 <0> d          -4.907   5.447  -0.126  0.00  0.00     0.168 A 
ATOM     16  C14 <0> d          -6.180   6.183  -0.112  0.00  0.00     0.035 A 
ATOM     17  C13 <0> d          -7.286   5.328  -0.220  0.00  0.00     0.095 A 
ATOM     18  C15 <0> d          -6.435   7.559  -0.011  0.00  0.00     0.017 A 
ATOM     19  S1  <0> d          -6.538   3.724  -0.323  0.00  0.00     0.286 S 
ATOM     20  C18 <0> d          -8.568   5.795  -0.229  0.00  0.00     0.026 A 
ATOM     21  N3  <0> d          -4.923   4.155  -0.236  0.00  0.00    -0.140 NA
ATOM     22  O1  <0> d          -6.865   3.017   0.865  0.00  0.00    -0.198 OA
ATOM     23  O2  <0> d          -6.778   3.217  -1.628  0.00  0.00    -0.198 OA
ATOM     24  C17 <0> d          -8.801   7.159  -0.128  0.00  0.00     0.002 A 
ATOM     25  C16 <0> d          -7.730   8.028  -0.019  0.00  0.00     0.001 A 
ENDBRANCH   1  15
TORSDOF 3
