REMARK  5 active torsions:
REMARK  status: ('A' for Active; 'I' for Inactive)
REMARK    1  A    between atoms: C5_5  and  N1_9 
REMARK    2  A    between atoms: N1_9  and  C9_10 
REMARK    3  A    between atoms: C10_11  and  N6_23 
REMARK    4  A    between atoms: C11_12  and  N4_16 
REMARK    5  A    between atoms: N4_16  and  C13_17 
ROOT
ATOM      1  C9  <0> d          -0.540  -4.850  -1.229  0.00  0.00     0.159 A 
ATOM      2  C10 <0> d          -0.390  -6.239  -1.243  0.00  0.00     0.119 A 
ATOM      3  C11 <0> d          -0.475  -6.898  -2.470  0.00  0.00     0.159 A 
ATOM      4  N2  <0> d          -0.693  -6.184  -3.572  0.00  0.00    -0.222 NA
ATOM      5  C12 <0> d          -0.829  -4.875  -3.515  0.00  0.00     0.237 A 
ATOM      6  N3  <0> d          -0.761  -4.214  -2.377  0.00  0.00    -0.222 NA
ENDROOT
BRANCH   1   7
ATOM      7  N1  <0> d          -0.465  -4.144  -0.033  0.00  0.00    -0.339 N 
ATOM      8  H10 <0> d          -0.407  -4.622   0.809  0.00  0.00     0.167 HD
BRANCH   7   9
ATOM      9  C5  <0> d          -0.475  -2.747  -0.046  0.00  0.00     0.039 A 
ATOM     10  C4  <0> d          -0.168  -2.059  -1.213  0.00  0.00     0.030 A 
ATOM     11  C3  <0> d          -0.179  -0.678  -1.222  0.00  0.00     0.009 A 
ATOM     12  C2  <0> d          -0.494   0.020  -0.070  0.00  0.00    -0.061 A 
ATOM     13  C1  <0> d          -0.505   1.527  -0.083  0.00  0.00     0.048 C 
ATOM     14  C7  <0> d          -0.795  -0.662   1.095  0.00  0.00     0.015 A 
ATOM     15  C6  <0> d          -0.791  -2.043   1.109  0.00  0.00    -0.035 A 
ATOM     16  C8  <0> d          -1.125  -2.785   2.377  0.00  0.00     0.050 C 
ENDBRANCH   7   9
ENDBRANCH   1   7
BRANCH   2  17
ATOM     17  N6  <0> d          -0.161  -6.951  -0.056  0.00  0.00    -0.393 N 
ATOM     18  H17 <0> d          -0.104  -6.479   0.790  0.00  0.00     0.156 HD
ATOM     19  H18 <0> d          -0.058  -7.916  -0.081  0.00  0.00     0.156 HD
ENDBRANCH   2  17
BRANCH   3  20
ATOM     20  N4  <0> d          -0.332  -8.280  -2.541  0.00  0.00    -0.339 N 
ATOM     21  H12 <0> d          -0.236  -8.800  -1.727  0.00  0.00     0.167 HD
BRANCH  20  22
ATOM     22  C13 <0> d          -0.327  -8.917  -3.779  0.00  0.00     0.036 A 
ATOM     23  C17 <0> d          -0.917 -10.171  -3.941  0.00  0.00     0.046 A 
ATOM     24  C16 <0> d          -0.895 -10.766  -5.185  0.00  0.00     0.090 A 
ATOM     25  N5  <0> d          -0.317 -10.169  -6.211  0.00  0.00    -0.375 N 
ATOM     26  C15 <0> d           0.257  -8.985  -6.097  0.00  0.00     0.090 A 
ATOM     27  H19 <0> d          -0.313 -10.613  -7.073  0.00  0.00     0.164 HD
ATOM     28  C14 <0> d           0.273  -8.321  -4.888  0.00  0.00     0.046 A 
ENDBRANCH  20  22
ENDBRANCH   3  20
TORSDOF 5
