REMARK  3 active torsions:
REMARK  status: ('A' for Active; 'I' for Inactive)
REMARK    1  A    between atoms: N2_6  and  C7_9 
REMARK    2  A    between atoms: C7_9  and  C8_10 
REMARK    3  A    between atoms: C10_13  and  N4_15 
ROOT
ATOM      1  C1  <0> d          -0.018   1.465   0.010  0.00  0.00     0.269 C 
ATOM      2  N1  <0> d           0.002  -0.004   0.002  0.00  0.00    -0.073 N 
ATOM      3  C2  <0> d          -1.389  -0.500  -0.064  0.00  0.00     0.236 C 
ATOM      4  C3  <0> d          -1.377  -1.912  -0.594  0.00  0.00     0.058 C 
ATOM      5  C4  <0> d          -1.342  -2.952   0.539  0.00  0.00     0.274 C 
ATOM      6  N2  <0> d          -0.426  -2.559   1.634  0.00  0.00     0.095 N 
ATOM      7  C5  <0> d           0.818  -1.987   1.171  0.00  0.00     0.300 C 
ATOM      8  C6  <0> d           0.681  -0.453   1.139  0.00  0.00     0.264 C 
ATOM      9  H19 <0> d           0.498  -0.318  -0.819  0.00  0.00     0.279 HD
ENDROOT
BRANCH   6  10
ATOM     10  C7  <0> d          -0.181  -3.684   2.546  0.00  0.00     0.332 C 
BRANCH  10  11
ATOM     11  C8  <0> d          -1.460  -4.041   3.259  0.00  0.00     0.072 A 
ATOM     12  N3  <0> d          -1.835  -3.412   4.359  0.00  0.00    -0.227 NA
ATOM     13  C10 <0> d          -2.956  -3.727   4.972  0.00  0.00     0.164 A 
ATOM     14  S1  <0> d          -3.574  -4.974   4.026  0.00  0.00    -0.062 SA
ATOM     15  C9  <0> d          -2.273  -5.024   2.804  0.00  0.00     0.082 A 
BRANCH  13  16
ATOM     16  N4  <0> d          -3.495  -3.170   6.122  0.00  0.00    -0.378 N 
ATOM     17  H17 <0> d          -4.335  -3.502   6.474  0.00  0.00     0.158 HD
ATOM     18  H18 <0> d          -3.031  -2.448   6.574  0.00  0.00     0.158 HD
ENDBRANCH  13  16
ENDBRANCH  10  11
ENDBRANCH   6  10
TORSDOF 3
