REMARK  5 active torsions:
REMARK  status: ('A' for Active; 'I' for Inactive)
REMARK    1  A    between atoms: N1_2  and  C2_3 
REMARK    2  A    between atoms: N1_2  and  S1_10 
REMARK    3  A    between atoms: C2_3  and  C3_4 
REMARK    4  A    between atoms: S1_10  and  C8_13 
REMARK    5  A    between atoms: C9_14  and  N2_21 
ROOT
ATOM      1  S1  <0> d          -0.086  -1.011  -1.724  0.00  0.00     0.264 S 
ATOM      2  O2  <0> d          -0.527  -2.302  -1.328  0.00  0.00    -0.200 OA
ATOM      3  O3  <0> d          -0.645  -0.323  -2.835  0.00  0.00    -0.200 OA
ENDROOT
BRANCH   1   4
ATOM      4  N1  <0> d          -0.276  -0.021  -0.410  0.00  0.00    -0.309 N 
ATOM      5  C1  <0> d          -0.420   1.425  -0.597  0.00  0.00     0.163 C 
BRANCH   4   6
ATOM      6  C2  <0> d          -0.300  -0.592   0.939  0.00  0.00     0.166 C 
BRANCH   6   7
ATOM      7  C3  <0> d          -1.750  -0.830   1.366  0.00  0.00     0.140 C 
ATOM      8  O1  <0> d          -2.338  -1.824   0.525  0.00  0.00    -0.384 OA
ATOM      9  C7  <0> d          -3.707  -2.106   0.824  0.00  0.00     0.168 C 
ATOM     10  C6  <0> d          -3.817  -2.636   2.256  0.00  0.00     0.026 C 
ATOM     11  C5  <0> d          -3.230  -1.602   3.221  0.00  0.00     0.005 C 
ATOM     12  C4  <0> d          -1.781  -1.309   2.820  0.00  0.00     0.034 C 
ENDBRANCH   6   7
ENDBRANCH   4   6
ENDBRANCH   1   4
BRANCH   1  13
ATOM     13  C8  <0> d           1.644  -1.141  -2.032  0.00  0.00     0.127 A 
ATOM     14  C13 <0> d           2.355  -2.219  -1.539  0.00  0.00     0.061 A 
ATOM     15  C12 <0> d           3.713  -2.325  -1.784  0.00  0.00     0.049 A 
ATOM     16 Cl1  <0> d           1.542  -3.445  -0.616  0.00  0.00    -0.083 Cl
ATOM     17  C11 <0> d           4.365  -1.347  -2.514  0.00  0.00     0.037 A 
ATOM     18  C10 <0> d           3.660  -0.264  -3.006  0.00  0.00     0.054 A 
ATOM     19 Cl2  <0> d           6.070  -1.481  -2.814  0.00  0.00    -0.084 Cl
ATOM     20  C9  <0> d           2.296  -0.158  -2.765  0.00  0.00     0.052 A 
BRANCH  20  21
ATOM     21  N2  <0> d           1.582   0.935  -3.261  0.00  0.00    -0.398 N 
ATOM     22  H17 <0> d           0.679   1.106  -2.949  0.00  0.00     0.156 HD
ATOM     23  H18 <0> d           1.988   1.522  -3.917  0.00  0.00     0.156 HD
ENDBRANCH  20  21
ENDBRANCH   1  13
TORSDOF 5
