REMARK  7 active torsions:
REMARK  status: ('A' for Active; 'I' for Inactive)
REMARK    1  A    between atoms: N1_2  and  C3_4 
REMARK    2  A    between atoms: C3_4  and  C4_5 
REMARK    3  A    between atoms: C4_5  and  C5_6 
REMARK    4  A    between atoms: C5_6  and  C6_7 
REMARK    5  A    between atoms: C6_7  and  N2_8 
REMARK       I    between atoms: N2_8  and  C7_9 
REMARK    6  A    between atoms: C7_9  and  C8_11 
REMARK       I    between atoms: N3_13  and  C16_21 
REMARK    7  A    between atoms: C16_21  and  C17_23 
ROOT
ATOM      1  C8  <0> d          -7.807  -1.029  -3.594  0.00  0.00     0.106 C 
ATOM      2  C9  <0> d          -8.586  -0.486  -2.375  0.00  0.00     0.141 C 
ATOM      3  N3  <0> d          -9.288   0.716  -2.885  0.00  0.00    -0.345 N 
ATOM      4  C10 <0> d          -9.736   0.332  -4.245  0.00  0.00     0.136 C 
ATOM      5  C11 <0> d          -8.567  -0.493  -4.819  0.00  0.00    -0.007 C 
ATOM      6  C12 <0> d          -9.099  -1.650  -5.659  0.00  0.00     0.039 C 
ATOM      7  C13 <0> d          -9.800  -1.093  -6.901  0.00  0.00     0.233 C 
ATOM      8  N4  <0> d          -8.851  -0.292  -7.683  0.00  0.00    -0.075 N 
ATOM      9  C14 <0> d          -8.415   0.871  -6.901  0.00  0.00     0.233 C 
ATOM     10  C15 <0> d          -7.655   0.398  -5.658  0.00  0.00     0.039 C 
ATOM     11  C16 <0> d          -9.477   1.892  -2.254  0.00  0.00     0.272 C 
ATOM     12  O2  <0> d          -8.961   2.090  -1.172  0.00  0.00    -0.266 OA
ATOM     13  H25 <0> d          -8.049  -0.857  -7.918  0.00  0.00     0.277 HD
ATOM     14  H36 <0> d          -9.297   0.023  -8.531  0.00  0.00     0.277 HD
ENDROOT
BRANCH   1  15
ATOM     15  C7  <0> d          -6.392  -0.510  -3.586  0.00  0.00     0.224 C 
ATOM     16  N2  <0> d          -5.399  -1.253  -4.114  0.00  0.00    -0.361 N 
ATOM     17  H16 <0> d          -5.595  -2.121  -4.500  0.00  0.00     0.162 HD
ATOM     18  O1  <0> d          -6.147   0.576  -3.104  0.00  0.00    -0.273 OA
BRANCH  16  19
ATOM     19  C6  <0> d          -4.024  -0.749  -4.106  0.00  0.00     0.122 C 
BRANCH  19  20
ATOM     20  C5  <0> d          -3.100  -1.778  -4.761  0.00  0.00     0.021 C 
BRANCH  20  21
ATOM     21  C4  <0> d          -1.663  -1.251  -4.753  0.00  0.00     0.029 C 
BRANCH  21  22
ATOM     22  C3  <0> d          -0.739  -2.280  -5.407  0.00  0.00     0.234 C 
BRANCH  22  23
ATOM     23  N1  <0> d           0.640  -1.774  -5.399  0.00  0.00    -0.079 N 
ATOM     24  C1  <0> d           1.111  -1.656  -4.013  0.00  0.00     0.269 C 
ATOM     25  C2  <0> d           1.507  -2.706  -6.133  0.00  0.00     0.269 C 
ATOM     26  H37 <0> d           0.669  -0.869  -5.843  0.00  0.00     0.278 HD
ENDBRANCH  22  23
ENDBRANCH  21  22
ENDBRANCH  20  21
ENDBRANCH  19  20
ENDBRANCH  16  19
ENDBRANCH   1  15
BRANCH  11  27
ATOM     27  C17 <0> d         -10.315   2.943  -2.880  0.00  0.00     0.125 A 
ATOM     28  N5  <0> d         -10.952   2.675  -4.003  0.00  0.00    -0.243 NA
ATOM     29  C25 <0> d         -11.720   3.587  -4.598  0.00  0.00     0.068 A 
ATOM     30  C20 <0> d         -11.854   4.880  -4.030  0.00  0.00    -0.007 A 
ATOM     31  C24 <0> d         -12.402   3.292  -5.795  0.00  0.00     0.032 A 
ATOM     32  C19 <0> d         -11.173   5.178  -2.834  0.00  0.00     0.016 A 
ATOM     33  C21 <0> d         -12.660   5.837  -4.667  0.00  0.00     0.014 A 
ATOM     34  C18 <0> d         -10.406   4.202  -2.268  0.00  0.00     0.038 A 
ATOM     35  C22 <0> d         -13.304   5.514  -5.823  0.00  0.00     0.001 A 
ATOM     36  C23 <0> d         -13.174   4.244  -6.384  0.00  0.00     0.002 A 
ENDBRANCH  11  27
TORSDOF 7
