REMARK  4 active torsions:
REMARK  status: ('A' for Active; 'I' for Inactive)
REMARK    1  A    between atoms: C6_6  and  N1_7 
REMARK    2  A    between atoms: N2_13  and  C8_14 
REMARK    3  A    between atoms: C8_14  and  N3_15 
REMARK    4  A    between atoms: C11_19  and  C13_21 
REMARK       I    between atoms: C13_21  and  N4_23 
ROOT
ATOM      1  C1  <0> d          -0.017   1.379   0.010  0.00  0.00     0.038 A 
ATOM      2  C2  <0> d           1.168   2.090   0.002  0.00  0.00     0.035 A 
ATOM      3  C3  <0> d           2.378   1.414  -0.013  0.00  0.00     0.073 A 
ATOM      4  C4  <0> d           2.397   0.019  -0.021  0.00  0.00     0.108 A 
ATOM      5  C5  <0> d           1.204  -0.685  -0.013  0.00  0.00     0.075 A 
ATOM      6  C6  <0> d           0.002  -0.004   0.002  0.00  0.00     0.105 A 
ATOM      7  O3  <0> d           3.697  -0.365  -0.035  0.00  0.00    -0.282 OA
ATOM      8  C7  <0> d           4.480   0.727  -0.037  0.00  0.00     0.224 A 
ATOM      9  S1  <0> d           6.191   0.718  -0.054  0.00  0.00    -0.032 SA
ATOM     10  N2  <0> d           3.708   1.832  -0.024  0.00  0.00    -0.288 N 
ENDROOT
BRANCH  10  11
ATOM     11  C8  <0> d           4.180   3.219  -0.022  0.00  0.00     0.405 C 
BRANCH  11  12
ATOM     12  N3  <0> d           4.351   3.676   1.364  0.00  0.00     0.111 N 
ATOM     13  C12 <0> d           5.336   4.765   1.441  0.00  0.00     0.316 C 
ATOM     14  C11 <0> d           5.527   5.169   2.906  0.00  0.00     0.241 C 
ATOM     15  O4  <0> d           4.263   5.541   3.461  0.00  0.00    -0.373 OA
ATOM     16  C10 <0> d           3.280   4.504   3.403  0.00  0.00     0.199 C 
ATOM     17  C9  <0> d           3.066   4.093   1.944  0.00  0.00     0.300 C 
BRANCH  14  18
ATOM     18  C13 <0> d           6.476   6.337   2.986  0.00  0.00     0.246 C 
ATOM     19  O5  <0> d           6.082   7.412   3.387  0.00  0.00    -0.271 OA
ATOM     20  N4  <0> d           7.762   6.188   2.613  0.00  0.00    -0.368 N 
ATOM     21  H13 <0> d           8.077   5.328   2.292  0.00  0.00     0.159 HD
ATOM     22  H14 <0> d           8.373   6.939   2.665  0.00  0.00     0.159 HD
ENDBRANCH  14  18
ENDBRANCH  11  12
ENDBRANCH  10  11
BRANCH   6  23
ATOM     23  N1  <0> d          -1.272  -0.758   0.010  0.00  0.00    -0.116 N 
ATOM     24  O1  <0> d          -2.325  -0.165   0.023  0.00  0.00    -0.532 OA
ATOM     25  O2  <0> d          -1.258  -1.967   0.004  0.00  0.00    -0.532 OA
ENDBRANCH   6  23
TORSDOF 4
