REMARK  7 active torsions:
REMARK  status: ('A' for Active; 'I' for Inactive)
REMARK    1  A    between atoms: C2_2  and  N1_3 
REMARK    2  A    between atoms: C4_5  and  C11_13 
REMARK    3  A    between atoms: C11_13  and  N4_33 
REMARK    4  A    between atoms: C13_15  and  C14_16 
REMARK    5  A    between atoms: C13_15  and  N4_33 
REMARK       I    between atoms: C14_16  and  N2_18 
REMARK    6  A    between atoms: N2_18  and  C15_19 
REMARK    7  A    between atoms: C16_20  and  C22_27 
REMARK       I    between atoms: C22_27  and  N3_29 
ROOT
ATOM      1  C13 <0> d          -2.248   7.409   0.170  0.00  0.00     0.336 C 
ENDROOT
BRANCH   1   2
ATOM      2  C14 <0> d          -1.655   6.026   0.245  0.00  0.00     0.248 C 
ATOM      3  O2  <0> d          -0.451   5.883   0.286  0.00  0.00    -0.271 OA
ATOM      4  N2  <0> d          -2.462   4.947   0.267  0.00  0.00    -0.319 N 
ATOM      5  H20 <0> d          -3.425   5.061   0.233  0.00  0.00     0.169 HD
BRANCH   4   6
ATOM      6  C15 <0> d          -1.917   3.674   0.336  0.00  0.00     0.093 A 
ATOM      7  S1  <0> d          -0.248   3.221   0.404  0.00  0.00    -0.075 SA
ATOM      8  C18 <0> d          -0.428   1.456   0.474  0.00  0.00    -0.008 A 
ATOM      9  C17 <0> d          -1.757   1.246   0.442  0.00  0.00    -0.026 A 
ATOM     10  C19 <0> d           0.344   0.167   0.553  0.00  0.00     0.047 C 
ATOM     11  C16 <0> d          -2.575   2.456   0.362  0.00  0.00     0.072 A 
ATOM     12  C21 <0> d          -2.011  -0.261   0.495  0.00  0.00     0.041 C 
ATOM     13  C20 <0> d          -0.696  -0.883   1.004  0.00  0.00     0.010 C 
BRANCH  11  14
ATOM     14  C22 <0> d          -4.038   2.382   0.315  0.00  0.00     0.252 C 
ATOM     15  O3  <0> d          -4.682   2.396   1.348  0.00  0.00    -0.268 OA
ATOM     16  N3  <0> d          -4.670   2.299  -0.872  0.00  0.00    -0.366 N 
ATOM     17  H27 <0> d          -4.157   2.288  -1.696  0.00  0.00     0.159 HD
ATOM     18  H28 <0> d          -5.639   2.250  -0.904  0.00  0.00     0.159 HD
ENDBRANCH  11  14
ENDBRANCH   4   6
ENDBRANCH   1   2
BRANCH   1  19
ATOM     19  N4  <0> d          -1.149   8.398   0.140  0.00  0.00    -0.064 N 
ATOM     20  C12 <0> d          -0.441   8.405   1.437  0.00  0.00     0.270 C 
ATOM     21  H29 <0> d          -0.487   8.138  -0.601  0.00  0.00     0.280 HD
BRANCH  19  22
ATOM     22  C11 <0> d          -1.689   9.743  -0.149  0.00  0.00     0.268 C 
BRANCH  22  23
ATOM     23  C4  <0> d          -1.994   9.838  -1.645  0.00  0.00     0.168 C 
ATOM     24  C3  <0> d          -2.655  11.188  -1.955  0.00  0.00     0.130 C 
ATOM     25  N1  <0> d          -2.998  11.224  -3.382  0.00  0.00    -0.279 NA
ATOM     26  C6  <0> d          -1.917  10.865  -4.193  0.00  0.00     0.044 A 
ATOM     27  C5  <0> d          -0.837  10.144  -3.699  0.00  0.00     0.090 A 
ATOM     28  C7  <0> d          -1.935  11.245  -5.531  0.00  0.00     0.026 A 
ATOM     29  O1  <0> d          -0.777   9.761  -2.394  0.00  0.00    -0.341 OA
ATOM     30  C10 <0> d           0.211   9.805  -4.543  0.00  0.00     0.039 A 
ATOM     31  C9  <0> d           0.186  10.185  -5.871  0.00  0.00     0.003 A 
ATOM     32  C8  <0> d          -0.886  10.905  -6.364  0.00  0.00     0.002 A 
BRANCH  25  33
ATOM     33  C2  <0> d          -3.529  12.540  -3.762  0.00  0.00     0.091 C 
ATOM     34  C1  <0> d          -2.418  13.587  -3.658  0.00  0.00     0.021 C 
ENDBRANCH  25  33
ENDBRANCH  22  23
ENDBRANCH  19  22
ENDBRANCH   1  19
TORSDOF 7
