REMARK  7 active torsions:
REMARK  status: ('A' for Active; 'I' for Inactive)
REMARK    1  A    between atoms: C5_5  and  C8_8 
REMARK       I    between atoms: C8_8  and  N1_10 
REMARK    2  A    between atoms: N1_10  and  C9_11 
REMARK    3  A    between atoms: C9_11  and  C10_12 
REMARK       I    between atoms: C10_12  and  N2_14 
REMARK    4  A    between atoms: N2_14  and  C11_15 
REMARK    5  A    between atoms: C11_15  and  C12_16 
REMARK    6  A    between atoms: C12_16  and  C13_17 
REMARK    7  A    between atoms: C12_16  and  N3_24 
ROOT
ATOM      1  C10 <0> d           0.638  -6.760   3.098  0.00  0.00     0.235 C 
ATOM      2  O2  <0> d           0.553  -6.111   4.118  0.00  0.00    -0.272 OA
ATOM      3  N2  <0> d           0.506  -8.101   3.139  0.00  0.00    -0.357 N 
ATOM      4  H12 <0> d           0.574  -8.620   2.322  0.00  0.00     0.162 HD
ENDROOT
BRANCH   3   5
ATOM      5  C11 <0> d           0.261  -8.774   4.416  0.00  0.00     0.160 C 
BRANCH   5   6
ATOM      6  C12 <0> d           0.032 -10.267   4.171  0.00  0.00     0.239 C 
BRANCH   6   7
ATOM      7  C13 <0> d          -1.230 -10.456   3.369  0.00  0.00    -0.004 A 
ATOM      8  C18 <0> d          -2.462 -10.406   3.996  0.00  0.00     0.042 A 
ATOM      9  C17 <0> d          -3.620 -10.574   3.258  0.00  0.00     0.024 A 
ATOM     10 Cl1  <0> d          -2.555 -10.124   5.706  0.00  0.00    -0.084 Cl
ATOM     11  C16 <0> d          -3.545 -10.804   1.898  0.00  0.00     0.002 A 
ATOM     12  C15 <0> d          -2.313 -10.860   1.272  0.00  0.00     0.001 A 
ATOM     13  C14 <0> d          -1.156 -10.686   2.008  0.00  0.00     0.011 A 
ENDBRANCH   6   7
BRANCH   6  14
ATOM     14  N3  <0> d           1.172 -10.821   3.428  0.00  0.00    -0.069 N 
ATOM     15  C19 <0> d           2.418 -10.521   4.147  0.00  0.00     0.270 C 
ATOM     16  C20 <0> d           1.016 -12.277   3.307  0.00  0.00     0.270 C 
ATOM     17  H25 <0> d           1.207 -10.409   2.508  0.00  0.00     0.279 HD
ENDBRANCH   6  14
ENDBRANCH   5   6
ENDBRANCH   3   5
BRANCH   1  18
ATOM     18  C9  <0> d           0.890  -6.068   1.783  0.00  0.00     0.225 C 
BRANCH  18  19
ATOM     19  N1  <0> d           0.994  -4.623   2.004  0.00  0.00    -0.348 N 
ATOM     20  C8  <0> d           1.220  -3.797   0.964  0.00  0.00     0.252 C 
ATOM     21  O1  <0> d           1.337  -4.250  -0.158  0.00  0.00    -0.268 OA
ATOM     22  H9  <0> d           0.900  -4.262   2.899  0.00  0.00     0.163 HD
BRANCH  20  23
ATOM     23  C5  <0> d           1.324  -2.339   1.187  0.00  0.00     0.032 A 
ATOM     24  C4  <0> d           1.558  -1.480   0.111  0.00  0.00     0.017 A 
ATOM     25  C3  <0> d           1.654  -0.121   0.326  0.00  0.00     0.007 A 
ATOM     26  C2  <0> d           1.520   0.392   1.604  0.00  0.00    -0.062 A 
ATOM     27  C1  <0> d           1.626   1.877   1.832  0.00  0.00     0.048 C 
ATOM     28  C7  <0> d           1.294  -0.455   2.675  0.00  0.00     0.007 A 
ATOM     29  C6  <0> d           1.190  -1.815   2.473  0.00  0.00     0.017 A 
ENDBRANCH  20  23
ENDBRANCH  18  19
ENDBRANCH   1  18
TORSDOF 7
