REMARK  5 active torsions:
REMARK  status: ('A' for Active; 'I' for Inactive)
REMARK    1  A    between atoms: C3_3  and  C6_8 
REMARK    2  A    between atoms: C6_8  and  O2_9 
REMARK    3  A    between atoms: O2_9  and  N2_10 
REMARK    4  A    between atoms: C7_11  and  C8_12 
REMARK    5  A    between atoms: C7_11  and  N3_18 
ROOT
ATOM      1  N2  <0> d           1.437   0.269  -4.369  0.00  0.00    -0.114 NA
ATOM      2  C7  <0> d           2.609   0.462  -4.907  0.00  0.00     0.165 C 
ENDROOT
BRANCH   1   3
ATOM      3  O2  <0> d           1.338  -0.179  -3.029  0.00  0.00    -0.250 OA
BRANCH   3   4
ATOM      4  C6  <0> d          -0.005  -0.348  -2.571  0.00  0.00     0.247 C 
BRANCH   4   5
ATOM      5  C3  <0> d           0.008  -0.824  -1.141  0.00  0.00     0.026 A 
ATOM      6  C2  <0> d           0.002  -0.004   0.002  0.00  0.00     0.069 A 
ATOM      7  C1  <0> d          -0.018   1.503   0.010  0.00  0.00     0.073 C 
ATOM      8  N1  <0> d           0.023  -0.775   1.052  0.00  0.00    -0.133 NA
ATOM      9  O1  <0> d           0.034  -2.119   0.606  0.00  0.00    -0.217 OA
ATOM     10  C4  <0> d           0.027  -2.108  -0.735  0.00  0.00     0.085 A 
ATOM     11  C5  <0> d           0.039  -3.320  -1.631  0.00  0.00     0.079 C 
ENDBRANCH   4   5
ENDBRANCH   3   4
ENDBRANCH   1   3
BRANCH   2  12
ATOM     12  C8  <0> d           2.712   0.927  -6.299  0.00  0.00     0.053 A 
ATOM     13  S1  <0> d           1.408   1.297  -7.461  0.00  0.00    -0.097 SA
ATOM     14  C11 <0> d           2.431   1.773  -8.845  0.00  0.00     0.069 A 
ATOM     15  C10 <0> d           3.684   1.614  -8.342  0.00  0.00     0.018 A 
ATOM     16  C9  <0> d           3.836   1.183  -7.045  0.00  0.00     0.042 A 
ATOM     17 Br1  <0> d           5.199   1.981  -9.412  0.00  0.00    -0.051 Br
ENDBRANCH   2  12
BRANCH   2  18
ATOM     18  N3  <0> d           3.758   0.230  -4.167  0.00  0.00    -0.381 N 
ATOM     19  H11 <0> d           3.690  -0.077  -3.249  0.00  0.00     0.157 HD
ATOM     20  H12 <0> d           4.630   0.374  -4.566  0.00  0.00     0.157 HD
ENDBRANCH   2  18
TORSDOF 5
