REMARK  8 active torsions:
REMARK  status: ('A' for Active; 'I' for Inactive)
REMARK    1  A    between atoms: C4_4  and  O2_34 
REMARK    2  A    between atoms: C5_5  and  C7_7 
REMARK    3  A    between atoms: C7_7  and  C8_8 
REMARK    4  A    between atoms: C8_8  and  C9_9 
REMARK       I    between atoms: C9_9  and  N1_11 
REMARK    5  A    between atoms: N1_11  and  C10_12 
REMARK    6  A    between atoms: N2_15  and  C14_17 
REMARK    7  A    between atoms: C14_17  and  C15_18 
REMARK    8  A    between atoms: C22_27  and  C23_28 
ROOT
ATOM      1  C10 <0> d           1.535  -6.354   2.551  0.00  0.00     0.112 C 
ATOM      2  C11 <0> d           2.978  -6.870   2.352  0.00  0.00     0.054 C 
ATOM      3  C12 <0> d           3.444  -7.165   3.800  0.00  0.00     0.237 C 
ATOM      4  N2  <0> d           2.222  -7.707   4.447  0.00  0.00    -0.065 N 
ATOM      5  C13 <0> d           1.095  -6.902   3.922  0.00  0.00     0.260 C 
ATOM      6  H29 <0> d           2.100  -8.678   4.201  0.00  0.00     0.280 HD
ENDROOT
BRANCH   4   7
ATOM      7  C14 <0> d           2.313  -7.560   5.906  0.00  0.00     0.276 C 
BRANCH   7   8
ATOM      8  C15 <0> d           3.419  -8.439   6.431  0.00  0.00     0.008 A 
ATOM      9  C22 <0> d           4.721  -8.092   6.586  0.00  0.00     0.053 A 
ATOM     10  N3  <0> d           5.424  -9.159   7.095  0.00  0.00    -0.354 N 
ATOM     11  C21 <0> d           4.580 -10.233   7.271  0.00  0.00     0.043 A 
ATOM     12  H2  <0> d           6.373  -9.158   7.294  0.00  0.00     0.166 HD
ATOM     13  C16 <0> d           3.294  -9.829   6.865  0.00  0.00     0.001 A 
ATOM     14  C20 <0> d           4.770 -11.529   7.741  0.00  0.00     0.030 A 
ATOM     15  C17 <0> d           2.226 -10.728   6.937  0.00  0.00     0.014 A 
ATOM     16  C18 <0> d           2.436 -11.995   7.402  0.00  0.00     0.001 A 
ATOM     17  C19 <0> d           3.703 -12.398   7.803  0.00  0.00     0.002 A 
BRANCH   9  18
ATOM     18  C23 <0> d           5.296  -6.769   6.261  0.00  0.00     0.009 A 
ATOM     19  C27 <0> d           4.641  -5.598   6.645  0.00  0.00     0.130 A 
ATOM     20  N4  <0> d           5.156  -4.419   6.360  0.00  0.00    -0.272 NA
ATOM     21  C26 <0> d           6.291  -4.296   5.699  0.00  0.00     0.116 A 
ATOM     22  C25 <0> d           6.997  -5.408   5.279  0.00  0.00     0.020 A 
ATOM     23  C24 <0> d           6.502  -6.670   5.558  0.00  0.00     0.016 A 
ENDBRANCH   9  18
ENDBRANCH   7   8
ENDBRANCH   4   7
BRANCH   1  24
ATOM     24  N1  <0> d           1.516  -4.889   2.560  0.00  0.00    -0.355 N 
ATOM     25  C9  <0> d           1.393  -4.210   1.402  0.00  0.00     0.218 C 
ATOM     26  O1  <0> d           1.299  -4.811   0.353  0.00  0.00    -0.274 OA
ATOM     27  H11 <0> d           1.591  -4.408   3.399  0.00  0.00     0.162 HD
BRANCH  25  28
ATOM     28  C8  <0> d           1.374  -2.703   1.411  0.00  0.00     0.107 C 
BRANCH  28  29
ATOM     29  C7  <0> d           1.227  -2.187  -0.022  0.00  0.00     0.051 C 
BRANCH  29  30
ATOM     30  C5  <0> d           1.207  -0.680  -0.013  0.00  0.00    -0.025 A 
ATOM     31  C4  <0> d           2.399   0.030  -0.021  0.00  0.00     0.071 A 
ATOM     32  C3  <0> d           2.377   1.417  -0.013  0.00  0.00     0.037 A 
ATOM     33  C2  <0> d           1.170   2.088   0.002  0.00  0.00     0.003 A 
ATOM     34  C1  <0> d          -0.017   1.378   0.010  0.00  0.00     0.001 A 
ATOM     35  C6  <0> d           0.002  -0.004   0.002  0.00  0.00     0.010 A 
BRANCH  31  36
ATOM     36  O2  <0> d           3.586  -0.632  -0.037  0.00  0.00    -0.360 OA
ATOM     37  H28 <0> d           3.938  -0.829   0.842  0.00  0.00     0.217 HD
ENDBRANCH  31  36
ENDBRANCH  29  30
ENDBRANCH  28  29
ENDBRANCH  25  28
ENDBRANCH   1  24
TORSDOF 8
