REMARK  5 active torsions:
REMARK  status: ('A' for Active; 'I' for Inactive)
REMARK    1  A    between atoms: C3_5  and  C5_8 
REMARK    2  A    between atoms: C5_8  and  N4_9 
REMARK    3  A    between atoms: C10_14  and  C11_15 
REMARK    4  A    between atoms: C11_15  and  C12_16 
REMARK    5  A    between atoms: C12_16  and  C13_17 
ROOT
ATOM      1  N4  <0> d           1.587  -3.788   1.624  0.00  0.00    -0.060 N 
ATOM      2  C6  <0> d           2.256  -2.700   2.347  0.00  0.00     0.236 C 
ATOM      3  C7  <0> d           3.676  -3.129   2.722  0.00  0.00     0.028 C 
ATOM      4  C8  <0> d           3.609  -4.372   3.615  0.00  0.00     0.004 C 
ATOM      5  C9  <0> d           2.844  -5.476   2.880  0.00  0.00     0.033 C 
ATOM      6  C10 <0> d           1.455  -4.960   2.499  0.00  0.00     0.189 C 
ATOM      7  H22 <0> d           2.133  -4.036   0.813  0.00  0.00     0.280 HD
ENDROOT
BRANCH   1   8
ATOM      8  C5  <0> d           0.253  -3.344   1.199  0.00  0.00     0.315 C 
BRANCH   8   9
ATOM      9  C3  <0> d           0.391  -2.208   0.218  0.00  0.00     0.155 A 
ATOM     10  N2  <0> d           0.486  -2.314  -1.080  0.00  0.00    -0.133 NA
ATOM     11  N1  <0> d           0.590  -1.144  -1.603  0.00  0.00    -0.135 NA
ATOM     12  C2  <0> d           0.567  -0.239  -0.663  0.00  0.00     0.125 A 
ATOM     13  C1  <0> d           0.665   1.252  -0.857  0.00  0.00     0.093 C 
ATOM     14  N3  <0> d           0.446  -0.889   0.520  0.00  0.00    -0.324 N 
ATOM     15  C4  <0> d           0.382  -0.286   1.854  0.00  0.00     0.159 C 
ENDBRANCH   8   9
ENDBRANCH   1   8
BRANCH   6  16
ATOM     16  C11 <0> d           0.687  -6.060   1.764  0.00  0.00     0.043 C 
BRANCH  16  17
ATOM     17  C12 <0> d           0.492  -7.257   2.697  0.00  0.00     0.115 C 
BRANCH  17  18
ATOM     18  C13 <0> d          -0.167  -8.382   1.941  0.00  0.00     0.172 C 
ATOM     19  O1  <0> d          -0.454  -8.239   0.765  0.00  0.00    -0.648 OA
ATOM     20  O2  <0> d          -0.412  -9.434   2.506  0.00  0.00    -0.648 OA
ENDBRANCH  17  18
ENDBRANCH  16  17
ENDBRANCH   6  16
TORSDOF 5
