REMARK  4 active torsions:
REMARK  status: ('A' for Active; 'I' for Inactive)
REMARK    1  A    between atoms: C6_6  and  N1_9 
REMARK       I    between atoms: N1_9  and  C9_10 
REMARK    2  A    between atoms: C9_10  and  C10_12 
REMARK    3  A    between atoms: N3_15  and  C18_22 
REMARK    4  A    between atoms: C12_16  and  C13_17 
ROOT
ATOM      1  C10 <0> d          -2.855   3.404   0.539  0.00  0.00     0.076 A 
ATOM      2  C11 <0> d          -3.316   2.441  -0.388  0.00  0.00     0.158 A 
ATOM      3  N2  <0> d          -2.306   1.686  -0.723  0.00  0.00    -0.178 NA
ATOM      4  N3  <0> d          -1.169   2.116  -0.030  0.00  0.00    -0.237 N 
ATOM      5  C12 <0> d          -1.509   3.168   0.737  0.00  0.00     0.058 A 
ENDROOT
BRANCH   1   6
ATOM      6  C9  <0> d          -3.661   4.462   1.175  0.00  0.00     0.259 C 
ATOM      7  N1  <0> d          -4.986   4.533   0.940  0.00  0.00    -0.322 N 
ATOM      8  H10 <0> d          -5.395   3.943   0.287  0.00  0.00     0.169 HD
ATOM      9  O1  <0> d          -3.130   5.270   1.912  0.00  0.00    -0.267 OA
BRANCH   7  10
ATOM     10  C6  <0> d          -5.771   5.457   1.637  0.00  0.00     0.041 A 
ATOM     11  C5  <0> d          -5.357   5.927   2.876  0.00  0.00     0.030 A 
ATOM     12  C4  <0> d          -6.135   6.840   3.562  0.00  0.00     0.003 A 
ATOM     13  C3  <0> d          -7.325   7.285   3.016  0.00  0.00     0.007 A 
ATOM     14  C2  <0> d          -7.740   6.818   1.782  0.00  0.00    -0.054 A 
ATOM     15  C1  <0> d          -9.038   7.306   1.190  0.00  0.00     0.049 C 
ATOM     16  C7  <0> d          -6.965   5.910   1.089  0.00  0.00    -0.029 A 
ATOM     17  C8  <0> d          -7.415   5.406  -0.258  0.00  0.00     0.051 C 
ENDBRANCH   7  10
ENDBRANCH   1   6
BRANCH   5  18
ATOM     18  C13 <0> d          -0.591   3.946   1.643  0.00  0.00     0.042 C 
ATOM     19  C17 <0> d          -0.533   5.405   1.183  0.00  0.00     0.038 C 
ATOM     20  C16 <0> d           0.353   6.203   2.143  0.00  0.00     0.233 C 
ATOM     21  N4  <0> d          -0.202   6.130   3.509  0.00  0.00    -0.075 N 
ATOM     22  C15 <0> d          -0.219   4.734   3.983  0.00  0.00     0.233 C 
ATOM     23  H30 <0> d           0.378   6.695   4.140  0.00  0.00     0.277 HD
ATOM     24  H31 <0> d          -1.161   6.498   3.504  0.00  0.00     0.277 HD
ATOM     25  C14 <0> d          -1.122   3.892   3.078  0.00  0.00     0.038 C 
ENDBRANCH   5  18
BRANCH   4  26
ATOM     26  C18 <0> d           0.110   1.550  -0.123  0.00  0.00     0.059 A 
ATOM     27  C23 <0> d           0.259   0.171  -0.163  0.00  0.00     0.039 A 
ATOM     28  C22 <0> d           1.520  -0.384  -0.261  0.00  0.00    -0.054 A 
ATOM     29  C21 <0> d           2.634   0.433  -0.319  0.00  0.00    -0.056 A 
ATOM     30  C24 <0> d           1.683  -1.882  -0.304  0.00  0.00     0.049 C 
ATOM     31  C20 <0> d           2.489   1.808  -0.279  0.00  0.00     0.009 A 
ATOM     32  C25 <0> d           4.009  -0.175  -0.425  0.00  0.00     0.049 C 
ATOM     33  C19 <0> d           1.231   2.369  -0.182  0.00  0.00     0.032 A 
ENDBRANCH   4  26
TORSDOF 4
