REMARK  6 active torsions:
REMARK  status: ('A' for Active; 'I' for Inactive)
REMARK    1  A    between atoms: N1_8  and  N2_9 
REMARK    2  A    between atoms: N2_9  and  C8_10 
REMARK    3  A    between atoms: N3_11  and  C13_20 
REMARK    4  A    between atoms: C10_14  and  C11_16 
REMARK    5  A    between atoms: C11_16  and  C12_17 
REMARK    6  A    between atoms: C16_23  and  O4_26 
ROOT
ATOM      1  C8  <0> d           0.369  -5.599  -0.719  0.00  0.00     0.198 A 
ATOM      2  N3  <0> d           0.772  -6.714  -0.040  0.00  0.00    -0.258 N 
ATOM      3  C9  <0> d          -0.076  -7.485   0.627  0.00  0.00     0.245 A 
ATOM      4  O1  <0> d           0.262  -8.478   1.236  0.00  0.00    -0.271 OA
ATOM      5  C10 <0> d          -1.515  -6.998   0.551  0.00  0.00     0.158 A 
ATOM      6  S1  <0> d          -1.294  -5.498  -0.488  0.00  0.00    -0.075 SA
ENDROOT
BRANCH   1   7
ATOM      7  N2  <0> d           1.134  -4.764  -1.415  0.00  0.00    -0.123 NA
BRANCH   7   8
ATOM      8  N1  <0> d           0.607  -3.743  -2.002  0.00  0.00    -0.141 NA
ATOM      9  C7  <0> d           1.369  -2.912  -2.694  0.00  0.00     0.159 A 
ATOM     10  C5  <0> d           0.942  -1.700  -3.427  0.00  0.00     0.027 A 
ATOM     11  C19 <0> d           2.820  -2.993  -2.901  0.00  0.00     0.277 A 
ATOM     12  C4  <0> d           2.100  -1.157  -4.000  0.00  0.00     0.048 A 
ATOM     13  C6  <0> d          -0.292  -1.085  -3.617  0.00  0.00     0.016 A 
ATOM     14  C3  <0> d           1.998   0.005  -4.758  0.00  0.00     0.030 A 
ATOM     15  N4  <0> d           3.190  -1.951  -3.665  0.00  0.00    -0.321 N 
ATOM     16  C2  <0> d           0.770   0.607  -4.940  0.00  0.00     0.002 A 
ATOM     17  C1  <0> d          -0.372   0.067  -4.373  0.00  0.00     0.001 A 
ATOM     18  H13 <0> d           4.102  -1.775  -3.946  0.00  0.00     0.169 HD
ATOM     19  O5  <0> d           3.559  -3.854  -2.460  0.00  0.00    -0.266 OA
ENDBRANCH   7   8
ENDBRANCH   1   7
BRANCH   2  20
ATOM     20  C13 <0> d           2.132  -7.056  -0.048  0.00  0.00     0.044 A 
ATOM     21  C18 <0> d           2.979  -6.559   0.934  0.00  0.00     0.033 A 
ATOM     22  C17 <0> d           4.317  -6.899   0.928  0.00  0.00     0.039 A 
ATOM     23  C16 <0> d           4.818  -7.729  -0.065  0.00  0.00     0.065 A 
ATOM     24  C15 <0> d           3.973  -8.222  -1.049  0.00  0.00     0.039 A 
ATOM     25  C14 <0> d           2.634  -7.886  -1.041  0.00  0.00     0.033 A 
BRANCH  23  26
ATOM     26  O4  <0> d           6.136  -8.060  -0.073  0.00  0.00    -0.361 OA
ATOM     27  H12 <0> d           6.692  -7.450  -0.578  0.00  0.00     0.217 HD
ENDBRANCH  23  26
ENDBRANCH   2  20
BRANCH   5  28
ATOM     28  C11 <0> d          -2.415  -8.028  -0.135  0.00  0.00     0.138 C 
BRANCH  28  29
ATOM     29  C12 <0> d          -3.847  -7.561  -0.079  0.00  0.00     0.174 C 
ATOM     30  O2  <0> d          -4.122  -6.503   0.460  0.00  0.00    -0.648 OA
ATOM     31  O3  <0> d          -4.729  -8.242  -0.572  0.00  0.00    -0.648 OA
ENDBRANCH  28  29
ENDBRANCH   5  28
TORSDOF 6
