REMARK  4 active torsions:
REMARK  status: ('A' for Active; 'I' for Inactive)
REMARK    1  A    between atoms: C2_2  and  N1_4 
REMARK    2  A    between atoms: C5_6  and  N4_21 
REMARK    3  A    between atoms: C7_8  and  C8_9 
REMARK       I    between atoms: C8_9  and  N2_11 
REMARK    4  A    between atoms: N2_11  and  C9_12 
ROOT
ATOM      1  C8  <0> d          -1.223  -1.973  -2.056  0.00  0.00     0.268 C 
ATOM      2  O1  <0> d          -1.848  -2.619  -2.877  0.00  0.00    -0.266 OA
ATOM      3  N2  <0> d           0.105  -1.798  -2.206  0.00  0.00    -0.349 N 
ATOM      4  H12 <0> d           0.616  -1.347  -1.516  0.00  0.00     0.163 HD
ENDROOT
BRANCH   1   5
ATOM      5  C7  <0> d          -1.914  -1.385  -0.905  0.00  0.00     0.105 A 
ATOM      6  N1  <0> d          -3.238  -1.564  -0.575  0.00  0.00    -0.346 N 
ATOM      7  C4  <0> d          -3.502  -0.863   0.561  0.00  0.00     0.120 A 
ATOM      8  C5  <0> d          -2.367  -0.233   0.959  0.00  0.00     0.043 A 
ATOM      9  C6  <0> d          -1.356  -0.550   0.041  0.00  0.00     0.065 A 
BRANCH   6  10
ATOM     10  C2  <0> d          -4.201  -2.379  -1.319  0.00  0.00     0.081 C 
ATOM     11  C1  <0> d          -4.647  -3.559  -0.453  0.00  0.00     0.032 C 
ATOM     12  C3  <0> d          -5.418  -1.526  -1.683  0.00  0.00     0.032 C 
ENDBRANCH   6  10
BRANCH   8  13
ATOM     13  N4  <0> d          -2.229   0.592   2.091  0.00  0.00    -0.398 N 
ATOM     14  H25 <0> d          -2.991   0.753   2.669  0.00  0.00     0.156 HD
ATOM     15  H26 <0> d          -1.373   1.000   2.293  0.00  0.00     0.156 HD
ENDBRANCH   8  13
ENDBRANCH   1   5
BRANCH   3  16
ATOM     16  C9  <0> d           0.777  -2.289  -3.412  0.00  0.00     0.117 C 
ATOM     17  C12 <0> d           2.082  -1.522  -3.649  0.00  0.00     0.210 C 
ATOM     18  N3  <0> d           3.099  -2.327  -2.915  0.00  0.00    -0.065 N 
ATOM     19  C13 <0> d           2.095  -0.117  -3.067  0.00  0.00     0.035 C 
ATOM     20  C11 <0> d           2.780  -3.713  -3.294  0.00  0.00     0.237 C 
ATOM     21  C16 <0> d           4.419  -1.860  -3.319  0.00  0.00     0.235 C 
ATOM     22  H27 <0> d           2.984  -2.209  -1.919  0.00  0.00     0.280 HD
ATOM     23  C10 <0> d           1.230  -3.760  -3.220  0.00  0.00     0.055 C 
ATOM     24  C15 <0> d           4.584  -0.415  -2.807  0.00  0.00     0.028 C 
ATOM     25  C14 <0> d           3.479   0.488  -3.354  0.00  0.00     0.004 C 
ENDBRANCH   3  16
TORSDOF 4
