REMARK  4 active torsions:
REMARK  status: ('A' for Active; 'I' for Inactive)
REMARK    1  A    between atoms: C8_8  and  C10_13 
REMARK    2  A    between atoms: N2_14  and  N3_15 
REMARK       I    between atoms: N3_15  and  C11_16 
REMARK    3  A    between atoms: C11_16  and  C12_18 
REMARK       I    between atoms: C12_18  and  N4_20 
REMARK    4  A    between atoms: N4_20  and  C13_21 
ROOT
ATOM      1  N3  <0> d          -2.352   0.992   0.042  0.00  0.00    -0.239 N 
ATOM      2  C11 <0> d          -3.528   1.651   0.045  0.00  0.00     0.329 C 
ATOM      3  O2  <0> d          -3.544   2.865   0.056  0.00  0.00    -0.261 OA
ATOM      4  H8  <0> d          -2.339   0.022   0.033  0.00  0.00     0.192 HD
ENDROOT
BRANCH   1   5
ATOM      5  N2  <0> d          -1.148   1.709   0.051  0.00  0.00    -0.183 NA
ATOM      6  C10 <0> d          -0.013   1.073   0.047  0.00  0.00     0.155 C 
BRANCH   6   7
ATOM      7  C8  <0> d           1.251   1.825   0.051  0.00  0.00     0.052 A 
ATOM      8  C7  <0> d           2.461   1.158   0.041  0.00  0.00     0.032 A 
ATOM      9  C5  <0> d           3.662   1.910   0.044  0.00  0.00    -0.008 A 
ATOM     10  C4  <0> d           3.613   3.317   0.056  0.00  0.00     0.045 A 
ATOM     11  C6  <0> d           4.904   1.258   0.035  0.00  0.00     0.014 A 
ATOM     12  C3  <0> d           4.802   4.041   0.058  0.00  0.00     0.030 A 
ATOM     13  N1  <0> d           2.401   3.977   0.065  0.00  0.00    -0.322 N 
ATOM     14  C2  <0> d           6.010   3.378   0.049  0.00  0.00     0.002 A 
ATOM     15  C1  <0> d           6.056   1.990   0.037  0.00  0.00     0.001 A 
ATOM     16  C9  <0> d           1.241   3.294   0.057  0.00  0.00     0.257 A 
ATOM     17  H1  <0> d           2.385   4.977   0.078  0.00  0.00     0.169 HD
ATOM     18  O1  <0> d           0.182   3.895   0.060  0.00  0.00    -0.267 OA
ENDBRANCH   6   7
ENDBRANCH   1   5
BRANCH   2  19
ATOM     19  C12 <0> d          -4.809   0.889   0.035  0.00  0.00     0.315 C 
ATOM     20  O3  <0> d          -4.793  -0.325   0.025  0.00  0.00    -0.262 OA
ATOM     21  N4  <0> d          -5.984   1.547   0.039  0.00  0.00    -0.317 N 
ATOM     22  H9  <0> d          -5.999   2.514   0.113  0.00  0.00     0.169 HD
BRANCH  21  23
ATOM     23  C13 <0> d          -7.184   0.836  -0.065  0.00  0.00     0.058 A 
ATOM     24  C18 <0> d          -8.262   1.385  -0.749  0.00  0.00     0.082 A 
ATOM     25  C17 <0> d          -9.445   0.677  -0.854  0.00  0.00     0.058 A 
ATOM     26 Cl1  <0> d          -8.121   2.955  -1.476  0.00  0.00    -0.080 Cl
ATOM     27  C16 <0> d          -9.558  -0.573  -0.269  0.00  0.00     0.026 A 
ATOM     28 Cl2  <0> d         -10.791   1.357  -1.713  0.00  0.00    -0.082 Cl
ATOM     29  C15 <0> d          -8.488  -1.118   0.417  0.00  0.00     0.004 A 
ATOM     30  C14 <0> d          -7.302  -0.418   0.520  0.00  0.00     0.031 A 
ENDBRANCH  21  23
ENDBRANCH   2  19
TORSDOF 4
