REMARK  8 active torsions:
REMARK  status: ('A' for Active; 'I' for Inactive)
REMARK    1  A    between atoms: C3_3  and  C13_17 
REMARK    2  A    between atoms: C4_4  and  C12_14 
REMARK    3  A    between atoms: N1_6  and  C6_7 
REMARK    4  A    between atoms: C6_7  and  C7_8 
REMARK    5  A    between atoms: C7_8  and  C8_9 
REMARK    6  A    between atoms: C8_9  and  N2_10 
REMARK       I    between atoms: C12_14  and  N3_16 
REMARK    7  A    between atoms: C16_20  and  O2_23 
REMARK    8  A    between atoms: O2_23  and  C19_24 
ROOT
ATOM      1  C1  <0> d          -1.497   6.457  -1.441  0.00  0.00     0.069 C 
ATOM      2  C2  <0> d          -1.371   5.193  -0.631  0.00  0.00     0.020 A 
ATOM      3  C3  <0> d          -1.262   3.937  -1.134  0.00  0.00     0.014 A 
ATOM      4  C4  <0> d          -1.167   3.038   0.030  0.00  0.00     0.067 A 
ATOM      5  C5  <0> d          -1.220   3.842   1.133  0.00  0.00     0.024 A 
ATOM      6  N1  <0> d          -1.341   5.121   0.730  0.00  0.00    -0.353 N 
ATOM      7  C11 <0> d          -1.152   3.375   2.564  0.00  0.00     0.069 C 
ENDROOT
BRANCH   3   8
ATOM      8  C13 <0> d          -1.244   3.548  -2.565  0.00  0.00    -0.023 A 
ATOM      9  C18 <0> d          -2.280   2.779  -3.093  0.00  0.00     0.015 A 
ATOM     10  C17 <0> d          -2.261   2.419  -4.424  0.00  0.00     0.038 A 
ATOM     11  C16 <0> d          -1.212   2.823  -5.239  0.00  0.00     0.079 A 
ATOM     12  C15 <0> d          -0.180   3.590  -4.717  0.00  0.00     0.038 A 
ATOM     13  C14 <0> d          -0.195   3.957  -3.387  0.00  0.00     0.015 A 
BRANCH  11  14
ATOM     14  O2  <0> d          -1.197   2.467  -6.551  0.00  0.00    -0.279 OA
BRANCH  14  15
ATOM     15  C19 <0> d          -2.121   3.030  -7.346  0.00  0.00     0.260 C 
ATOM     16  O3  <0> d          -2.849   3.891  -6.911  0.00  0.00    -0.265 OA
ATOM     17  C20 <0> d          -2.249   2.588  -8.781  0.00  0.00     0.126 C 
ENDBRANCH  14  15
ENDBRANCH  11  14
ENDBRANCH   3   8
BRANCH   4  18
ATOM     18  C12 <0> d          -1.037   1.573   0.008  0.00  0.00     0.252 C 
ATOM     19  O1  <0> d          -2.033   0.873   0.017  0.00  0.00    -0.268 OA
ATOM     20  N3  <0> d           0.185   1.005  -0.022  0.00  0.00    -0.366 N 
ATOM     21  H19 <0> d           0.282  -0.091  -0.039  0.00  0.00     0.159 HD
ATOM     22  H20 <0> d           1.085   1.637  -0.030  0.00  0.00     0.159 HD
ENDBRANCH   4  18
BRANCH   6  23
ATOM     23  C6  <0> d          -1.428   6.275   1.629  0.00  0.00     0.130 C 
BRANCH  23  24
ATOM     24  C7  <0> d          -0.022   6.805   1.915  0.00  0.00     0.048 C 
BRANCH  24  25
ATOM     25  C8  <0> d          -0.113   8.010   2.854  0.00  0.00     0.235 C 
BRANCH  25  26
ATOM     26  N2  <0> d           1.238   8.519   3.130  0.00  0.00    -0.079 N 
ATOM     27  C9  <0> d           1.851   9.069   1.913  0.00  0.00     0.269 C 
ATOM     28  C10 <0> d           1.214   9.519   4.205  0.00  0.00     0.269 C 
ATOM     29  H28 <0> d           1.855   7.674   3.467  0.00  0.00     0.278 HD
ENDBRANCH  25  26
ENDBRANCH  24  25
ENDBRANCH  23  24
ENDBRANCH   6  23
TORSDOF 8
