REMARK  3 active torsions:
REMARK  status: ('A' for Active; 'I' for Inactive)
REMARK    1  A    between atoms: N1_2  and  C3_4 
REMARK    2  A    between atoms: C8_9  and  N2_10 
REMARK       I    between atoms: N2_10  and  C9_11 
REMARK    3  A    between atoms: C9_11  and  C10_13 
ROOT
ATOM      1  C3  <0> d          -0.000  -0.689  -1.228  0.00  0.00     0.056 A 
ATOM      2  C4  <0> d           1.196  -1.016  -1.849  0.00  0.00     0.033 A 
ATOM      3  C5  <0> d           1.187  -1.694  -3.053  0.00  0.00     0.021 A 
ATOM      4  C6  <0> d          -0.013  -2.050  -3.642  0.00  0.00     0.013 A 
ATOM      5  C7  <0> d          -1.210  -1.728  -3.030  0.00  0.00     0.051 A 
ATOM      6  C8  <0> d          -1.210  -1.053  -1.818  0.00  0.00     0.063 A 
ATOM      7 Br1  <0> d          -0.016  -2.977  -5.290  0.00  0.00    -0.051 Br
ENDROOT
BRANCH   6   8
ATOM      8  N2  <0> d          -2.422  -0.732  -1.193  0.00  0.00    -0.321 N 
ATOM      9  C9  <0> d          -3.526  -1.461  -1.449  0.00  0.00     0.259 C 
ATOM     10  O1  <0> d          -3.451  -2.456  -2.143  0.00  0.00    -0.267 OA
ATOM     11  H11 <0> d          -2.466   0.015  -0.575  0.00  0.00     0.169 HD
BRANCH   9  12
ATOM     12  C10 <0> d          -4.827  -1.051  -0.888  0.00  0.00     0.068 A 
ATOM     13  C12 <0> d          -5.069   0.075  -0.068  0.00  0.00     0.157 A 
ATOM     14  N4  <0> d          -6.341   0.098   0.219  0.00  0.00    -0.187 NA
ATOM     15  N3  <0> d          -6.963  -1.000  -0.385  0.00  0.00    -0.289 N 
ATOM     16  C11 <0> d          -6.034  -1.698  -1.059  0.00  0.00     0.127 A 
ATOM     17  H1  <0> d          -7.905  -1.221  -0.327  0.00  0.00     0.188 HD
ENDBRANCH   9  12
ENDBRANCH   6   8
BRANCH   1  18
ATOM     18  N1  <0> d           0.007  -0.002  -0.009  0.00  0.00    -0.388 N 
ATOM     19  C1  <0> d          -0.018   1.463   0.007  0.00  0.00     0.149 C 
ATOM     20  C2  <0> d           0.038  -0.747   1.252  0.00  0.00     0.149 C 
ENDBRANCH   1  18
TORSDOF 3
