REMARK  8 active torsions:
REMARK  status: ('A' for Active; 'I' for Inactive)
REMARK    1  A    between atoms: C2_2  and  O2_4 
REMARK    2  A    between atoms: O2_4  and  C3_5 
REMARK    3  A    between atoms: C8_10  and  C9_11 
REMARK       I    between atoms: C9_11  and  N1_13 
REMARK    4  A    between atoms: C11_15  and  C18_23 
REMARK       I    between atoms: C18_23  and  N3_25 
REMARK    5  A    between atoms: N3_25  and  C19_26 
REMARK    6  A    between atoms: C19_26  and  C20_27 
REMARK    7  A    between atoms: C20_27  and  C21_28 
REMARK    8  A    between atoms: C21_28  and  N4_29 
ROOT
ATOM      1  C9  <0> d          -3.441  -2.248  -0.116  0.00  0.00     0.256 C 
ATOM      2  O3  <0> d          -3.564  -1.041  -0.194  0.00  0.00    -0.267 OA
ATOM      3  N1  <0> d          -4.533  -3.037  -0.083  0.00  0.00    -0.346 N 
ATOM      4  C10 <0> d          -4.584  -4.517  -0.052  0.00  0.00     0.141 C 
ATOM      5  C11 <0> d          -5.738  -4.848   0.921  0.00  0.00     0.106 C 
ATOM      6  C12 <0> d          -6.635  -3.599   0.905  0.00  0.00    -0.007 C 
ATOM      7  C13 <0> d          -5.955  -2.618  -0.061  0.00  0.00     0.136 C 
ATOM      8  C14 <0> d          -6.713  -2.987   2.300  0.00  0.00     0.039 C 
ATOM      9  C15 <0> d          -7.656  -1.780   2.271  0.00  0.00     0.233 C 
ATOM     10  N2  <0> d          -8.988  -2.209   1.827  0.00  0.00    -0.075 N 
ATOM     11  C16 <0> d          -8.920  -2.711   0.449  0.00  0.00     0.233 C 
ATOM     12  C17 <0> d          -8.030  -3.956   0.402  0.00  0.00     0.039 C 
ATOM     13  H17 <0> d          -9.324  -2.941   2.434  0.00  0.00     0.277 HD
ATOM     14  H32 <0> d          -9.622  -1.425   1.867  0.00  0.00     0.277 HD
ENDROOT
BRANCH   5  15
ATOM     15  C18 <0> d          -5.201  -5.094   2.307  0.00  0.00     0.224 C 
ATOM     16  O4  <0> d          -4.243  -4.467   2.706  0.00  0.00    -0.273 OA
ATOM     17  N3  <0> d          -5.786  -6.011   3.104  0.00  0.00    -0.361 N 
ATOM     18  H22 <0> d          -6.552  -6.512   2.785  0.00  0.00     0.162 HD
BRANCH  17  19
ATOM     19  C19 <0> d          -5.264  -6.249   4.452  0.00  0.00     0.124 C 
BRANCH  19  20
ATOM     20  C20 <0> d          -6.101  -7.329   5.139  0.00  0.00     0.040 C 
BRANCH  20  21
ATOM     21  C21 <0> d          -5.556  -7.579   6.547  0.00  0.00     0.130 C 
BRANCH  21  22
ATOM     22  N4  <0> d          -6.358  -8.613   7.205  0.00  0.00    -0.352 N 
ATOM     23  C24 <0> d          -6.133  -9.944   7.172  0.00  0.00     0.182 A 
ATOM     24  N5  <0> d          -7.054 -10.542   7.876  0.00  0.00    -0.361 N 
ATOM     25  C23 <0> d          -7.898  -9.625   8.371  0.00  0.00     0.106 A 
ATOM     26  H33 <0> d          -7.121 -11.500   8.016  0.00  0.00     0.166 HD
ATOM     27  C22 <0> d          -7.480  -8.411   7.963  0.00  0.00     0.108 A 
ENDBRANCH  21  22
ENDBRANCH  20  21
ENDBRANCH  19  20
ENDBRANCH  17  19
ENDBRANCH   5  15
BRANCH   1  28
ATOM     28  C8  <0> d          -2.094  -2.850  -0.059  0.00  0.00     0.066 A 
ATOM     29  C3  <0> d          -1.061  -2.201   0.630  0.00  0.00     0.094 A 
ATOM     30  C4  <0> d           0.198  -2.779   0.683  0.00  0.00     0.038 A 
ATOM     31  C5  <0> d           0.434  -3.985   0.054  0.00  0.00     0.003 A 
ATOM     32  C6  <0> d          -0.584  -4.627  -0.633  0.00  0.00     0.001 A 
ATOM     33  C7  <0> d          -1.841  -4.067  -0.696  0.00  0.00     0.020 A 
BRANCH  29  34
ATOM     34  O2  <0> d          -1.294  -1.016   1.248  0.00  0.00    -0.278 OA
BRANCH  34  35
ATOM     35  C2  <0> d          -1.742  -1.041   2.514  0.00  0.00     0.260 C 
ATOM     36  C1  <0> d          -1.907   0.245   3.281  0.00  0.00     0.126 C 
ATOM     37  O1  <0> d          -2.012  -2.096   3.038  0.00  0.00    -0.265 OA
ENDBRANCH  34  35
ENDBRANCH  29  34
ENDBRANCH   1  28
TORSDOF 8
