REMARK  4 active torsions:
REMARK  status: ('A' for Active; 'I' for Inactive)
REMARK    1  A    between atoms: O1_2  and  C2_3 
REMARK    2  A    between atoms: C4_5  and  O4_31 
REMARK    3  A    between atoms: C7_8  and  N1_9 
REMARK       I    between atoms: N1_9  and  C8_10 
REMARK    4  A    between atoms: C8_10  and  C9_12 
ROOT
ATOM      1  C9  <0> d          -2.032   8.972   3.003  0.00  0.00     0.085 A 
ATOM      2  C10 <0> d          -1.510   9.838   2.059  0.00  0.00     0.035 A 
ATOM      3  C11 <0> d          -1.739  11.228   2.219  0.00  0.00     0.000 A 
ATOM      4  C12 <0> d          -1.241  12.138   1.280  0.00  0.00     0.023 A 
ATOM      5  C13 <0> d          -1.437  13.484   1.441  0.00  0.00    -0.035 A 
ATOM      6  C14 <0> d          -2.128  13.966   2.558  0.00  0.00     0.026 A 
ATOM      7  C15 <0> d          -2.669  13.073   3.475  0.00  0.00    -0.001 A 
ATOM      8  C16 <0> d          -2.473  11.702   3.317  0.00  0.00     0.096 A 
ATOM      9  O3  <0> d          -2.997  10.858   4.232  0.00  0.00    -0.290 OA
ATOM     10  C17 <0> d          -2.806   9.531   4.123  0.00  0.00     0.178 A 
ATOM     11  N2  <0> d          -3.308   8.730   5.025  0.00  0.00    -0.277 NA
ATOM     12  C18 <0> d          -3.502  13.503   4.651  0.00  0.00     0.044 C 
ATOM     13  C19 <0> d          -3.679  15.013   4.710  0.00  0.00     0.019 C 
ATOM     14  C20 <0> d          -2.424  15.690   4.159  0.00  0.00     0.096 C 
ATOM     15  N3  <0> d          -2.280  15.334   2.742  0.00  0.00    -0.282 NA
ATOM     16  C21 <0> d          -1.177  16.098   2.147  0.00  0.00     0.096 C 
ATOM     17  C22 <0> d          -1.165  15.848   0.639  0.00  0.00     0.019 C 
ATOM     18  C23 <0> d          -0.874  14.380   0.373  0.00  0.00     0.041 C 
ATOM     19  H9  <0> d          -3.819   9.093   5.765  0.00  0.00     0.189 HD
ENDROOT
BRANCH   1  20
ATOM     20  C8  <0> d          -1.823   7.522   2.887  0.00  0.00     0.260 C 
ATOM     21  N1  <0> d          -1.117   7.024   1.853  0.00  0.00    -0.320 N 
ATOM     22  H6  <0> d          -0.620   7.705   1.147  0.00  0.00     0.169 HD
ATOM     23  O2  <0> d          -2.288   6.771   3.724  0.00  0.00    -0.267 OA
BRANCH  21  24
ATOM     24  C7  <0> d          -1.016   5.636   1.676  0.00  0.00     0.070 A 
ATOM     25  C2  <0> d           0.068   5.099   0.985  0.00  0.00     0.097 A 
ATOM     26  C3  <0> d           0.165   3.728   0.812  0.00  0.00     0.077 A 
ATOM     27  C4  <0> d          -0.815   2.893   1.327  0.00  0.00     0.092 A 
ATOM     28  C5  <0> d          -1.897   3.430   2.010  0.00  0.00     0.069 A 
ATOM     29  C6  <0> d          -1.994   4.798   2.190  0.00  0.00     0.059 A 
ATOM     30 Cl1  <0> d          -3.127   2.383   2.647  0.00  0.00    -0.081 Cl
BRANCH  25  31
ATOM     31  O1  <0> d           1.029   5.918   0.482  0.00  0.00    -0.354 OA
ATOM     32  C1  <0> d           2.111   5.298  -0.215  0.00  0.00     0.210 C 
ENDBRANCH  25  31
BRANCH  27  33
ATOM     33  O4  <0> d          -0.719   1.547   1.157  0.00  0.00    -0.354 OA
ATOM     34  C24 <0> d           0.418   1.063   0.439  0.00  0.00     0.210 C 
ENDBRANCH  27  33
ENDBRANCH  21  24
ENDBRANCH   1  20
TORSDOF 4
