REMARK  4 active torsions:
REMARK  status: ('A' for Active; 'I' for Inactive)
REMARK    1  A    between atoms: C10_12  and  S1_13 
REMARK    2  A    between atoms: S1_13  and  C11_14 
REMARK    3  A    between atoms: C12_17  and  C13_20 
REMARK    4  A    between atoms: N4_18  and  N5_19 
ROOT
ATOM      1  C1  <0> d          -0.018   1.503   0.010  0.00  0.00     0.046 C 
ATOM      2  C2  <0> d           0.002  -0.004   0.002  0.00  0.00    -0.048 A 
ATOM      3  C3  <0> d           0.006  -0.707  -1.166  0.00  0.00    -0.006 A 
ATOM      4  C4  <0> d          -0.008  -0.018  -2.457  0.00  0.00     0.014 A 
ATOM      5  C5  <0> d          -0.003  -0.760  -3.595  0.00  0.00     0.001 A 
ATOM      6  C6  <0> d           0.015  -2.154  -3.553  0.00  0.00     0.002 A 
ATOM      7  C7  <0> d           0.029  -2.853  -2.388  0.00  0.00     0.030 A 
ATOM      8  C8  <0> d           0.026  -2.180  -1.152  0.00  0.00     0.045 A 
ATOM      9  N1  <0> d           0.041  -2.876  -0.015  0.00  0.00    -0.325 N 
ATOM     10  C9  <0> d           0.038  -2.308   1.179  0.00  0.00     0.240 A 
ATOM     11  O1  <0> d           0.051  -2.995   2.182  0.00  0.00    -0.272 OA
ATOM     12  C10 <0> d           0.025  -0.800   1.292  0.00  0.00     0.177 A 
ATOM     13  H11 <0> d           0.053  -3.844  -0.066  0.00  0.00     0.169 HD
ENDROOT
BRANCH  12  14
ATOM     14  S1  <0> d          -1.437  -0.334   2.260  0.00  0.00    -0.070 SA
BRANCH  14  15
ATOM     15  C11 <0> d          -1.232  -1.196   3.783  0.00  0.00     0.207 A 
ATOM     16  N4  <0> d          -2.082  -1.168   4.852  0.00  0.00    -0.232 N 
ATOM     17  C12 <0> d          -1.518  -1.984   5.794  0.00  0.00     0.253 A 
ATOM     18  N3  <0> d          -0.406  -2.444   5.294  0.00  0.00    -0.123 NA
ATOM     19  N2  <0> d          -0.232  -1.982   4.107  0.00  0.00    -0.121 NA
BRANCH  16  20
ATOM     20  N5  <0> d          -3.252  -0.472   4.957  0.00  0.00    -0.239 NA
ATOM     21  H9  <0> d          -4.032  -1.024   4.631  0.00  0.00     0.143 HD
ATOM     22  H10 <0> d          -3.403  -0.159   5.904  0.00  0.00     0.143 HD
ENDBRANCH  16  20
BRANCH  17  23
ATOM     23  C13 <0> d          -2.077  -2.290   7.159  0.00  0.00     0.454 C 
ATOM     24  F1  <0> d          -1.079  -2.865   7.954  0.00  0.00    -0.163 F 
ATOM     25  F2  <0> d          -2.524  -1.107   7.756  0.00  0.00    -0.163 F 
ATOM     26  F3  <0> d          -3.147  -3.183   7.036  0.00  0.00    -0.163 F 
ENDBRANCH  17  23
ENDBRANCH  14  15
ENDBRANCH  12  14
TORSDOF 4
