REMARK  4 active torsions:
REMARK  status: ('A' for Active; 'I' for Inactive)
REMARK    1  A    between atoms: C7_7  and  O1_8 
REMARK    2  A    between atoms: O1_8  and  C8_9 
REMARK    3  A    between atoms: C11_12  and  C14_15 
REMARK    4  A    between atoms: C14_15  and  N2_17 
ROOT
ATOM      1  C8  <0> d           2.857   4.200  -1.202  0.00  0.00     0.076 A 
ATOM      2  C9  <0> d           2.215   3.823  -2.375  0.00  0.00     0.038 A 
ATOM      3  C10 <0> d           2.753   4.163  -3.597  0.00  0.00     0.018 A 
ATOM      4  C11 <0> d           3.950   4.879  -3.656  0.00  0.00     0.007 A 
ATOM      5  C12 <0> d           4.595   5.251  -2.475  0.00  0.00     0.018 A 
ATOM      6  C13 <0> d           4.049   4.912  -1.257  0.00  0.00     0.038 A 
ENDROOT
BRANCH   1   7
ATOM      7  O1  <0> d           2.322   3.866   0.000  0.00  0.00    -0.310 OA
BRANCH   7   8
ATOM      8  C7  <0> d           1.155   3.170   0.008  0.00  0.00     0.088 A 
ATOM      9  C2  <0> d           1.175   1.782   0.000  0.00  0.00    -0.026 A 
ATOM     10  C1  <0> d           2.490   1.047  -0.016  0.00  0.00     0.051 C 
ATOM     11  C3  <0> d          -0.013   1.076   0.008  0.00  0.00     0.033 A 
ATOM     12  C4  <0> d          -1.220   1.751   0.017  0.00  0.00     0.035 A 
ATOM     13  C5  <0> d          -1.242   3.134   0.031  0.00  0.00     0.033 A 
ATOM     14 Cl1  <0> d          -2.711   0.861   0.019  0.00  0.00    -0.084 Cl
ATOM     15  C6  <0> d          -0.057   3.845   0.023  0.00  0.00    -0.026 A 
ATOM     16  C15 <0> d          -0.081   5.351   0.031  0.00  0.00     0.051 C 
ENDBRANCH   7   8
ENDBRANCH   1   7
BRANCH   4  17
ATOM     17  C14 <0> d           4.533   5.242  -4.966  0.00  0.00     0.102 C 
ATOM     18  N1  <0> d           5.651   5.910  -5.019  0.00  0.00    -0.385 N 
ATOM     19  H10 <0> d           6.084   6.180  -5.993  0.00  0.00     0.157 HD
ATOM     20  H16 <0> d           6.160   6.205  -4.089  0.00  0.00     0.157 HD
BRANCH  17  21
ATOM     21  N2  <0> d           3.895   4.873  -6.130  0.00  0.00    -0.385 N 
ATOM     22  H11 <0> d           4.329   5.143  -7.104  0.00  0.00     0.157 HD
ATOM     23  H12 <0> d           2.952   4.309  -6.085  0.00  0.00     0.157 HD
ENDBRANCH  17  21
ENDBRANCH   4  17
TORSDOF 4
