REMARK  3 active torsions:
REMARK  status: ('A' for Active; 'I' for Inactive)
REMARK    1  A    between atoms: C2_2  and  S1_4 
REMARK    2  A    between atoms: S1_4  and  C4_7 
REMARK    3  A    between atoms: P1_14  and  O5_23 
ROOT
ATOM      1  C4  <0> d          -0.102  -0.072   2.666  0.00  0.00     0.072 C 
ATOM      2  C5  <0> d          -0.651  -0.888   3.567  0.00  0.00     0.003 C 
ATOM      3  C6  <0> d          -1.518  -0.300   4.646  0.00  0.00     0.020 C 
ATOM      4  C7  <0> d          -1.592  -1.216   5.864  0.00  0.00     0.033 C 
ATOM      5  C8  <0> d          -2.466  -0.564   6.944  0.00  0.00     0.104 C 
ATOM      6  C9  <0> d          -2.465  -1.502   8.158  0.00  0.00     0.201 C 
ATOM      7  O3  <0> d          -3.326  -0.967   9.179  0.00  0.00    -0.296 OA
ATOM      8  P1  <0> d          -3.114   0.586   9.615  0.00  0.00     0.444 P 
ATOM      9  O4  <0> d          -1.974   0.704  10.552  0.00  0.00    -0.233 OA
ATOM     10  N1  <0> d          -2.787   1.392   8.212  0.00  0.00    -0.255 N 
ATOM     11  N2  <0> d          -1.954   0.758   7.310  0.00  0.00    -0.219 NA
ATOM     12  C10 <0> d          -1.820   1.657   6.149  0.00  0.00     0.123 C 
ATOM     13  C11 <0> d          -0.914   1.037   5.095  0.00  0.00     0.032 C 
ATOM     14  C12 <0> d          -0.747   1.924   3.892  0.00  0.00    -0.001 C 
ATOM     15  C13 <0> d          -0.360   1.377   2.740  0.00  0.00     0.024 C 
ATOM     16  I1  <0> d          -0.125   2.575   1.038  0.00  0.00    -0.043 I 
ATOM     17  H16 <0> d          -3.158   2.271   8.038  0.00  0.00     0.186 HD
ENDROOT
BRANCH   1  18
ATOM     18  S1  <0> d           0.932  -0.723   1.397  0.00  0.00     0.179 S 
ATOM     19  O1  <0> d           0.400  -0.195   0.190  0.00  0.00    -0.222 OA
ATOM     20  O2  <0> d           0.951  -2.125   1.628  0.00  0.00    -0.222 OA
BRANCH  18  21
ATOM     21  C2  <0> d           2.570  -0.014   1.721  0.00  0.00     0.105 C 
ATOM     22  C1  <0> d           3.057  -0.465   3.100  0.00  0.00     0.026 C 
ATOM     23  C3  <0> d           3.554  -0.493   0.652  0.00  0.00     0.026 C 
ENDBRANCH  18  21
ENDBRANCH   1  18
BRANCH   8  24
ATOM     24  O5  <0> d          -4.455   1.163  10.294  0.00  0.00    -0.302 OA
ATOM     25  C14 <0> d          -4.508   2.425  10.963  0.00  0.00     0.214 C 
ENDBRANCH   8  24
TORSDOF 3
