REMARK  6 active torsions:
REMARK  status: ('A' for Active; 'I' for Inactive)
REMARK    1  A    between atoms: C4_4  and  N1_7 
REMARK    2  A    between atoms: C10_11  and  C12_16 
REMARK    3  A    between atoms: C12_16  and  N3_17 
REMARK    4  A    between atoms: N3_17  and  C13_18 
REMARK    5  A    between atoms: C13_18  and  C14_19 
REMARK    6  A    between atoms: C18_24  and  C19_26 
ROOT
ATOM      1  N1  <0> d           3.623  -0.651  -0.036  0.00  0.00    -0.216 N 
ATOM      2  C7  <0> d           3.869  -1.833   0.587  0.00  0.00     0.145 A 
ATOM      3  C8  <0> d           5.199  -2.168   0.325  0.00  0.00     0.042 A 
ATOM      4  C9  <0> d           5.738  -3.359   0.852  0.00  0.00     0.032 A 
ATOM      5  C10 <0> d           4.947  -4.165   1.611  0.00  0.00     0.036 A 
ATOM      6  C11 <0> d           3.610  -3.803   1.859  0.00  0.00     0.255 A 
ATOM      7  O1  <0> d           2.906  -4.529   2.540  0.00  0.00    -0.268 OA
ATOM      8  N2  <0> d           3.098  -2.664   1.355  0.00  0.00    -0.307 N 
ATOM      9  H1  <0> d           2.174  -2.431   1.536  0.00  0.00     0.170 HD
ATOM     10  C18 <0> d           5.742  -1.093  -0.509  0.00  0.00     0.102 A 
ATOM     11  N4  <0> d           4.776  -0.224  -0.701  0.00  0.00    -0.164 NA
ENDROOT
BRANCH   5  12
ATOM     12  C12 <0> d           5.501  -5.443   2.185  0.00  0.00     0.276 C 
BRANCH  12  13
ATOM     13  N3  <0> d           5.969  -5.202   3.556  0.00  0.00    -0.069 N 
ATOM     14  H11 <0> d           6.691  -4.497   3.546  0.00  0.00     0.277 HD
ATOM     15  H24 <0> d           5.197  -4.885   4.124  0.00  0.00     0.277 HD
BRANCH  13  16
ATOM     16  C13 <0> d           6.509  -6.448   4.116  0.00  0.00     0.264 C 
BRANCH  16  17
ATOM     17  C14 <0> d           6.996  -6.197   5.544  0.00  0.00     0.147 C 
ATOM     18  O2  <0> d           8.070  -5.243   5.544  0.00  0.00    -0.384 OA
ATOM     19  C17 <0> d           9.036  -5.596   6.543  0.00  0.00     0.168 C 
ATOM     20  C16 <0> d           8.560  -6.903   7.212  0.00  0.00     0.029 C 
ATOM     21  C15 <0> d           7.603  -7.492   6.141  0.00  0.00     0.036 C 
ENDBRANCH  16  17
ENDBRANCH  13  16
ENDBRANCH  12  13
ENDBRANCH   5  12
BRANCH  10  22
ATOM     22  C19 <0> d           7.122  -1.005  -1.042  0.00  0.00    -0.004 A 
ATOM     23  C24 <0> d           7.353  -0.447  -2.299  0.00  0.00     0.017 A 
ATOM     24  C23 <0> d           8.640  -0.362  -2.788  0.00  0.00     0.043 A 
ATOM     25  C22 <0> d           9.701  -0.842  -2.038  0.00  0.00     0.116 A 
ATOM     26  C21 <0> d           9.477  -1.402  -0.791  0.00  0.00     0.043 A 
ATOM     27  F1  <0> d          10.960  -0.762  -2.524  0.00  0.00    -0.206 F 
ATOM     28  C20 <0> d           8.194  -1.485  -0.291  0.00  0.00     0.017 A 
ENDBRANCH  10  22
BRANCH   1  29
ATOM     29  C4  <0> d           2.400   0.031  -0.021  0.00  0.00     0.060 A 
ATOM     30  C3  <0> d           2.377   1.419  -0.013  0.00  0.00     0.031 A 
ATOM     31  C2  <0> d           1.170   2.089   0.002  0.00  0.00     0.002 A 
ATOM     32  C1  <0> d          -0.017   1.379   0.010  0.00  0.00     0.000 A 
ATOM     33  C6  <0> d           0.002  -0.004   0.002  0.00  0.00     0.002 A 
ATOM     34  C5  <0> d           1.206  -0.680  -0.013  0.00  0.00     0.031 A 
ENDBRANCH   1  29
TORSDOF 6
