REMARK  7 active torsions:
REMARK  status: ('A' for Active; 'I' for Inactive)
REMARK    1  A    between atoms: C2_2  and  N1_3 
REMARK    2  A    between atoms: N1_3  and  C3_4 
REMARK    3  A    between atoms: N1_3  and  C5_6 
REMARK    4  A    between atoms: C5_6  and  C6_7 
REMARK    5  A    between atoms: C6_7  and  N2_9 
REMARK    6  A    between atoms: N2_9  and  C8_10 
REMARK    7  A    between atoms: C11_13  and  N4_20 
ROOT
ATOM      1  C8  <0> d          -4.891  -2.308   1.335  0.00  0.00     0.056 A 
ATOM      2  C9  <0> d          -5.554  -2.778   0.223  0.00  0.00     0.034 A 
ATOM      3  C10 <0> d          -6.944  -2.785   0.169  0.00  0.00     0.032 A 
ATOM      4  C11 <0> d          -7.692  -2.321   1.229  0.00  0.00     0.038 A 
ATOM      5  C12 <0> d          -7.042  -1.834   2.381  0.00  0.00     0.019 A 
ATOM      6  C13 <0> d          -5.627  -1.831   2.440  0.00  0.00     0.071 A 
ATOM      7  N3  <0> d          -5.007  -1.374   3.533  0.00  0.00    -0.363 N 
ATOM      8  C14 <0> d          -5.684  -0.929   4.564  0.00  0.00     0.088 A 
ATOM      9  C15 <0> d          -7.076  -0.910   4.573  0.00  0.00     0.018 A 
ATOM     10  C16 <0> d          -7.771  -1.352   3.482  0.00  0.00     0.017 A 
ATOM     11  H26 <0> d          -4.038  -1.372   3.564  0.00  0.00     0.165 HD
ENDROOT
BRANCH   1  12
ATOM     12  N2  <0> d          -3.492  -2.309   1.371  0.00  0.00    -0.382 N 
ATOM     13  H17 <0> d          -3.027  -1.981   2.157  0.00  0.00     0.160 HD
BRANCH  12  14
ATOM     14  C6  <0> d          -2.730  -2.805   0.222  0.00  0.00     0.103 C 
ATOM     15  C7  <0> d          -2.588  -4.325   0.323  0.00  0.00     0.034 C 
BRANCH  14  16
ATOM     16  C5  <0> d          -1.342  -2.162   0.215  0.00  0.00     0.259 C 
BRANCH  16  17
ATOM     17  N1  <0> d          -1.480  -0.700   0.222  0.00  0.00    -0.070 N 
ATOM     18  H25 <0> d          -2.048  -0.419   1.006  0.00  0.00     0.279 HD
BRANCH  17  19
ATOM     19  C2  <0> d          -0.151  -0.083   0.334  0.00  0.00     0.230 C 
ATOM     20  C1  <0> d          -0.302   1.433   0.466  0.00  0.00     0.034 C 
ENDBRANCH  17  19
BRANCH  17  21
ATOM     21  C3  <0> d          -2.118  -0.263  -1.027  0.00  0.00     0.230 C 
ATOM     22  C4  <0> d          -1.261  -0.697  -2.218  0.00  0.00     0.034 C 
ENDBRANCH  17  21
ENDBRANCH  16  17
ENDBRANCH  14  16
ENDBRANCH  12  14
ENDBRANCH   1  12
BRANCH   4  23
ATOM     23  N4  <0> d          -9.087  -2.332   1.162  0.00  0.00    -0.398 N 
ATOM     24  H23 <0> d          -9.532  -2.667   0.368  0.00  0.00     0.156 HD
ATOM     25  H24 <0> d          -9.611  -2.004   1.910  0.00  0.00     0.156 HD
ENDBRANCH   4  23
TORSDOF 7
