REMARK  3 active torsions:
REMARK  status: ('A' for Active; 'I' for Inactive)
REMARK    1  A    between atoms: N1_5  and  S1_11 
REMARK    2  A    between atoms: C8_9  and  N2_10 
REMARK    3  A    between atoms: S1_11  and  C9_14 
ROOT
ATOM      1  C1  <0> d          -0.019   1.529   0.010  0.00  0.00     0.033 C 
ATOM      2  C2  <0> d           1.422   2.030  -0.001  0.00  0.00     0.009 C 
ATOM      3  C3  <0> d           2.171   1.579   1.255  0.00  0.00     0.010 C 
ATOM      4  C4  <0> d           3.685   1.744   0.947  0.00  0.00     0.140 C 
ATOM      5  N1  <0> d           4.155   0.461   0.399  0.00  0.00    -0.310 N 
ATOM      6  C5  <0> d           3.021  -0.487   0.376  0.00  0.00     0.140 C 
ATOM      7  C6  <0> d           2.044   0.057   1.456  0.00  0.00     0.012 C 
ATOM      8  C7  <0> d           0.635  -0.462   1.317  0.00  0.00     0.039 C 
ATOM      9  C8  <0> d           0.002  -0.004   0.002  0.00  0.00     0.184 C 
ENDROOT
BRANCH   5  10
ATOM     10  S1  <0> d           5.697   0.135  -0.107  0.00  0.00     0.233 S 
ATOM     11  O1  <0> d           5.552  -0.901  -1.068  0.00  0.00    -0.205 OA
ATOM     12  O2  <0> d           6.232   1.398  -0.478  0.00  0.00    -0.205 OA
BRANCH  10  13
ATOM     13  C9  <0> d           6.548  -0.495   1.367  0.00  0.00     0.144 C 
ATOM     14  C12 <0> d           8.053  -0.722   1.047  0.00  0.00     0.162 C 
ATOM     15  S2  <0> d           8.759  -0.743   2.749  0.00  0.00     0.145 S 
ATOM     16  C11 <0> d           7.429   0.161   3.641  0.00  0.00     0.142 C 
ATOM     17  O3  <0> d           8.801  -2.084   3.216  0.00  0.00    -0.228 OA
ATOM     18  O4  <0> d           9.944   0.041   2.767  0.00  0.00    -0.228 OA
ATOM     19  C10 <0> d           6.450   0.536   2.503  0.00  0.00     0.037 C 
ENDBRANCH  10  13
ENDBRANCH   5  10
BRANCH   9  20
ATOM     20  N2  <0> d          -1.372  -0.518  -0.079  0.00  0.00    -0.075 N 
ATOM     21  H15 <0> d          -1.806  -0.185  -0.926  0.00  0.00     0.274 HD
ATOM     22  H16 <0> d          -1.353  -1.527  -0.084  0.00  0.00     0.274 HD
ATOM     23  H23 <0> d          -1.899  -0.196   0.719  0.00  0.00     0.274 HD
ENDBRANCH   9  20
TORSDOF 3
