REMARK  7 active torsions:
REMARK  status: ('A' for Active; 'I' for Inactive)
REMARK    1  A    between atoms: C4_4  and  O4_27 
REMARK    2  A    between atoms: C5_5  and  C7_7 
REMARK    3  A    between atoms: C7_7  and  C8_9 
REMARK    4  A    between atoms: C8_9  and  C9_10 
REMARK    5  A    between atoms: C9_10  and  O3_26 
REMARK    6  A    between atoms: N1_17  and  C17_20 
REMARK    7  A    between atoms: C17_20  and  C18_21 
ROOT
ATOM      1  C9  <0> d          -2.479   0.934   0.019  0.00  0.00     0.175 A 
ATOM      2  C10 <0> d          -3.811   1.648   0.029  0.00  0.00     0.013 A 
ATOM      3  C11 <0> d          -4.412   2.522  -0.849  0.00  0.00     0.013 A 
ATOM      4  C12 <0> d          -5.670   3.026  -0.569  0.00  0.00     0.001 A 
ATOM      5  C13 <0> d          -6.318   2.651   0.594  0.00  0.00     0.002 A 
ATOM      6  C14 <0> d          -5.718   1.775   1.475  0.00  0.00     0.030 A 
ATOM      7  C15 <0> d          -4.452   1.263   1.200  0.00  0.00     0.047 A 
ATOM      8  N1  <0> d          -3.649   0.379   1.921  0.00  0.00    -0.310 N 
ATOM      9  C16 <0> d          -2.481   0.133   1.303  0.00  0.00     0.264 A 
ATOM     10  O2  <0> d          -1.595  -0.594   1.700  0.00  0.00    -0.269 OA
ENDROOT
BRANCH   1  11
ATOM     11  C8  <0> d          -1.330   1.944   0.019  0.00  0.00     0.137 C 
BRANCH  11  12
ATOM     12  C7  <0> d          -0.014   1.209   0.009  0.00  0.00     0.166 C 
ATOM     13  O1  <0> d           0.002  -0.004   0.002  0.00  0.00    -0.292 OA
BRANCH  12  14
ATOM     14  C5  <0> d           1.247   1.960   0.001  0.00  0.00     0.043 A 
ATOM     15  C4  <0> d           2.475   1.279  -0.015  0.00  0.00     0.079 A 
ATOM     16  C3  <0> d           3.659   2.001  -0.023  0.00  0.00     0.037 A 
ATOM     17  C2  <0> d           3.630   3.381  -0.015  0.00  0.00     0.003 A 
ATOM     18  C1  <0> d           2.420   4.058  -0.000  0.00  0.00     0.001 A 
ATOM     19  C6  <0> d           1.233   3.360   0.003  0.00  0.00     0.018 A 
BRANCH  15  20
ATOM     20  O4  <0> d           2.503  -0.077  -0.021  0.00  0.00    -0.360 OA
ATOM     21  H17 <0> d           2.502  -0.466  -0.907  0.00  0.00     0.217 HD
ENDBRANCH  15  20
ENDBRANCH  12  14
ENDBRANCH  11  12
ENDBRANCH   1  11
BRANCH   1  22
ATOM     22  O3  <0> d          -2.383   0.069  -1.114  0.00  0.00    -0.375 OA
ATOM     23  H16 <0> d          -1.560  -0.436  -1.155  0.00  0.00     0.211 HD
ENDBRANCH   1  22
BRANCH   8  24
ATOM     24  C17 <0> d          -4.035  -0.214   3.204  0.00  0.00     0.178 C 
BRANCH  24  25
ATOM     25  C18 <0> d          -4.759  -1.512   2.960  0.00  0.00     0.001 A 
ATOM     26  S1  <0> d          -6.506  -1.799   2.730  0.00  0.00    -0.105 SA
ATOM     27  C21 <0> d          -6.445  -3.570   2.513  0.00  0.00     0.050 A 
ATOM     28  C20 <0> d          -5.118  -3.820   2.629  0.00  0.00     0.008 A 
ATOM     29  C19 <0> d          -4.253  -2.765   2.853  0.00  0.00     0.017 A 
ENDBRANCH  24  25
ENDBRANCH   8  24
TORSDOF 7
