REMARK  9 active torsions:
REMARK  status: ('A' for Active; 'I' for Inactive)
REMARK    1  A    between atoms: C6_6  and  O1_8 
REMARK    2  A    between atoms: O1_8  and  C8_9 
REMARK    3  A    between atoms: C8_9  and  C9_10 
REMARK    4  A    between atoms: C9_10  and  C10_11 
REMARK    5  A    between atoms: C9_10  and  O3_27 
REMARK    6  A    between atoms: C10_11  and  N1_12 
REMARK       I    between atoms: N1_12  and  C11_13 
REMARK       I    between atoms: C11_13  and  N2_15 
REMARK    7  A    between atoms: N2_15  and  C12_16 
REMARK    8  A    between atoms: C12_16  and  C13_17 
REMARK    9  A    between atoms: C13_17  and  N3_18 
ROOT
ATOM      1  N1  <0> d          -0.130  -6.881   4.945  0.00  0.00    -0.341 N 
ATOM      2  C11 <0> d          -0.234  -8.214   5.114  0.00  0.00     0.316 C 
ATOM      3  O2  <0> d          -0.240  -8.951   4.147  0.00  0.00    -0.247 OA
ATOM      4  N2  <0> d          -0.332  -8.730   6.355  0.00  0.00    -0.342 N 
ATOM      5  H13 <0> d          -0.125  -6.293   5.716  0.00  0.00     0.164 HD
ATOM      6  H14 <0> d          -0.327  -8.142   7.127  0.00  0.00     0.164 HD
ENDROOT
BRANCH   1   7
ATOM      7  C10 <0> d          -0.023  -6.320   3.595  0.00  0.00     0.158 C 
BRANCH   7   8
ATOM      8  C9  <0> d           0.083  -4.796   3.683  0.00  0.00     0.160 C 
BRANCH   8   9
ATOM      9  C8  <0> d           0.069  -4.202   2.274  0.00  0.00     0.209 C 
BRANCH   9  10
ATOM     10  O1  <0> d           0.050  -2.776   2.358  0.00  0.00    -0.349 OA
BRANCH  10  11
ATOM     11  C6  <0> d           0.035  -2.088   1.186  0.00  0.00     0.069 A 
ATOM     12  C5  <0> d           0.039  -2.772  -0.020  0.00  0.00     0.037 A 
ATOM     13  C4  <0> d           0.024  -2.071  -1.211  0.00  0.00     0.003 A 
ATOM     14  C3  <0> d           0.006  -0.688  -1.200  0.00  0.00     0.007 A 
ATOM     15  C2  <0> d           0.002  -0.004   0.002  0.00  0.00    -0.059 A 
ATOM     16  C1  <0> d          -0.018   1.503   0.010  0.00  0.00     0.048 C 
ATOM     17  C7  <0> d           0.023  -0.700   1.195  0.00  0.00     0.043 A 
ENDBRANCH  10  11
ENDBRANCH   9  10
ENDBRANCH   8   9
BRANCH   8  18
ATOM     18  O3  <0> d           1.302  -4.441   4.338  0.00  0.00    -0.392 OA
ATOM     19  H27 <0> d           2.097  -4.756   3.887  0.00  0.00     0.210 HD
ENDBRANCH   8  18
ENDBRANCH   7   8
ENDBRANCH   1   7
BRANCH   4  20
ATOM     20  C12 <0> d          -0.446 -10.179   6.539  0.00  0.00     0.152 C 
BRANCH  20  21
ATOM     21  C13 <0> d          -0.542 -10.497   8.033  0.00  0.00     0.255 C 
BRANCH  21  22
ATOM     22  N3  <0> d          -0.656 -11.950   8.217  0.00  0.00    -0.065 N 
ATOM     23  C20 <0> d           0.581 -12.594   7.759  0.00  0.00     0.274 C 
ATOM     24  C17 <0> d           0.492 -14.089   8.049  0.00  0.00    -0.019 A 
ATOM     25  C16 <0> d          -0.403 -14.540   8.973  0.00  0.00    -0.008 A 
ATOM     26  C18 <0> d           1.277 -15.052   7.421  0.00  0.00     0.017 A 
ATOM     27  C15 <0> d          -1.345 -13.705   9.777  0.00  0.00     0.074 C 
ATOM     28  S1  <0> d          -0.166 -16.294   8.971  0.00  0.00    -0.106 SA
ATOM     29  C14 <0> d          -0.900 -12.239   9.637  0.00  0.00     0.240 C 
ATOM     30  C19 <0> d           1.126 -16.360   7.738  0.00  0.00     0.051 A 
ATOM     31  H28 <0> d          -1.431 -12.294   7.671  0.00  0.00     0.280 HD
ENDBRANCH  21  22
ENDBRANCH  20  21
ENDBRANCH   4  20
TORSDOF 9
