REMARK  3 active torsions:
REMARK  status: ('A' for Active; 'I' for Inactive)
REMARK    1  A    between atoms: N1_9  and  C8_12 
REMARK    2  A    between atoms: C8_12  and  C10_14 
REMARK       I    between atoms: C10_14  and  N3_16 
REMARK    3  A    between atoms: N3_16  and  C11_17 
ROOT
ATOM      1  C8  <0> d          -0.008   1.073   0.001  0.00  0.00     0.182 C 
ATOM      2  C9  <0> d          -0.732   1.558   1.259  0.00  0.00     0.043 C 
ENDROOT
BRANCH   1   3
ATOM      3  N1  <0> d          -0.717   1.557  -1.187  0.00  0.00    -0.294 N 
ATOM      4  C6  <0> d          -1.211   0.668  -2.068  0.00  0.00     0.263 A 
ATOM      5  C5  <0> d          -1.903   1.150  -3.227  0.00  0.00     0.075 A 
ATOM      6  O1  <0> d          -1.072  -0.529  -1.883  0.00  0.00    -0.267 OA
ATOM      7  C2  <0> d          -2.518   0.404  -4.309  0.00  0.00    -0.031 A 
ATOM      8  C4  <0> d          -2.003   2.549  -3.336  0.00  0.00     0.115 A 
ATOM      9  C1  <0> d          -2.481  -1.102  -4.313  0.00  0.00     0.050 C 
ATOM     10  C3  <0> d          -3.119   1.072  -5.306  0.00  0.00    -0.012 A 
ATOM     11  S1  <0> d          -2.897   2.782  -4.851  0.00  0.00    -0.074 SA
ATOM     12  C18 <0> d          -3.816   0.511  -6.519  0.00  0.00     0.057 C 
ATOM     13  N2  <0> d          -1.488   3.365  -2.421  0.00  0.00    -0.235 NA
ATOM     14  C7  <0> d          -0.867   2.894  -1.373  0.00  0.00     0.214 A 
ENDBRANCH   1   3
BRANCH   1  15
ATOM     15  C10 <0> d           1.402   1.605  -0.004  0.00  0.00     0.245 C 
ATOM     16  O2  <0> d           1.778   2.317  -0.910  0.00  0.00    -0.271 OA
ATOM     17  N3  <0> d           2.245   1.288   0.998  0.00  0.00    -0.325 N 
ATOM     18  H9  <0> d           1.922   0.785   1.763  0.00  0.00     0.169 HD
BRANCH  17  19
ATOM     19  C11 <0> d           3.585   1.684   0.937  0.00  0.00     0.042 A 
ATOM     20  C16 <0> d           4.318   1.844   2.106  0.00  0.00    -0.013 A 
ATOM     21  C15 <0> d           5.643   2.231   2.041  0.00  0.00     0.042 A 
ATOM     22  C17 <0> d           3.670   1.590   3.442  0.00  0.00     0.052 C 
ATOM     23  C14 <0> d           6.237   2.469   0.814  0.00  0.00     0.024 A 
ATOM     24 Cl1  <0> d           6.563   2.424   3.501  0.00  0.00    -0.084 Cl
ATOM     25  C13 <0> d           5.507   2.316  -0.351  0.00  0.00     0.004 A 
ATOM     26  C12 <0> d           4.184   1.924  -0.293  0.00  0.00     0.030 A 
ENDBRANCH  17  19
ENDBRANCH   1  15
TORSDOF 3
