REMARK  3 active torsions:
REMARK  status: ('A' for Active; 'I' for Inactive)
REMARK       I    between atoms: N1_2  and  C3_4 
REMARK    1  A    between atoms: C3_4  and  C4_6 
REMARK    2  A    between atoms: C10_13  and  C16_19 
REMARK    3  A    between atoms: C18_21  and  N3_26 
ROOT
ATOM      1  C4  <0> d          -1.257   1.993  -0.145  0.00  0.00     0.059 A 
ATOM      2  C5  <0> d          -1.202   3.379  -0.281  0.00  0.00     0.019 A 
ATOM      3  C6  <0> d          -2.366   4.109  -0.384  0.00  0.00     0.002 A 
ATOM      4  C7  <0> d          -3.591   3.462  -0.360  0.00  0.00     0.010 A 
ATOM      5  C8  <0> d          -3.663   2.092  -0.234  0.00  0.00    -0.022 A 
ATOM      6  C9  <0> d          -2.499   1.326  -0.117  0.00  0.00     0.051 A 
ATOM      7  N2  <0> d          -2.485  -0.048   0.051  0.00  0.00    -0.379 N 
ATOM      8  C10 <0> d          -3.781  -0.741  -0.023  0.00  0.00     0.122 C 
ATOM      9  C11 <0> d          -4.796   0.137   0.679  0.00  0.00     0.028 C 
ATOM     10  C12 <0> d          -4.958   1.377  -0.244  0.00  0.00     0.050 C 
ATOM     11  C13 <0> d          -6.220   1.993   0.222  0.00  0.00    -0.021 C 
ATOM     12  C14 <0> d          -6.989   1.039   0.734  0.00  0.00    -0.029 C 
ATOM     13  C15 <0> d          -6.263  -0.308   0.668  0.00  0.00     0.035 C 
ATOM     14  H13 <0> d          -1.564  -0.622   0.233  0.00  0.00     0.160 HD
ENDROOT
BRANCH   8  15
ATOM     15  C16 <0> d          -4.178  -0.936  -1.464  0.00  0.00    -0.011 A 
ATOM     16  C21 <0> d          -5.109  -1.901  -1.800  0.00  0.00     0.042 A 
ATOM     17  C20 <0> d          -5.476  -2.077  -3.123  0.00  0.00     0.027 A 
ATOM     18 Cl1  <0> d          -5.822  -2.889  -0.563  0.00  0.00    -0.084 Cl
ATOM     19  C19 <0> d          -4.905  -1.294  -4.108  0.00  0.00     0.038 A 
ATOM     20  C18 <0> d          -3.970  -0.333  -3.772  0.00  0.00     0.103 A 
ATOM     21  C17 <0> d          -3.606  -0.154  -2.450  0.00  0.00     0.047 A 
BRANCH  20  22
ATOM     22  N3  <0> d          -3.358   0.505  -4.827  0.00  0.00    -0.116 N 
ATOM     23  O2  <0> d          -2.534   1.352  -4.531  0.00  0.00    -0.532 OA
ATOM     24  O3  <0> d          -3.678   0.347  -5.992  0.00  0.00    -0.532 OA
ENDBRANCH  20  22
ENDBRANCH   8  15
BRANCH   1  25
ATOM     25  C3  <0> d          -0.007   1.218  -0.035  0.00  0.00     0.255 C 
ATOM     26  N1  <0> d           0.958   1.360  -0.965  0.00  0.00    -0.357 N 
ATOM     27  C1  <0> d           2.246   0.684  -0.793  0.00  0.00     0.152 C 
ATOM     28  C2  <0> d           0.719   2.191  -2.147  0.00  0.00     0.152 C 
ATOM     29  O1  <0> d           0.151   0.448   0.893  0.00  0.00    -0.267 OA
ENDBRANCH   1  25
TORSDOF 3
