REMARK  4 active torsions:
REMARK  status: ('A' for Active; 'I' for Inactive)
REMARK    1  A    between atoms: C4_4  and  C5_8 
REMARK       I    between atoms: C5_8  and  N3_10 
REMARK    2  A    between atoms: N3_10  and  C6_11 
REMARK    3  A    between atoms: C6_11  and  C8_13 
REMARK    4  A    between atoms: C8_13  and  N4_14 
ROOT
ATOM      1  C5  <0> d           0.061  -3.381   1.364  0.00  0.00     0.273 C 
ATOM      2  O1  <0> d           0.072  -3.332   2.579  0.00  0.00    -0.266 OA
ATOM      3  N3  <0> d           0.071  -4.575   0.738  0.00  0.00    -0.350 N 
ATOM      4  H7  <0> d           0.063  -4.614  -0.231  0.00  0.00     0.163 HD
ENDROOT
BRANCH   3   5
ATOM      5  C6  <0> d           0.096  -5.813   1.521  0.00  0.00     0.106 C 
ATOM      6  C7  <0> d           1.541  -6.157   1.887  0.00  0.00     0.034 C 
BRANCH   5   7
ATOM      7  C8  <0> d          -0.506  -6.951   0.695  0.00  0.00     0.259 C 
BRANCH   7   8
ATOM      8  N4  <0> d          -1.851  -6.570   0.243  0.00  0.00    -0.069 N 
ATOM      9  C13 <0> d          -2.380  -7.610  -0.647  0.00  0.00     0.239 C 
ATOM     10  C12 <0> d          -3.747  -7.181  -1.185  0.00  0.00     0.007 C 
ATOM     11  C11 <0> d          -4.709  -6.974  -0.011  0.00  0.00     0.007 C 
ATOM     12  C14 <0> d          -4.297  -8.267  -2.111  0.00  0.00     0.011 C 
ATOM     13  C10 <0> d          -4.112  -5.941   0.949  0.00  0.00     0.028 C 
ATOM     14  C9  <0> d          -2.732  -6.416   1.408  0.00  0.00     0.235 C 
ATOM     15  H24 <0> d          -1.802  -5.694  -0.256  0.00  0.00     0.280 HD
ENDBRANCH   7   8
ENDBRANCH   5   7
ENDBRANCH   3   5
BRANCH   1  16
ATOM     16  C4  <0> d           0.036  -2.134   0.575  0.00  0.00     0.163 A 
ATOM     17  C3  <0> d           0.023  -0.814   1.087  0.00  0.00     0.070 A 
ATOM     18  C2  <0> d           0.002  -0.004   0.002  0.00  0.00     0.044 A 
ATOM     19 Br1  <0> d           0.034  -0.292   2.905  0.00  0.00    -0.046 Br
ATOM     20  C1  <0> d          -0.018   1.503   0.010  0.00  0.00     0.071 C 
ATOM     21  N2  <0> d          -0.003  -0.804  -1.093  0.00  0.00    -0.281 N 
ATOM     22  N1  <0> d           0.023  -2.038  -0.740  0.00  0.00    -0.168 NA
ATOM     23  H1  <0> d          -0.022  -0.489  -2.011  0.00  0.00     0.189 HD
ENDBRANCH   1  16
TORSDOF 4
