REMARK  5 active torsions:
REMARK  status: ('A' for Active; 'I' for Inactive)
REMARK    1  A    between atoms: C4_4  and  C13_15 
REMARK    2  A    between atoms: N1_6  and  C6_7 
REMARK    3  A    between atoms: C15_18  and  N3_20 
REMARK       I    between atoms: N3_20  and  C16_21 
REMARK    4  A    between atoms: C16_21  and  C17_23 
REMARK    5  A    between atoms: C17_23  and  N4_24 
ROOT
ATOM      1  C13 <0> d           0.002  -0.004   0.002  0.00  0.00     0.078 A 
ATOM      2  C14 <0> d           1.217  -0.629  -0.013  0.00  0.00     0.086 A 
ATOM      3  S1  <0> d           2.316   0.779  -0.016  0.00  0.00    -0.061 SA
ATOM      4  C15 <0> d           1.101   2.019   0.002  0.00  0.00     0.173 A 
ATOM      5  N2  <0> d          -0.016   1.321   0.009  0.00  0.00    -0.223 NA
ENDROOT
BRANCH   4   6
ATOM      6  N3  <0> d           1.266   3.399   0.008  0.00  0.00    -0.304 N 
ATOM      7  C16 <0> d           2.504   3.930  -0.001  0.00  0.00     0.242 C 
ATOM      8  O1  <0> d           3.475   3.203  -0.014  0.00  0.00    -0.271 OA
ATOM      9  H13 <0> d           0.489   3.980   0.018  0.00  0.00     0.171 HD
BRANCH   7  10
ATOM     10  C17 <0> d           2.683   5.426   0.005  0.00  0.00     0.236 C 
BRANCH  10  11
ATOM     11  N4  <0> d           4.112   5.748  -0.007  0.00  0.00    -0.299 N 
ATOM     12  C21 <0> d           4.759   5.902  -1.186  0.00  0.00     0.264 A 
ATOM     13  C20 <0> d           6.185   6.222  -1.138  0.00  0.00     0.099 A 
ATOM     14  O2  <0> d           4.174   5.777  -2.248  0.00  0.00    -0.267 OA
ATOM     15  C19 <0> d           6.792   6.349   0.121  0.00  0.00     0.164 A 
ATOM     16  C22 <0> d           7.180   6.452  -2.106  0.00  0.00     0.160 A 
ATOM     17  N5  <0> d           6.050   6.175   1.226  0.00  0.00    -0.224 NA
ATOM     18  N7  <0> d           8.098   6.644  -0.105  0.00  0.00    -0.256 N 
ATOM     19  C18 <0> d           4.781   5.895   1.164  0.00  0.00     0.215 A 
ATOM     20  N6  <0> d           8.303   6.699  -1.490  0.00  0.00    -0.182 NA
ATOM     21  C23 <0> d           9.119   6.866   0.922  0.00  0.00     0.182 C 
ENDBRANCH  10  11
ENDBRANCH   7  10
ENDBRANCH   4   6
BRANCH   1  22
ATOM     22  C4  <0> d          -1.260  -0.786   0.010  0.00  0.00     0.018 A 
ATOM     23  C3  <0> d          -1.375  -2.199  -0.002  0.00  0.00     0.041 A 
ATOM     24  C2  <0> d          -2.688  -2.497   0.016  0.00  0.00     0.014 A 
ATOM     25  C1  <0> d          -3.277  -3.884   0.015  0.00  0.00     0.068 C 
ATOM     26  N1  <0> d          -3.397  -1.329   0.028  0.00  0.00    -0.319 N 
ATOM     27  C5  <0> d          -2.523  -0.281   0.025  0.00  0.00     0.026 A 
ATOM     28  C12 <0> d          -2.892   1.180   0.037  0.00  0.00     0.070 C 
BRANCH  26  29
ATOM     29  C6  <0> d          -4.796  -1.224   0.042  0.00  0.00     0.039 A 
ATOM     30  C11 <0> d          -5.537  -1.674  -1.042  0.00  0.00     0.033 A 
ATOM     31  C10 <0> d          -6.914  -1.570  -1.027  0.00  0.00     0.044 A 
ATOM     32  C9  <0> d          -7.556  -1.018   0.069  0.00  0.00     0.116 A 
ATOM     33  C8  <0> d          -6.818  -0.570   1.152  0.00  0.00     0.044 A 
ATOM     34  F1  <0> d          -8.903  -0.917   0.083  0.00  0.00    -0.206 F 
ATOM     35  C7  <0> d          -5.441  -0.676   1.142  0.00  0.00     0.033 A 
ENDBRANCH  26  29
ENDBRANCH   1  22
TORSDOF 5
