REMARK  7 active torsions:
REMARK  status: ('A' for Active; 'I' for Inactive)
REMARK    1  A    between atoms: C2_2  and  C4_4 
REMARK    2  A    between atoms: C4_4  and  C5_5 
REMARK    3  A    between atoms: C4_4  and  N1_7 
REMARK    4  A    between atoms: C6_8  and  C12_21 
REMARK    5  A    between atoms: C7_11  and  S1_12 
REMARK    6  A    between atoms: S1_12  and  C8_13 
REMARK    7  A    between atoms: C8_13  and  C9_14 
REMARK       I    between atoms: C9_14  and  N4_16 
REMARK       I    between atoms: N4_16  and  C10_17 
REMARK       I    between atoms: C10_17  and  N5_19 
ROOT
ATOM      1  N1  <0> d           1.386   1.579   2.496  0.00  0.00    -0.291 N 
ATOM      2  C6  <0> d           2.546   0.838   2.486  0.00  0.00     0.172 A 
ATOM      3  N2  <0> d           3.547   1.691   2.477  0.00  0.00    -0.128 NA
ATOM      4  N3  <0> d           3.098   2.895   2.488  0.00  0.00    -0.122 NA
ATOM      5  C7  <0> d           1.784   2.888   2.500  0.00  0.00     0.193 A 
ENDROOT
BRANCH   5   6
ATOM      6  S1  <0> d           0.731   4.300   2.517  0.00  0.00    -0.081 SA
BRANCH   6   7
ATOM      7  C8  <0> d           1.973   5.617   2.513  0.00  0.00     0.185 C 
BRANCH   7   8
ATOM      8  C9  <0> d           1.284   6.957   2.526  0.00  0.00     0.235 C 
ATOM      9  O2  <0> d           0.073   7.016   2.537  0.00  0.00    -0.272 OA
ATOM     10  N4  <0> d           2.013   8.091   2.526  0.00  0.00    -0.279 N 
ATOM     11  C10 <0> d           1.397   9.289   2.538  0.00  0.00     0.322 C 
ATOM     12  H11 <0> d           2.982   8.044   2.517  0.00  0.00     0.173 HD
ATOM     13  O3  <0> d           0.183   9.348   2.549  0.00  0.00    -0.247 OA
ATOM     14  N5  <0> d           2.126  10.422   2.538  0.00  0.00    -0.347 N 
ATOM     15  C11 <0> d           1.456  11.725   2.551  0.00  0.00     0.151 C 
ATOM     16  H12 <0> d           3.095  10.375   2.529  0.00  0.00     0.163 HD
ENDBRANCH   7   8
ENDBRANCH   6   7
ENDBRANCH   5   6
BRANCH   1  17
ATOM     17  C4  <0> d           0.011   1.072   2.506  0.00  0.00     0.198 C 
BRANCH  17  18
ATOM     18  C2  <0> d          -0.729   1.579   1.267  0.00  0.00     0.011 C 
ATOM     19  C1  <0> d          -0.013   1.086   0.008  0.00  0.00     0.012 C 
ATOM     20  C3  <0> d          -2.164   1.050   1.278  0.00  0.00     0.012 C 
ENDBRANCH  17  18
BRANCH  17  21
ATOM     21  C5  <0> d          -0.694   1.558   3.746  0.00  0.00     0.197 C 
ATOM     22  O1  <0> d          -1.687   2.240   3.648  0.00  0.00    -0.646 OA
ATOM     23  O4  <0> d          -0.220   1.234   4.959  0.00  0.00    -0.646 OA
ENDBRANCH  17  21
ENDBRANCH   1  17
BRANCH   2  24
ATOM     24  C12 <0> d           2.647  -0.630   2.484  0.00  0.00     0.052 A 
ATOM     25  S2  <0> d           1.394  -1.845   2.858  0.00  0.00    -0.098 SA
ATOM     26  C15 <0> d           2.379  -3.312   2.604  0.00  0.00     0.050 A 
ATOM     27  C14 <0> d           3.586  -2.789   2.263  0.00  0.00     0.009 A 
ATOM     28  C13 <0> d           3.731  -1.422   2.199  0.00  0.00     0.023 A 
ENDBRANCH   2  24
TORSDOF 7
