REMARK  5 active torsions:
REMARK  status: ('A' for Active; 'I' for Inactive)
REMARK    1  A    between atoms: C6_8  and  C9_12 
REMARK    2  A    between atoms: C9_12  and  S1_13 
REMARK    3  A    between atoms: S1_13  and  C10_14 
REMARK    4  A    between atoms: C11_17  and  N5_19 
REMARK       I    between atoms: N5_19  and  C12_20 
REMARK    5  A    between atoms: C12_20  and  C13_22 
ROOT
ATOM      1  S1  <0> d           1.306  -4.627  -1.317  0.00  0.00    -0.099 SA
ENDROOT
BRANCH   1   2
ATOM      2  C9  <0> d           2.752  -3.533  -1.278  0.00  0.00     0.116 C 
BRANCH   2   3
ATOM      3  C6  <0> d           2.683  -2.640  -0.038  0.00  0.00     0.184 A 
ATOM      4  C5  <0> d           3.903  -1.747  -0.045  0.00  0.00     0.245 A 
ATOM      5  N1  <0> d           3.739  -0.422  -0.036  0.00  0.00    -0.323 N 
ATOM      6  O1  <0> d           5.019  -2.228  -0.058  0.00  0.00    -0.271 OA
ATOM      7  C4  <0> d           2.536   0.127  -0.022  0.00  0.00     0.061 A 
ATOM      8  H13 <0> d           4.521   0.152  -0.041  0.00  0.00     0.169 HD
ATOM      9  C3  <0> d           2.398   1.533  -0.013  0.00  0.00     0.032 A 
ATOM     10  C7  <0> d           1.301  -0.697  -0.014  0.00  0.00     0.055 A 
ATOM     11  C2  <0> d           1.169   2.101   0.002  0.00  0.00     0.002 A 
ATOM     12  C1  <0> d          -0.016   1.347   0.009  0.00  0.00     0.002 A 
ATOM     13  C8  <0> d           0.002  -0.004   0.002  0.00  0.00     0.031 A 
ATOM     14  N2  <0> d           1.360  -1.997  -0.022  0.00  0.00    -0.374 N 
ATOM     15  H12 <0> d           0.550  -2.531  -0.017  0.00  0.00     0.160 HD
ENDBRANCH   2   3
ENDBRANCH   1   2
BRANCH   1  16
ATOM     16  C10 <0> d           1.530  -5.579  -2.783  0.00  0.00     0.160 A 
ATOM     17  S2  <0> d           0.494  -6.863  -3.468  0.00  0.00    -0.022 SA
ATOM     18  C11 <0> d           1.488  -7.224  -4.908  0.00  0.00     0.197 A 
ATOM     19  N4  <0> d           2.488  -6.380  -4.753  0.00  0.00    -0.122 NA
ATOM     20  N3  <0> d           2.511  -5.537  -3.665  0.00  0.00    -0.133 NA
BRANCH  18  21
ATOM     21  N5  <0> d           1.267  -8.153  -5.920  0.00  0.00    -0.298 N 
ATOM     22  C12 <0> d           2.154  -8.275  -6.928  0.00  0.00     0.281 C 
ATOM     23  O2  <0> d           3.148  -7.573  -6.952  0.00  0.00    -0.265 OA
ATOM     24  H8  <0> d           0.475  -8.713  -5.901  0.00  0.00     0.171 HD
BRANCH  22  25
ATOM     25  C13 <0> d           1.922  -9.254  -7.994  0.00  0.00     0.142 A 
ATOM     26  O3  <0> d           0.867 -10.090  -8.087  0.00  0.00    -0.317 OA
ATOM     27  C16 <0> d           0.988 -10.838  -9.192  0.00  0.00     0.143 A 
ATOM     28  C15 <0> d           2.133 -10.497  -9.824  0.00  0.00     0.027 A 
ATOM     29  C14 <0> d           2.738  -9.483  -9.065  0.00  0.00     0.045 A 
ENDBRANCH  22  25
ENDBRANCH  18  21
ENDBRANCH   1  16
TORSDOF 5
