REMARK  5 active torsions:
REMARK  status: ('A' for Active; 'I' for Inactive)
REMARK    1  A    between atoms: N1_2  and  C3_4 
REMARK    2  A    between atoms: C3_4  and  C4_5 
REMARK    3  A    between atoms: C5_6  and  O3_27 
REMARK    4  A    between atoms: C11_14  and  C13_16 
REMARK    5  A    between atoms: C14_18  and  C16_21 
ROOT
ATOM      1  C4  <0> d          -1.359  -2.014  -0.120  0.00  0.00     0.035 A 
ATOM      2  C5  <0> d          -1.393  -2.601  -1.375  0.00  0.00     0.076 A 
ATOM      3  C6  <0> d          -1.370  -3.989  -1.506  0.00  0.00     0.038 A 
ATOM      4  C7  <0> d          -1.329  -4.788  -0.401  0.00  0.00     0.017 A 
ATOM      5  C8  <0> d          -1.319  -4.212   0.878  0.00  0.00    -0.000 A 
ATOM      6  C9  <0> d          -1.303  -2.810   1.013  0.00  0.00     0.100 A 
ATOM      7  O1  <0> d          -1.218  -2.247   2.242  0.00  0.00    -0.273 OA
ATOM      8  C10 <0> d          -1.704  -2.967   3.280  0.00  0.00     0.301 C 
ATOM      9  O2  <0> d          -2.306  -2.430   4.191  0.00  0.00    -0.259 OA
ATOM     10  C11 <0> d          -1.478  -4.423   3.268  0.00  0.00     0.076 C 
ATOM     11  C12 <0> d          -1.310  -5.031   2.036  0.00  0.00     0.034 C 
ENDROOT
BRANCH  10  12
ATOM     12  C13 <0> d          -1.445  -5.203   4.520  0.00  0.00     0.114 A 
ATOM     13  S1  <0> d          -1.191  -6.957   4.753  0.00  0.00    -0.079 SA
ATOM     14  C15 <0> d          -1.310  -6.964   6.538  0.00  0.00     0.084 A 
ATOM     15  C14 <0> d          -1.539  -5.635   6.782  0.00  0.00     0.075 A 
ATOM     16  N2  <0> d          -1.600  -4.791   5.769  0.00  0.00    -0.239 NA
BRANCH  15  17
ATOM     17  C16 <0> d          -1.716  -5.150   8.173  0.00  0.00    -0.007 A 
ATOM     18  C21 <0> d          -1.948  -3.798   8.418  0.00  0.00     0.014 A 
ATOM     19  C20 <0> d          -2.118  -3.353   9.713  0.00  0.00     0.001 A 
ATOM     20  C19 <0> d          -2.046  -4.245  10.768  0.00  0.00     0.000 A 
ATOM     21  C18 <0> d          -1.810  -5.587  10.532  0.00  0.00     0.001 A 
ATOM     22  C17 <0> d          -1.644  -6.044   9.240  0.00  0.00     0.014 A 
ENDBRANCH  15  17
ENDBRANCH  10  12
BRANCH   1  23
ATOM     23  C3  <0> d          -1.376  -0.512   0.012  0.00  0.00     0.278 C 
BRANCH  23  24
ATOM     24  N1  <0> d           0.002  -0.004   0.002  0.00  0.00    -0.075 N 
ATOM     25  C1  <0> d          -0.018   1.465   0.010  0.00  0.00     0.269 C 
ATOM     26  C2  <0> d           0.713  -0.491   1.192  0.00  0.00     0.269 C 
ATOM     27  H19 <0> d           0.474  -0.330  -0.828  0.00  0.00     0.279 HD
ENDBRANCH  23  24
ENDBRANCH   1  23
BRANCH   2  28
ATOM     28  O3  <0> d          -1.448  -1.820  -2.483  0.00  0.00    -0.360 OA
ATOM     29  H18 <0> d          -0.581  -1.577  -2.837  0.00  0.00     0.217 HD
ENDBRANCH   2  28
TORSDOF 5
