REMARK  3 active torsions:
REMARK  status: ('A' for Active; 'I' for Inactive)
REMARK    1  A    between atoms: C3_3  and  C7_9 
REMARK    2  A    between atoms: C4_4  and  O1_8 
REMARK       I    between atoms: C7_9  and  N1_11 
REMARK    3  A    between atoms: N1_11  and  C8_12 
ROOT
ATOM      1  C7  <0> d           3.652   2.171  -0.022  0.00  0.00     0.260 C 
ATOM      2  O2  <0> d           4.713   1.577  -0.035  0.00  0.00    -0.267 OA
ATOM      3  N1  <0> d           3.633   3.518  -0.015  0.00  0.00    -0.301 N 
ATOM      4  H5  <0> d           2.786   3.991  -0.004  0.00  0.00     0.171 HD
ENDROOT
BRANCH   3   5
ATOM      5  C8  <0> d           4.826   4.229  -0.023  0.00  0.00     0.174 A 
ATOM      6  S1  <0> d           5.049   5.901  -0.017  0.00  0.00    -0.053 SA
ATOM      7  C10 <0> d           6.818   5.897  -0.031  0.00  0.00     0.036 A 
ATOM      8  C9  <0> d           7.110   4.568  -0.049  0.00  0.00     0.053 A 
ATOM      9  C11 <0> d           7.789   7.026  -0.027  0.00  0.00     0.280 C 
ATOM     10  N2  <0> d           6.056   3.762  -0.043  0.00  0.00    -0.228 NA
ATOM     11  C13 <0> d           8.566   4.123  -0.078  0.00  0.00     0.088 C 
ATOM     12  C12 <0> d           9.416   5.322  -0.511  0.00  0.00     0.238 C 
ATOM     13  N3  <0> d           9.118   6.491   0.327  0.00  0.00    -0.070 N 
ATOM     14  H8  <0> d           9.818   7.202   0.174  0.00  0.00     0.277 HD
ATOM     15  H13 <0> d           9.123   6.218   1.298  0.00  0.00     0.277 HD
ENDBRANCH   3   5
BRANCH   1  16
ATOM     16  C3  <0> d           2.385   1.415  -0.013  0.00  0.00     0.065 A 
ATOM     17  C2  <0> d           1.163   2.093   0.002  0.00  0.00     0.021 A 
ATOM     18  C1  <0> d          -0.017   1.382   0.010  0.00  0.00     0.020 A 
ATOM     19  C6  <0> d           0.002  -0.004   0.002  0.00  0.00     0.013 A 
ATOM     20  C5  <0> d           1.204  -0.687  -0.013  0.00  0.00     0.056 A 
ATOM     21 Br1  <0> d          -1.626  -0.967   0.012  0.00  0.00    -0.051 Br
ATOM     22  C4  <0> d           2.400   0.013  -0.021  0.00  0.00     0.082 A 
BRANCH  22  23
ATOM     23  O1  <0> d           3.581  -0.655  -0.036  0.00  0.00    -0.360 OA
ATOM     24  H4  <0> d           3.932  -0.854   0.843  0.00  0.00     0.217 HD
ENDBRANCH  22  23
ENDBRANCH   1  16
TORSDOF 3
