REMARK  5 active torsions:
REMARK  status: ('A' for Active; 'I' for Inactive)
REMARK    1  A    between atoms: C5_5  and  S2_22 
REMARK    2  A    between atoms: C6_6  and  N1_8 
REMARK       I    between atoms: N1_8  and  C8_9 
REMARK    3  A    between atoms: C8_9  and  C9_11 
REMARK       I    between atoms: C9_11  and  N2_13 
REMARK    4  A    between atoms: N2_13  and  C10_14 
REMARK    5  A    between atoms: C10_14  and  C12_16 
ROOT
ATOM      1  N1  <0> d           0.051  -2.797   2.391  0.00  0.00    -0.318 N 
ATOM      2  C8  <0> d           0.149  -2.134   3.560  0.00  0.00     0.314 C 
ATOM      3  O1  <0> d           0.134  -0.921   3.573  0.00  0.00    -0.262 OA
ATOM      4  H8  <0> d          -0.003  -3.765   2.385  0.00  0.00     0.169 HD
ENDROOT
BRANCH   2   5
ATOM      5  C9  <0> d           0.278  -2.893   4.840  0.00  0.00     0.310 C 
ATOM      6  O2  <0> d           0.293  -4.107   4.827  0.00  0.00    -0.262 OA
ATOM      7  N2  <0> d           0.376  -2.231   6.010  0.00  0.00    -0.344 N 
ATOM      8  H9  <0> d           0.363  -1.261   6.020  0.00  0.00     0.163 HD
BRANCH   7   9
ATOM      9  C10 <0> d           0.502  -2.975   7.265  0.00  0.00     0.121 C 
ATOM     10  C11 <0> d           1.972  -3.322   7.507  0.00  0.00     0.038 C 
BRANCH   9  11
ATOM     11  C12 <0> d          -0.009  -2.130   8.403  0.00  0.00     0.005 A 
ATOM     12  S1  <0> d           0.205  -0.381   8.688  0.00  0.00    -0.098 SA
ATOM     13  C15 <0> d          -0.708  -0.262  10.218  0.00  0.00    -0.021 A 
ATOM     14  C14 <0> d          -1.102  -1.544  10.410  0.00  0.00     0.015 A 
ATOM     15  C16 <0> d          -0.968   0.949  11.077  0.00  0.00     0.056 C 
ATOM     16  C13 <0> d          -0.744  -2.502   9.480  0.00  0.00     0.018 A 
ENDBRANCH   9  11
ENDBRANCH   7   9
ENDBRANCH   2   5
BRANCH   1  17
ATOM     17  C6  <0> d           0.027  -2.089   1.186  0.00  0.00     0.057 A 
ATOM     18  C5  <0> d           0.630  -2.621   0.054  0.00  0.00     0.085 A 
ATOM     19  C4  <0> d           0.604  -1.918  -1.135  0.00  0.00     0.026 A 
ATOM     20  C3  <0> d          -0.022  -0.687  -1.199  0.00  0.00     0.008 A 
ATOM     21  C2  <0> d          -0.624  -0.155  -0.073  0.00  0.00    -0.060 A 
ATOM     22  C1  <0> d          -1.304   1.188  -0.148  0.00  0.00     0.048 C 
ATOM     23  C7  <0> d          -0.596  -0.849   1.120  0.00  0.00     0.038 A 
BRANCH  18  24
ATOM     24  S2  <0> d           1.427  -4.190   0.134  0.00  0.00     0.174 S 
ATOM     25  O3  <0> d           0.467  -5.055   0.724  0.00  0.00    -0.223 OA
ATOM     26  O4  <0> d           1.900  -4.425  -1.186  0.00  0.00    -0.223 OA
ATOM     27  C17 <0> d           2.825  -3.946   1.264  0.00  0.00     0.167 C 
ENDBRANCH  18  24
ENDBRANCH   1  17
TORSDOF 5
