REMARK  8 active torsions:
REMARK  status: ('A' for Active; 'I' for Inactive)
REMARK    1  A    between atoms: O1_2  and  C2_3 
REMARK    2  A    between atoms: C6_7  and  C12_17 
REMARK    3  A    between atoms: C8_11  and  O3_15 
REMARK    4  A    between atoms: C9_12  and  O2_13 
REMARK       I    between atoms: C12_17  and  N2_19 
REMARK    5  A    between atoms: N2_19  and  C13_20 
REMARK    6  A    between atoms: C13_20  and  C14_21 
REMARK    7  A    between atoms: C14_21  and  C15_22 
REMARK       I    between atoms: C15_22  and  N3_24 
REMARK    8  A    between atoms: N3_24  and  C16_25 
ROOT
ATOM      1  C12 <0> d          -7.227  -1.144   0.053  0.00  0.00     0.268 C 
ATOM      2  O4  <0> d          -7.809  -0.076   0.058  0.00  0.00    -0.266 OA
ATOM      3  N2  <0> d          -7.930  -2.295   0.057  0.00  0.00    -0.355 N 
ATOM      4  H13 <0> d          -7.465  -3.146   0.052  0.00  0.00     0.162 HD
ENDROOT
BRANCH   3   5
ATOM      5  C13 <0> d          -9.394  -2.258   0.067  0.00  0.00     0.132 C 
BRANCH   5   6
ATOM      6  C14 <0> d          -9.940  -3.688   0.070  0.00  0.00     0.122 C 
BRANCH   6   7
ATOM      7  C15 <0> d         -11.446  -3.651   0.081  0.00  0.00     0.222 C 
ATOM      8  O5  <0> d         -12.026  -2.586   0.086  0.00  0.00    -0.273 OA
ATOM      9  N3  <0> d         -12.148  -4.801   0.085  0.00  0.00    -0.323 N 
ATOM     10  H18 <0> d         -11.684  -5.653   0.080  0.00  0.00     0.166 HD
BRANCH   9  11
ATOM     11  C16 <0> d         -13.613  -4.765   0.096  0.00  0.00     0.291 A 
ATOM     12  N5  <0> d         -14.152  -6.084  -0.259  0.00  0.00    -0.351 N 
ATOM     13  C22 <0> d         -14.859  -6.502   0.751  0.00  0.00     0.057 A 
ATOM     14  H25 <0> d         -14.008  -6.557  -1.093  0.00  0.00     0.163 HD
ATOM     15  C17 <0> d         -14.825  -5.479   1.833  0.00  0.00     0.057 A 
ATOM     16  C21 <0> d         -15.631  -7.728   0.992  0.00  0.00     0.031 A 
ATOM     17  N4  <0> d         -14.100  -4.469   1.449  0.00  0.00    -0.351 N 
ATOM     18  C18 <0> d         -15.568  -5.763   3.068  0.00  0.00     0.031 A 
ATOM     19  H24 <0> d         -13.914  -3.667   1.963  0.00  0.00     0.163 HD
ATOM     20  C19 <0> d         -16.246  -6.922   3.185  0.00  0.00     0.002 A 
ATOM     21  C20 <0> d         -16.277  -7.889   2.164  0.00  0.00     0.002 A 
ENDBRANCH   9  11
ENDBRANCH   6   7
ENDBRANCH   5   6
ENDBRANCH   3   5
BRANCH   1  22
ATOM     22  C6  <0> d          -5.759  -1.180   0.042  0.00  0.00     0.102 A 
ATOM     23  C5  <0> d          -4.943  -0.092   0.037  0.00  0.00     0.049 A 
ATOM     24  C4  <0> d          -3.606  -0.554   0.027  0.00  0.00    -0.001 A 
ATOM     25  C3  <0> d          -2.364   0.100   0.019  0.00  0.00     0.053 A 
ATOM     26  C7  <0> d          -3.655  -1.961   0.026  0.00  0.00     0.080 A 
ATOM     27  C2  <0> d          -1.202  -0.638   0.010  0.00  0.00     0.105 A 
ATOM     28  C9  <0> d          -1.251  -2.034   0.003  0.00  0.00     0.137 A 
ATOM     29  C8  <0> d          -2.469  -2.693   0.016  0.00  0.00     0.132 A 
ATOM     30  N1  <0> d          -4.985  -2.326   0.035  0.00  0.00    -0.349 N 
ATOM     31  H1  <0> d          -5.322  -3.236   0.035  0.00  0.00     0.166 HD
BRANCH  27  32
ATOM     32  O1  <0> d           0.002  -0.004   0.002  0.00  0.00    -0.353 OA
ATOM     33  C1  <0> d          -0.017   1.425   0.010  0.00  0.00     0.210 C 
ENDBRANCH  27  32
BRANCH  28  34
ATOM     34  O2  <0> d          -0.095  -2.751  -0.012  0.00  0.00    -0.351 OA
ATOM     35  C10 <0> d           0.468  -3.100   1.254  0.00  0.00     0.210 C 
ENDBRANCH  28  34
BRANCH  29  36
ATOM     36  O3  <0> d          -2.507  -4.054   0.015  0.00  0.00    -0.351 OA
ATOM     37  C11 <0> d          -2.535  -4.700  -1.260  0.00  0.00     0.210 C 
ENDBRANCH  29  36
ENDBRANCH   1  22
TORSDOF 8
