REMARK  8 active torsions:
REMARK  status: ('A' for Active; 'I' for Inactive)
REMARK    1  A    between atoms: O1_2  and  C2_3 
REMARK    2  A    between atoms: C2_3  and  C3_4 
REMARK    3  A    between atoms: C4_5  and  N1_11 
REMARK    4  A    between atoms: N1_11  and  C9_12 
REMARK    5  A    between atoms: C9_12  and  C10_13 
REMARK    6  A    between atoms: C10_13  and  C11_14 
REMARK    7  A    between atoms: C10_13  and  O3_21 
REMARK    8  A    between atoms: C11_14  and  N2_15 
ROOT
ATOM      1  N1  <0> d          -1.450  -2.118   2.230  0.00  0.00    -0.387 N 
ATOM      2  H10 <0> d          -1.426  -1.151   2.303  0.00  0.00     0.159 HD
ENDROOT
BRANCH   1   3
ATOM      3  C4  <0> d          -0.424  -2.795   1.567  0.00  0.00     0.037 A 
ATOM      4  C3  <0> d           0.633  -2.085   1.012  0.00  0.00     0.009 A 
ATOM      5  C8  <0> d           1.645  -2.757   0.354  0.00  0.00     0.021 A 
ATOM      6  C7  <0> d           1.611  -4.137   0.256  0.00  0.00     0.020 A 
ATOM      7 Br1  <0> d           3.080  -1.791  -0.409  0.00  0.00    -0.050 Br
ATOM      8  C6  <0> d           0.560  -4.846   0.807  0.00  0.00     0.004 A 
ATOM      9  C5  <0> d          -0.457  -4.180   1.463  0.00  0.00     0.030 A 
BRANCH   4  10
ATOM     10  C2  <0> d           0.673  -0.582   1.123  0.00  0.00     0.209 C 
BRANCH  10  11
ATOM     11  O1  <0> d           0.002  -0.004   0.002  0.00  0.00    -0.391 OA
ATOM     12  C1  <0> d          -0.017   1.425   0.010  0.00  0.00     0.201 C 
ENDBRANCH  10  11
ENDBRANCH   4  10
ENDBRANCH   1   3
BRANCH   1  13
ATOM     13  C9  <0> d          -2.564  -2.869   2.814  0.00  0.00     0.153 C 
BRANCH  13  14
ATOM     14  C10 <0> d          -3.543  -1.897   3.475  0.00  0.00     0.164 C 
BRANCH  14  15
ATOM     15  C11 <0> d          -4.640  -2.686   4.193  0.00  0.00     0.305 C 
BRANCH  15  16
ATOM     16  N2  <0> d          -5.580  -1.752   4.827  0.00  0.00     0.095 N 
ATOM     17  C15 <0> d          -6.771  -2.458   5.322  0.00  0.00     0.298 C 
ATOM     18  C14 <0> d          -7.748  -1.443   5.921  0.00  0.00     0.198 C 
ATOM     19  O2  <0> d          -7.088  -0.705   6.953  0.00  0.00    -0.388 OA
ATOM     20  C13 <0> d          -5.924  -0.005   6.506  0.00  0.00     0.198 C 
ATOM     21  C12 <0> d          -4.929  -1.006   5.913  0.00  0.00     0.298 C 
ENDBRANCH  15  16
ENDBRANCH  14  15
BRANCH  14  22
ATOM     22  O3  <0> d          -4.133  -1.062   2.477  0.00  0.00    -0.392 OA
ATOM     23  H23 <0> d          -4.625  -1.546   1.800  0.00  0.00     0.210 HD
ENDBRANCH  14  22
ENDBRANCH  13  14
ENDBRANCH   1  13
TORSDOF 8
