REMARK  4 active torsions:
REMARK  status: ('A' for Active; 'I' for Inactive)
REMARK    1  A    between atoms: C2_2  and  C4_4 
REMARK    2  A    between atoms: C7_7  and  C10_10 
REMARK    3  A    between atoms: C10_10  and  N1_11 
REMARK    4  A    between atoms: N1_11  and  C11_12 
ROOT
ATOM      1  N1  <0> d           3.724  -0.888  -5.154  0.00  0.00    -0.063 N 
ATOM      2  H15 <0> d           3.349   0.018  -5.393  0.00  0.00     0.278 HD
ATOM      3  H26 <0> d           4.329  -0.800  -4.351  0.00  0.00     0.278 HD
ENDROOT
BRANCH   1   4
ATOM      4  C10 <0> d           2.621  -1.806  -4.839  0.00  0.00     0.271 C 
BRANCH   4   5
ATOM      5  C7  <0> d           1.759  -1.203  -3.760  0.00  0.00    -0.033 A 
ATOM      6  C6  <0> d           0.686  -0.401  -4.100  0.00  0.00     0.009 A 
ATOM      7  C5  <0> d          -0.105   0.151  -3.110  0.00  0.00     0.008 A 
ATOM      8  C4  <0> d           0.176  -0.100  -1.780  0.00  0.00    -0.055 A 
ATOM      9  C9  <0> d           1.252  -0.899  -1.440  0.00  0.00     0.008 A 
ATOM     10  C8  <0> d           2.041  -1.454  -2.430  0.00  0.00     0.009 A 
BRANCH   8  11
ATOM     11  C2  <0> d          -0.687   0.501  -0.701  0.00  0.00     0.010 C 
ATOM     12  C1  <0> d          -0.650   2.027  -0.809  0.00  0.00     0.015 C 
ATOM     13  C3  <0> d          -2.127   0.013  -0.868  0.00  0.00     0.015 C 
ENDBRANCH   8  11
ENDBRANCH   4   5
ENDBRANCH   1   4
BRANCH   1  14
ATOM     14  C11 <0> d           4.491  -1.416  -6.290  0.00  0.00     0.222 C 
ATOM     15  C16 <0> d           5.538  -0.412  -6.707  0.00  0.00     0.016 A 
ATOM     16  C15 <0> d           6.822  -0.734  -7.011  0.00  0.00     0.040 A 
ATOM     17  C17 <0> d           5.393   0.966  -6.850  0.00  0.00     0.150 A 
ATOM     18  C14 <0> d           7.373  -2.137  -6.978  0.00  0.00     0.059 C 
ATOM     19  N3  <0> d           7.465   0.401  -7.332  0.00  0.00    -0.278 N 
ATOM     20  C13 <0> d           6.196  -3.119  -6.966  0.00  0.00     0.008 C 
ATOM     21  C12 <0> d           5.200  -2.711  -5.877  0.00  0.00     0.038 C 
ATOM     22  N2  <0> d           6.547   1.459  -7.227  0.00  0.00    -0.184 NA
ATOM     23  C18 <0> d           8.872   0.514  -7.724  0.00  0.00     0.179 C 
ENDBRANCH   1  14
TORSDOF 4
