REMARK  5 active torsions:
REMARK  status: ('A' for Active; 'I' for Inactive)
REMARK    1  A    between atoms: C4_4  and  C7_7 
REMARK       I    between atoms: N1_10  and  C12_13 
REMARK    2  A    between atoms: C12_13  and  C13_15 
REMARK    3  A    between atoms: C13_15  and  N2_16 
REMARK    4  A    between atoms: C15_19  and  C17_23 
REMARK    5  A    between atoms: C17_23  and  C18_24 
ROOT
ATOM      1  N2  <0> d           7.474  -5.177   1.597  0.00  0.00    -0.260 N 
ATOM      2  C14 <0> d           6.728  -6.283   1.792  0.00  0.00     0.251 A 
ATOM      3  O2  <0> d           5.538  -6.333   2.015  0.00  0.00    -0.271 OA
ATOM      4  C15 <0> d           7.688  -7.450   1.673  0.00  0.00     0.183 A 
ATOM      5  N3  <0> d           8.984  -6.807   1.400  0.00  0.00    -0.329 N 
ATOM      6  C16 <0> d           8.757  -5.481   1.369  0.00  0.00     0.326 A 
ATOM      7  O3  <0> d           9.621  -4.652   1.161  0.00  0.00    -0.247 OA
ATOM      8  H16 <0> d           9.835  -7.252   1.265  0.00  0.00     0.165 HD
ENDROOT
BRANCH   1   9
ATOM      9  C13 <0> d           6.944  -3.812   1.625  0.00  0.00     0.239 C 
BRANCH   9  10
ATOM     10  C12 <0> d           6.498  -3.417   0.240  0.00  0.00     0.238 C 
ATOM     11  N1  <0> d           5.973  -2.195   0.024  0.00  0.00    -0.347 N 
ATOM     12  C9  <0> d           5.823  -1.224   1.117  0.00  0.00     0.153 C 
ATOM     13  C10 <0> d           5.529  -1.779  -1.317  0.00  0.00     0.130 C 
ATOM     14  C8  <0> d           4.476  -0.564   1.008  0.00  0.00     0.001 C 
ATOM     15  C7  <0> d           3.695  -0.685  -0.038  0.00  0.00    -0.049 C 
ATOM     16  C11 <0> d           4.021  -1.508  -1.249  0.00  0.00     0.059 C 
ATOM     17  O1  <0> d           6.612  -4.200  -0.679  0.00  0.00    -0.272 OA
BRANCH  15  18
ATOM     18  C4  <0> d           2.403   0.034  -0.021  0.00  0.00    -0.030 A 
ATOM     19  C3  <0> d           2.377   1.429  -0.013  0.00  0.00     0.012 A 
ATOM     20  C2  <0> d           1.168   2.093   0.002  0.00  0.00     0.001 A 
ATOM     21  C1  <0> d          -0.017   1.379   0.010  0.00  0.00     0.000 A 
ATOM     22  C6  <0> d           0.002  -0.004   0.002  0.00  0.00     0.001 A 
ATOM     23  C5  <0> d           1.204  -0.681  -0.013  0.00  0.00     0.012 A 
ENDBRANCH  15  18
ENDBRANCH   9  10
ENDBRANCH   1   9
BRANCH   4  24
ATOM     24  C17 <0> d           7.282  -8.365   0.515  0.00  0.00     0.071 C 
BRANCH  24  25
ATOM     25  C18 <0> d           8.176  -9.578   0.497  0.00  0.00    -0.048 A 
ATOM     26  C25 <0> d           9.535  -9.696  -0.156  0.00  0.00     0.155 A 
ATOM     27  N4  <0> d           9.991 -11.065   0.109  0.00  0.00    -0.385 N 
ATOM     28  C24 <0> d           9.066 -11.688   0.799  0.00  0.00     0.038 A 
ATOM     29  H25 <0> d          10.834 -11.447  -0.181  0.00  0.00     0.160 HD
ATOM     30  C19 <0> d           7.922 -10.784   1.055  0.00  0.00    -0.006 A 
ATOM     31  C23 <0> d           8.996 -13.013   1.309  0.00  0.00     0.030 A 
ATOM     32  C20 <0> d           6.783 -11.306   1.819  0.00  0.00     0.014 A 
ATOM     33  C21 <0> d           6.818 -12.584   2.259  0.00  0.00     0.001 A 
ATOM     34  C22 <0> d           7.913 -13.421   2.004  0.00  0.00     0.002 A 
ENDBRANCH  24  25
ENDBRANCH   4  24
TORSDOF 5
