REMARK  3 active torsions:
REMARK  status: ('A' for Active; 'I' for Inactive)
REMARK    1  A    between atoms: N2_4  and  C4_6 
REMARK    2  A    between atoms: C9_11  and  N3_12 
REMARK       I    between atoms: N3_12  and  C10_13 
REMARK    3  A    between atoms: C10_13  and  C11_15 
ROOT
ATOM      1  C4  <0> d           1.868  -1.827  -0.614  0.00  0.00     0.084 A 
ATOM      2  C5  <0> d           0.930  -2.844  -0.514  0.00  0.00     0.036 A 
ATOM      3  C6  <0> d           1.273  -4.046   0.074  0.00  0.00     0.026 A 
ATOM      4  C7  <0> d           2.552  -4.240   0.566  0.00  0.00     0.036 A 
ATOM      5  C8  <0> d           3.494  -3.232   0.470  0.00  0.00     0.056 A 
ATOM      6  C9  <0> d           3.159  -2.024  -0.124  0.00  0.00     0.065 A 
ATOM      7 Cl1  <0> d           2.976  -5.753   1.304  0.00  0.00    -0.084 Cl
ENDROOT
BRANCH   6   8
ATOM      8  N3  <0> d           4.112  -1.004  -0.228  0.00  0.00    -0.325 N 
ATOM      9  C10 <0> d           5.407  -1.311  -0.436  0.00  0.00     0.227 C 
ATOM     10  O1  <0> d           5.734  -2.463  -0.631  0.00  0.00    -0.273 OA
ATOM     11  H8  <0> d           3.840  -0.076  -0.149  0.00  0.00     0.169 HD
BRANCH   9  12
ATOM     12  C11 <0> d           6.450  -0.223  -0.428  0.00  0.00     0.093 C 
ATOM     13  C14 <0> d           7.840  -0.842  -0.714  0.00  0.00     0.154 C 
ATOM     14  S1  <0> d           8.971   0.246   0.244  0.00  0.00     0.145 S 
ATOM     15  C13 <0> d           7.731   1.355   1.036  0.00  0.00     0.141 C 
ATOM     16  O2  <0> d           9.610  -0.526   1.252  0.00  0.00    -0.228 OA
ATOM     17  O3  <0> d           9.761   1.006  -0.660  0.00  0.00    -0.228 OA
ATOM     18  C12 <0> d           6.457   0.467   0.946  0.00  0.00     0.030 C 
ENDBRANCH   9  12
ENDBRANCH   6   8
BRANCH   1  19
ATOM     19  N2  <0> d           1.521  -0.606  -1.210  0.00  0.00    -0.243 N 
ATOM     20  N1  <0> d           2.335   0.531  -1.294  0.00  0.00    -0.180 NA
ATOM     21  C2  <0> d           1.666   1.468  -1.919  0.00  0.00     0.140 A 
ATOM     22  C1  <0> d           0.407   0.958  -2.252  0.00  0.00     0.040 A 
ATOM     23  C3  <0> d           0.342  -0.318  -1.806  0.00  0.00     0.120 A 
ENDBRANCH   1  19
TORSDOF 3
