REMARK  4 active torsions:
REMARK  status: ('A' for Active; 'I' for Inactive)
REMARK    1  A    between atoms: C4_5  and  C5_6 
REMARK    2  A    between atoms: C5_6  and  N1_7 
REMARK    3  A    between atoms: N1_7  and  C6_8 
REMARK    4  A    between atoms: C6_8  and  C7_9 
ROOT
ATOM      1  N1  <0> d          -1.615  -1.186  -1.373  0.00  0.00    -0.067 N 
ATOM      2  H6  <0> d          -1.841  -0.322  -1.842  0.00  0.00     0.277 HD
ATOM      3  H15 <0> d          -0.859  -1.645  -1.859  0.00  0.00     0.277 HD
ENDROOT
BRANCH   1   4
ATOM      4  C5  <0> d          -1.208  -0.902   0.009  0.00  0.00     0.297 C 
BRANCH   4   5
ATOM      5  C4  <0> d           0.002  -0.004   0.002  0.00  0.00     0.080 A 
ATOM      6  C1  <0> d          -0.016   1.341   0.009  0.00  0.00     0.037 A 
ATOM      7  C2  <0> d           1.331   1.769  -0.001  0.00  0.00     0.046 A 
ATOM      8  C3  <0> d           2.093   0.659  -0.014  0.00  0.00     0.117 A 
ATOM      9  O1  <0> d           1.282  -0.411  -0.012  0.00  0.00    -0.307 OA
ATOM     10  I1  <0> d           4.187   0.611  -0.035  0.00  0.00    -0.016 I 
ENDBRANCH   4   5
ENDBRANCH   1   4
BRANCH   1  11
ATOM     11  C6  <0> d          -2.795  -2.061  -1.366  0.00  0.00     0.266 C 
BRANCH  11  12
ATOM     12  C7  <0> d          -3.219  -2.357  -2.806  0.00  0.00     0.170 C 
ATOM     13  O3  <0> d          -2.195  -3.113  -3.460  0.00  0.00    -0.380 OA
ATOM     14  C10 <0> d          -2.525  -3.482  -4.803  0.00  0.00     0.194 C 
ATOM     15  C9  <0> d          -3.824  -4.293  -4.798  0.00  0.00     0.193 C 
ATOM     16  O2  <0> d          -4.848  -3.536  -4.144  0.00  0.00    -0.386 OA
ATOM     17  C8  <0> d          -4.518  -3.168  -2.801  0.00  0.00     0.201 C 
ENDBRANCH  11  12
ENDBRANCH   1  11
TORSDOF 4
