REMARK  4 active torsions:
REMARK  status: ('A' for Active; 'I' for Inactive)
REMARK    1  A    between atoms: C3_3  and  C7_10 
REMARK    2  A    between atoms: C7_10  and  N3_11 
REMARK    3  A    between atoms: C9_13  and  N4_17 
REMARK    4  A    between atoms: C10_14  and  O2_16 
ROOT
ATOM      1  N3  <0> d           4.155   2.456  -1.390  0.00  0.00    -0.062 N 
ATOM      2  C8  <0> d           5.399   3.266  -1.419  0.00  0.00     0.273 C 
ATOM      3  C9  <0> d           5.521   3.740  -2.883  0.00  0.00     0.279 C 
ATOM      4  C10 <0> d           4.082   3.699  -3.439  0.00  0.00     0.179 C 
ATOM      5  C11 <0> d           3.213   3.203  -2.264  0.00  0.00     0.269 C 
ATOM      6  H21 <0> d           4.323   1.533  -1.761  0.00  0.00     0.280 HD
ENDROOT
BRANCH   1   7
ATOM      7  C7  <0> d           3.628   2.372  -0.021  0.00  0.00     0.276 C 
BRANCH   7   8
ATOM      8  C3  <0> d           2.384   1.522  -0.013  0.00  0.00     0.001 A 
ATOM      9  C2  <0> d           1.163   2.104   0.002  0.00  0.00     0.011 A 
ATOM     10  C1  <0> d          -0.016   1.349   0.009  0.00  0.00     0.003 A 
ATOM     11  C6  <0> d           0.002  -0.004   0.002  0.00  0.00     0.036 A 
ATOM     12  C5  <0> d           1.244  -0.689  -0.013  0.00  0.00     0.118 A 
ATOM     13  C4  <0> d           2.487   0.107  -0.022  0.00  0.00     0.125 A 
ATOM     14  N1  <0> d           1.574  -1.960  -0.024  0.00  0.00    -0.103 NA
ATOM     15  N2  <0> d           3.503  -0.724  -0.037  0.00  0.00    -0.102 NA
ATOM     16  O1  <0> d           2.988  -2.044  -0.039  0.00  0.00    -0.106 OA
ENDBRANCH   7   8
ENDBRANCH   1   7
BRANCH   4  17
ATOM     17  O2  <0> d           4.001   2.789  -4.538  0.00  0.00    -0.392 OA
ATOM     18  H12 <0> d           3.119   2.721  -4.928  0.00  0.00     0.210 HD
ENDBRANCH   4  17
BRANCH   3  19
ATOM     19  N4  <0> d           6.050   5.110  -2.934  0.00  0.00     0.101 N 
ATOM     20  C15 <0> d           6.284   5.534  -4.322  0.00  0.00     0.299 C 
ATOM     21  C14 <0> d           6.889   6.940  -4.326  0.00  0.00     0.198 C 
ATOM     22  O3  <0> d           6.016   7.831  -3.627  0.00  0.00    -0.388 OA
ATOM     23  C13 <0> d           5.767   7.449  -2.272  0.00  0.00     0.198 C 
ATOM     24  C12 <0> d           5.150   6.048  -2.247  0.00  0.00     0.299 C 
ENDBRANCH   3  19
TORSDOF 4
