REMARK  4 active torsions:
REMARK  status: ('A' for Active; 'I' for Inactive)
REMARK    1  A    between atoms: C4_4  and  N1_6 
REMARK    2  A    between atoms: N1_6  and  S1_7 
REMARK    3  A    between atoms: S1_7  and  N2_10 
REMARK    4  A    between atoms: N2_10  and  C6_11 
ROOT
ATOM      1  S1  <0> d           1.184  -2.861  -1.760  0.00  0.00     0.315 S 
ATOM      2  O1  <0> d           0.913  -3.324  -3.076  0.00  0.00    -0.183 OA
ATOM      3  O2  <0> d           2.371  -3.207  -1.060  0.00  0.00    -0.183 OA
ENDROOT
BRANCH   1   4
ATOM      4  N1  <0> d           1.136  -1.207  -1.821  0.00  0.00    -0.298 N 
ATOM      5  H11 <0> d           0.964  -0.758  -2.664  0.00  0.00     0.174 HD
BRANCH   4   6
ATOM      6  C4  <0> d           1.353  -0.422  -0.604  0.00  0.00     0.094 C 
ATOM      7  C3  <0> d           2.107   0.881  -0.942  0.00  0.00     0.026 C 
ATOM      8  C2  <0> d           1.477   1.939  -0.002  0.00  0.00     0.002 C 
ATOM      9  C1  <0> d          -0.019   1.538   0.011  0.00  0.00     0.002 C 
ATOM     10  C5  <0> d           0.002  -0.004   0.002  0.00  0.00     0.026 C 
ENDBRANCH   4   6
ENDBRANCH   1   4
BRANCH   1  11
ATOM     11  N2  <0> d          -0.084  -3.353  -0.815  0.00  0.00    -0.297 N 
ATOM     12  H12 <0> d           0.086  -3.800   0.029  0.00  0.00     0.174 HD
BRANCH  11  13
ATOM     13  C6  <0> d          -1.461  -3.113  -1.254  0.00  0.00     0.109 C 
ATOM     14  C9  <0> d          -2.343  -2.789  -0.024  0.00  0.00     0.166 C 
ATOM     15  S2  <0> d          -3.980  -3.470  -0.510  0.00  0.00     0.146 S 
ATOM     16  C8  <0> d          -3.533  -4.208  -2.138  0.00  0.00     0.142 C 
ATOM     17  O3  <0> d          -4.331  -4.513   0.390  0.00  0.00    -0.228 OA
ATOM     18  O4  <0> d          -4.885  -2.395  -0.722  0.00  0.00    -0.228 OA
ATOM     19  C7  <0> d          -1.995  -4.367  -1.965  0.00  0.00     0.041 C 
ENDBRANCH  11  13
ENDBRANCH   1  11
TORSDOF 4
