REMARK  5 active torsions:
REMARK  status: ('A' for Active; 'I' for Inactive)
REMARK    1  A    between atoms: C2_2  and  C3_3 
REMARK    2  A    between atoms: N1_8  and  C7_9 
REMARK    3  A    between atoms: C8_10  and  C13_17 
REMARK    4  A    between atoms: C13_17  and  N5_20 
REMARK    5  A    between atoms: N4_18  and  O2_19 
ROOT
ATOM      1  C7  <0> d          -3.131   0.740   1.436  0.00  0.00     0.161 A 
ATOM      2  C8  <0> d          -4.436   0.367   1.067  0.00  0.00     0.067 A 
ATOM      3  C9  <0> d          -5.405   1.374   1.001  0.00  0.00    -0.020 A 
ATOM      4  C10 <0> d          -5.015   2.668   1.303  0.00  0.00     0.031 A 
ATOM      5  N2  <0> d          -3.766   2.923   1.639  0.00  0.00    -0.280 N 
ATOM      6  N3  <0> d          -2.869   2.009   1.709  0.00  0.00    -0.156 NA
ATOM      7  C11 <0> d          -6.022   3.789   1.247  0.00  0.00     0.070 C 
ATOM      8  C12 <0> d          -6.827   1.060   0.614  0.00  0.00     0.051 C 
ATOM      9  H24 <0> d          -3.517   3.837   1.846  0.00  0.00     0.189 HD
ENDROOT
BRANCH   1  10
ATOM     10  N1  <0> d          -2.128  -0.214   1.518  0.00  0.00    -0.354 N 
ATOM     11  C3  <0> d          -1.349  -0.599   0.330  0.00  0.00     0.109 C 
ATOM     12  C4  <0> d          -1.355  -2.128   0.220  0.00  0.00     0.193 C 
ATOM     13  O1  <0> d          -0.933  -2.690   1.465  0.00  0.00    -0.383 OA
ATOM     14  C5  <0> d          -1.796  -2.390   2.565  0.00  0.00     0.135 C 
ATOM     15  C6  <0> d          -1.812  -0.875   2.795  0.00  0.00     0.156 C 
ATOM     16  C14 <0> d          -1.282  -3.093   3.823  0.00  0.00     0.041 C 
BRANCH  11  17
ATOM     17  C2  <0> d           0.089  -0.098   0.474  0.00  0.00     0.023 C 
ATOM     18  C1  <0> d           0.100   1.432   0.470  0.00  0.00     0.007 C 
ENDBRANCH  11  17
ENDBRANCH   1  10
BRANCH   2  19
ATOM     19  C13 <0> d          -4.772  -1.041   0.759  0.00  0.00     0.163 C 
ATOM     20  N4  <0> d          -5.162  -1.839   1.709  0.00  0.00    -0.117 NA
BRANCH  20  21
ATOM     21  O2  <0> d          -5.484  -3.187   1.414  0.00  0.00    -0.264 OA
ATOM     22  H18 <0> d          -5.763  -3.702   2.183  0.00  0.00     0.247 HD
ENDBRANCH  20  21
BRANCH  19  23
ATOM     23  N5  <0> d          -4.673  -1.508  -0.541  0.00  0.00    -0.381 N 
ATOM     24  H19 <0> d          -4.382  -0.912  -1.250  0.00  0.00     0.157 HD
ATOM     25  H20 <0> d          -4.893  -2.431  -0.743  0.00  0.00     0.157 HD
ENDBRANCH  19  23
ENDBRANCH   2  19
TORSDOF 5
