REMARK  2 active torsions:
REMARK  status: ('A' for Active; 'I' for Inactive)
REMARK    1  A    between atoms: C6_6  and  C7_7 
REMARK    2  A    between atoms: C13_13  and  O1_17 
ROOT
ATOM      1  C7  <0> d          -0.802   1.527  -1.115  0.00  0.00     0.225 C 
ATOM      2  C8  <0> d          -0.153   1.107  -2.434  0.00  0.00     0.055 C 
ATOM      3  C9  <0> d          -0.968   1.651  -3.607  0.00  0.00     0.010 C 
ATOM      4  C10 <0> d          -1.008   3.179  -3.541  0.00  0.00     0.001 C 
ATOM      5  C11 <0> d           0.419   3.727  -3.612  0.00  0.00     0.003 C 
ATOM      6  C12 <0> d           1.231   3.189  -2.433  0.00  0.00     0.038 C 
ATOM      7  C13 <0> d           1.273   1.660  -2.495  0.00  0.00     0.065 C 
ATOM      8  C14 <0> d           2.062   1.131  -1.292  0.00  0.00     0.066 C 
ATOM      9  C15 <0> d           1.352   1.550  -0.003  0.00  0.00     0.236 C 
ATOM     10  N1  <0> d          -0.012   1.005   0.008  0.00  0.00    -0.066 N 
ATOM     11  H18 <0> d          -0.493   1.284   0.957  0.00  0.00     0.278 HD
ATOM     12  H20 <0> d           0.049  -0.091  -0.065  0.00  0.00     0.278 HD
ENDROOT
BRANCH   1  13
ATOM     13  C6  <0> d          -2.201   0.971  -1.045  0.00  0.00    -0.026 A 
ATOM     14  C1  <0> d          -3.282   1.782  -1.340  0.00  0.00     0.012 A 
ATOM     15  C2  <0> d          -4.566   1.274  -1.276  0.00  0.00     0.044 A 
ATOM     16  C3  <0> d          -4.770  -0.047  -0.916  0.00  0.00     0.133 A 
ATOM     17  C4  <0> d          -3.687  -0.859  -0.621  0.00  0.00     0.050 A 
ATOM     18  F1  <0> d          -6.025  -0.545  -0.854  0.00  0.00    -0.205 F 
ATOM     19  C5  <0> d          -2.403  -0.350  -0.691  0.00  0.00     0.031 A 
ATOM     20 Br1  <0> d          -3.963  -2.664  -0.130  0.00  0.00    -0.048 Br
ENDBRANCH   1  13
BRANCH   7  21
ATOM     21  O1  <0> d           1.902   1.236  -3.705  0.00  0.00    -0.389 OA
ATOM     22  H19 <0> d           2.937   1.539  -3.924  0.00  0.00     0.210 HD
ENDBRANCH   7  21
TORSDOF 2
