REMARK  6 active torsions:
REMARK  status: ('A' for Active; 'I' for Inactive)
REMARK    1  A    between atoms: C3_3  and  O3_20 
REMARK    2  A    between atoms: C6_6  and  N1_7 
REMARK       I    between atoms: N1_7  and  C7_8 
REMARK    3  A    between atoms: C7_8  and  C8_10 
REMARK       I    between atoms: C8_10  and  N2_12 
REMARK    4  A    between atoms: N2_12  and  C9_13 
REMARK    5  A    between atoms: C9_13  and  C10_14 
REMARK    6  A    between atoms: O3_20  and  C15_21 
ROOT
ATOM      1  N1  <0> d          -1.199  -0.720   0.010  0.00  0.00    -0.319 N 
ATOM      2  C7  <0> d          -1.184  -2.063  -0.099  0.00  0.00     0.313 C 
ATOM      3  O1  <0> d          -0.126  -2.659  -0.113  0.00  0.00    -0.262 OA
ATOM      4  H5  <0> d          -2.043  -0.251   0.098  0.00  0.00     0.169 HD
ENDROOT
BRANCH   2   5
ATOM      5  C8  <0> d          -2.468  -2.819  -0.203  0.00  0.00     0.309 C 
ATOM      6  O2  <0> d          -3.525  -2.224  -0.189  0.00  0.00    -0.262 OA
ATOM      7  N2  <0> d          -2.452  -4.162  -0.312  0.00  0.00    -0.349 N 
ATOM      8  H6  <0> d          -1.607  -4.638  -0.323  0.00  0.00     0.163 HD
BRANCH   7   9
ATOM      9  C9  <0> d          -3.712  -4.904  -0.414  0.00  0.00     0.161 C 
BRANCH   9  10
ATOM     10  C10 <0> d          -3.420  -6.378  -0.524  0.00  0.00    -0.038 A 
ATOM     11  C14 <0> d          -3.321  -7.169   0.610  0.00  0.00     0.028 A 
ATOM     12  C13 <0> d          -3.058  -8.518   0.469  0.00  0.00     0.116 A 
ATOM     13  N3  <0> d          -2.890  -9.052  -0.725  0.00  0.00    -0.273 NA
ATOM     14  C12 <0> d          -2.971  -8.329  -1.825  0.00  0.00     0.116 A 
ATOM     15  C11 <0> d          -3.237  -6.974  -1.763  0.00  0.00     0.028 A 
ENDBRANCH   9  10
ENDBRANCH   7   9
ENDBRANCH   2   5
BRANCH   1  16
ATOM     16  C6  <0> d           0.002  -0.004  -0.004  0.00  0.00     0.035 A 
ATOM     17  C1  <0> d           1.071  -0.454  -0.768  0.00  0.00     0.032 A 
ATOM     18  C2  <0> d           2.256   0.254  -0.781  0.00  0.00     0.039 A 
ATOM     19  C3  <0> d           2.379   1.416  -0.032  0.00  0.00     0.075 A 
ATOM     20  C4  <0> d           1.312   1.866   0.732  0.00  0.00     0.039 A 
ATOM     21  C5  <0> d           0.126   1.159   0.746  0.00  0.00     0.032 A 
BRANCH  19  22
ATOM     22  O3  <0> d           3.546   2.112  -0.046  0.00  0.00    -0.290 OA
BRANCH  22  23
ATOM     23  C15 <0> d           3.603   3.299   0.749  0.00  0.00     0.505 C 
ATOM     24  F1  <0> d           2.623   4.198   0.315  0.00  0.00    -0.184 F 
ATOM     25  F2  <0> d           3.376   2.973   2.090  0.00  0.00    -0.184 F 
ENDBRANCH  22  23
ENDBRANCH  19  22
ENDBRANCH   1  16
TORSDOF 6
