REMARK  6 active torsions:
REMARK  status: ('A' for Active; 'I' for Inactive)
REMARK    1  A    between atoms: N1_2  and  C2_3 
REMARK       I    between atoms: N1_2  and  C10_13 
REMARK    2  A    between atoms: C2_3  and  C3_4 
REMARK    3  A    between atoms: C5_6  and  C7_9 
REMARK    4  A    between atoms: C8_10  and  C9_11 
REMARK    5  A    between atoms: C9_11  and  N2_12 
REMARK    6  A    between atoms: C10_13  and  C11_15 
ROOT
ATOM      1  C3  <0> d          -0.901  -0.780   1.952  0.00  0.00     0.002 A 
ATOM      2  C4  <0> d          -1.944  -1.636   1.869  0.00  0.00     0.037 A 
ATOM      3  C5  <0> d          -3.072  -1.407   2.654  0.00  0.00     0.025 A 
ATOM      4  C6  <0> d          -3.078  -0.317   3.483  0.00  0.00     0.070 A 
ATOM      5  S1  <0> d          -1.474   0.399   3.164  0.00  0.00    -0.103 SA
ENDROOT
BRANCH   1   6
ATOM      6  C2  <0> d           0.412  -0.815   1.214  0.00  0.00     0.171 C 
BRANCH   6   7
ATOM      7  N1  <0> d           0.292  -0.055  -0.033  0.00  0.00    -0.349 N 
ATOM      8  C1  <0> d           0.601   1.377  -0.050  0.00  0.00     0.153 C 
ATOM      9  C10 <0> d          -0.102  -0.673  -1.163  0.00  0.00     0.251 C 
ATOM     10  O1  <0> d          -0.438  -1.838  -1.132  0.00  0.00    -0.270 OA
BRANCH   9  11
ATOM     11  C11 <0> d          -0.124   0.083  -2.467  0.00  0.00     0.237 C 
ATOM     12  O3  <0> d          -0.243  -0.840  -3.553  0.00  0.00    -0.372 OA
ATOM     13  C14 <0> d          -0.323  -0.209  -4.835  0.00  0.00     0.195 C 
ATOM     14  C13 <0> d          -1.521   0.745  -4.852  0.00  0.00     0.193 C 
ATOM     15  O2  <0> d          -1.401   1.668  -3.766  0.00  0.00    -0.386 OA
ATOM     16  C12 <0> d          -1.322   1.037  -2.484  0.00  0.00     0.209 C 
ENDBRANCH   9  11
ENDBRANCH   6   7
ENDBRANCH   1   6
BRANCH   3  17
ATOM     17  C7  <0> d          -4.198  -2.289   2.595  0.00  0.00    -0.065 C 
ATOM     18  C8  <0> d          -5.121  -3.013   2.546  0.00  0.00    -0.074 C 
BRANCH  18  19
ATOM     19  C9  <0> d          -6.279  -3.920   2.486  0.00  0.00     0.323 C 
BRANCH  19  20
ATOM     20  N2  <0> d          -7.320  -3.448   3.409  0.00  0.00    -0.069 N 
ATOM     21  H11 <0> d          -6.954  -3.432   4.349  0.00  0.00     0.275 HD
ATOM     22  H12 <0> d          -7.607  -2.518   3.143  0.00  0.00     0.275 HD
ATOM     23  H19 <0> d          -8.113  -4.069   3.367  0.00  0.00     0.275 HD
ENDBRANCH  19  20
ENDBRANCH  18  19
ENDBRANCH   3  17
TORSDOF 6
