REMARK  4 active torsions:
REMARK  status: ('A' for Active; 'I' for Inactive)
REMARK    1  A    between atoms: C5_6  and  C6_7 
REMARK       I    between atoms: C6_7  and  N1_9 
REMARK    2  A    between atoms: N1_9  and  N2_10 
REMARK    3  A    between atoms: N2_10  and  S2_11 
REMARK    4  A    between atoms: S2_11  and  C7_14 
ROOT
ATOM      1  N2  <0> d           0.144  -0.712   5.024  0.00  0.00    -0.220 N 
ATOM      2  H7  <0> d           0.787  -0.083   5.386  0.00  0.00     0.200 HD
ENDROOT
BRANCH   1   3
ATOM      3  N1  <0> d           0.328  -1.238   3.738  0.00  0.00    -0.256 N 
ATOM      4  C6  <0> d           0.461  -0.408   2.684  0.00  0.00     0.278 C 
ATOM      5  O1  <0> d           0.422   0.797   2.849  0.00  0.00    -0.265 OA
ATOM      6  H6  <0> d           0.358  -2.198   3.606  0.00  0.00     0.191 HD
BRANCH   4   7
ATOM      7  C5  <0> d           0.652  -0.958   1.338  0.00  0.00     0.080 A 
ATOM      8  C2  <0> d           0.808  -0.287   0.135  0.00  0.00    -0.039 A 
ATOM      9  C1  <0> d           0.800   1.217   0.048  0.00  0.00     0.050 C 
ATOM     10  C3  <0> d           0.976  -1.082  -0.974  0.00  0.00     0.015 A 
ATOM     11  C4  <0> d           0.973  -2.430  -0.825  0.00  0.00     0.051 A 
ATOM     12  S1  <0> d           0.743  -2.662   0.823  0.00  0.00    -0.096 SA
ENDBRANCH   4   7
ENDBRANCH   1   3
BRANCH   1  13
ATOM     13  S2  <0> d          -1.169  -1.166   5.924  0.00  0.00     0.277 S 
ATOM     14  O2  <0> d          -0.995  -0.594   7.213  0.00  0.00    -0.199 OA
ATOM     15  O3  <0> d          -2.317  -0.912   5.126  0.00  0.00    -0.199 OA
BRANCH  13  16
ATOM     16  C7  <0> d          -1.079  -2.914   6.133  0.00  0.00     0.098 A 
ATOM     17  C12 <0> d          -0.030  -3.472   6.841  0.00  0.00     0.034 A 
ATOM     18  C11 <0> d           0.037  -4.844   7.009  0.00  0.00     0.020 A 
ATOM     19 Br1  <0> d           1.306  -2.361   7.586  0.00  0.00    -0.049 Br
ATOM     20  C10 <0> d          -0.937  -5.656   6.460  0.00  0.00     0.001 A 
ATOM     21  C9  <0> d          -1.982  -5.097   5.748  0.00  0.00     0.002 A 
ATOM     22  C8  <0> d          -2.053  -3.727   5.584  0.00  0.00     0.027 A 
ENDBRANCH  13  16
ENDBRANCH   1  13
TORSDOF 4
