REMARK  4 active torsions:
REMARK  status: ('A' for Active; 'I' for Inactive)
REMARK    1  A    between atoms: C5_6  and  C12_16 
REMARK    2  A    between atoms: N2_8  and  C6_9 
REMARK       I    between atoms: C12_16  and  N3_18 
REMARK    3  A    between atoms: N3_18  and  C13_19 
REMARK    4  A    between atoms: C16_22  and  S1_25 
ROOT
ATOM      1  C1  <0> d           1.117   6.165  -0.317  0.00  0.00     0.070 C 
ATOM      2  C2  <0> d           2.426   5.420  -0.252  0.00  0.00     0.036 A 
ATOM      3  C3  <0> d           3.566   6.036  -0.642  0.00  0.00     0.084 A 
ATOM      4  C4  <0> d           4.777   5.300  -0.565  0.00  0.00     0.209 A 
ATOM      5  O1  <0> d           5.843   5.792  -0.901  0.00  0.00    -0.286 OA
ATOM      6  C5  <0> d           4.694   3.920  -0.063  0.00  0.00     0.195 A 
ATOM      7  N1  <0> d           3.518   3.444   0.289  0.00  0.00    -0.158 NA
ATOM      8  N2  <0> d           2.446   4.141   0.199  0.00  0.00    -0.236 N 
ENDROOT
BRANCH   6   9
ATOM      9  C12 <0> d           5.907   3.086   0.049  0.00  0.00     0.280 C 
ATOM     10  O2  <0> d           6.988   3.539  -0.274  0.00  0.00    -0.265 OA
ATOM     11  N3  <0> d           5.816   1.823   0.510  0.00  0.00    -0.322 N 
ATOM     12  H9  <0> d           4.830   1.385   0.725  0.00  0.00     0.169 HD
BRANCH  11  13
ATOM     13  C13 <0> d           6.975   1.068   0.716  0.00  0.00     0.035 A 
ATOM     14  C18 <0> d           8.149   1.692   1.120  0.00  0.00     0.031 A 
ATOM     15  C17 <0> d           9.292   0.944   1.322  0.00  0.00     0.025 A 
ATOM     16  C16 <0> d           9.270  -0.425   1.121  0.00  0.00     0.059 A 
ATOM     17  C15 <0> d           8.103  -1.048   0.718  0.00  0.00     0.025 A 
ATOM     18  C14 <0> d           6.954  -0.307   0.521  0.00  0.00     0.031 A 
BRANCH  16  19
ATOM     19  S1  <0> d          10.731  -1.375   1.379  0.00  0.00     0.171 S 
ATOM     20  O3  <0> d          10.574  -2.514   0.544  0.00  0.00    -0.223 OA
ATOM     21  O4  <0> d          11.799  -0.463   1.165  0.00  0.00    -0.223 OA
ATOM     22  C19 <0> d          10.666  -1.865   3.124  0.00  0.00     0.167 C 
ENDBRANCH  16  19
ENDBRANCH  11  13
ENDBRANCH   6   9
BRANCH   8  23
ATOM     23  C6  <0> d           1.238   3.555   0.590  0.00  0.00     0.080 A 
ATOM     24  C11 <0> d           0.817   2.367   0.004  0.00  0.00     0.062 A 
ATOM     25  C10 <0> d          -0.378   1.792   0.393  0.00  0.00     0.026 A 
ATOM     26 Cl1  <0> d           1.792   1.607  -1.215  0.00  0.00    -0.082 Cl
ATOM     27  C9  <0> d          -1.152   2.394   1.368  0.00  0.00     0.002 A 
ATOM     28  C8  <0> d          -0.739   3.580   1.948  0.00  0.00     0.002 A 
ATOM     29  C7  <0> d           0.454   4.160   1.565  0.00  0.00     0.033 A 
ENDBRANCH   8  23
TORSDOF 4
