REMARK  6 active torsions:
REMARK  status: ('A' for Active; 'I' for Inactive)
REMARK    1  A    between atoms: C2_2  and  N1_3 
REMARK    2  A    between atoms: C5_7  and  C13_19 
REMARK    3  A    between atoms: C6_9  and  C9_13 
REMARK    4  A    between atoms: C6_9  and  C12_16 
REMARK    5  A    between atoms: C14_20  and  C15_21 
REMARK    6  A    between atoms: C18_24  and  O5_27 
ROOT
ATOM      1  N1  <0> d           1.967   5.769  -1.008  0.00  0.00    -0.288 N 
ATOM      2  C3  <0> d           0.914   6.197  -0.249  0.00  0.00     0.233 C 
ATOM      3  O1  <0> d           0.181   7.133  -0.486  0.00  0.00    -0.272 OA
ATOM      4  C4  <0> d           0.845   5.283   0.930  0.00  0.00     0.129 C 
ATOM      5  C5  <0> d          -0.480   4.712   1.416  0.00  0.00     0.224 C 
ATOM      6  N2  <0> d          -0.111   3.345   1.909  0.00  0.00    -0.046 N 
ATOM      7  C6  <0> d           1.121   2.914   1.170  0.00  0.00     0.229 C 
ATOM      8  C7  <0> d           1.375   3.988   0.205  0.00  0.00     0.141 C 
ATOM      9  C8  <0> d           2.399   4.513  -0.660  0.00  0.00     0.234 C 
ATOM     10  O2  <0> d           3.420   3.963  -1.011  0.00  0.00    -0.272 OA
ATOM     11  H9  <0> d           0.086   3.387   2.990  0.00  0.00     0.279 HD
ATOM     12  H26 <0> d          -0.939   2.648   1.713  0.00  0.00     0.279 HD
ENDROOT
BRANCH   5  13
ATOM     13  C13 <0> d          -1.466   4.618   0.280  0.00  0.00     0.008 C 
ATOM     14  C14 <0> d          -2.663   5.178   0.393  0.00  0.00     0.009 C 
BRANCH  14  15
ATOM     15  C15 <0> d          -3.098   5.736   1.690  0.00  0.00    -0.036 A 
ATOM     16  C20 <0> d          -3.538   7.059   1.770  0.00  0.00     0.014 A 
ATOM     17  C19 <0> d          -3.943   7.576   2.982  0.00  0.00     0.037 A 
ATOM     18  C18 <0> d          -3.915   6.783   4.121  0.00  0.00     0.068 A 
ATOM     19  C17 <0> d          -3.478   5.468   4.046  0.00  0.00     0.037 A 
ATOM     20  C16 <0> d          -3.076   4.941   2.837  0.00  0.00     0.014 A 
BRANCH  18  21
ATOM     21  O5  <0> d          -4.316   7.297   5.314  0.00  0.00    -0.356 OA
ATOM     22  C21 <0> d          -4.261   6.426   6.446  0.00  0.00     0.210 C 
ENDBRANCH  18  21
ENDBRANCH  14  15
ENDBRANCH   5  13
BRANCH   7  23
ATOM     23  C9  <0> d           2.298   2.768   2.137  0.00  0.00     0.025 C 
ATOM     24  C10 <0> d           2.631   4.131   2.746  0.00  0.00     0.012 C 
ATOM     25  C11 <0> d           1.923   1.789   3.252  0.00  0.00     0.012 C 
ENDBRANCH   7  23
BRANCH   7  26
ATOM     26  C12 <0> d           0.872   1.615   0.448  0.00  0.00     0.212 C 
ATOM     27  O3  <0> d           1.425   1.393  -0.604  0.00  0.00    -0.646 OA
ATOM     28  O4  <0> d           0.037   0.705   0.972  0.00  0.00    -0.646 OA
ENDBRANCH   7  26
BRANCH   1  29
ATOM     29  C2  <0> d           2.571   6.566  -2.079  0.00  0.00     0.130 C 
ATOM     30  C1  <0> d           1.862   6.264  -3.401  0.00  0.00     0.027 C 
ENDBRANCH   1  29
TORSDOF 6
