REMARK  5 active torsions:
REMARK  status: ('A' for Active; 'I' for Inactive)
REMARK    1  A    between atoms: N1_2  and  C3_4 
REMARK    2  A    between atoms: C3_4  and  C4_5 
REMARK    3  A    between atoms: C4_5  and  N2_6 
REMARK    4  A    between atoms: N2_6  and  C5_7 
REMARK    5  A    between atoms: N4_14  and  C10_17 
ROOT
ATOM      1  C5  <0> d          -2.964  -3.868  -0.218  0.00  0.00     0.105 C 
ATOM      2  C6  <0> d          -4.252  -4.356  -0.104  0.00  0.00     0.115 A 
ATOM      3  C7  <0> d          -5.409  -3.452   0.018  0.00  0.00     0.266 A 
ATOM      4  O1  <0> d          -5.261  -2.244   0.023  0.00  0.00    -0.267 OA
ATOM      5  N3  <0> d          -6.638  -3.999   0.124  0.00  0.00    -0.274 N 
ATOM      6  C8  <0> d          -6.815  -5.327   0.121  0.00  0.00     0.332 A 
ATOM      7  O2  <0> d          -7.948  -5.757   0.220  0.00  0.00    -0.246 OA
ATOM      8  N4  <0> d          -5.810  -6.208   0.013  0.00  0.00    -0.261 N 
ATOM      9  C9  <0> d          -4.529  -5.803  -0.107  0.00  0.00     0.269 A 
ATOM     10  O3  <0> d          -3.626  -6.612  -0.210  0.00  0.00    -0.267 OA
ATOM     11  H13 <0> d          -7.410  -3.418   0.206  0.00  0.00     0.173 HD
ENDROOT
BRANCH   1  12
ATOM     12  N2  <0> d          -2.725  -2.551  -0.053  0.00  0.00    -0.396 N 
ATOM     13  H11 <0> d          -3.442  -1.959   0.225  0.00  0.00     0.158 HD
BRANCH  12  14
ATOM     14  C4  <0> d          -1.383  -2.014  -0.293  0.00  0.00     0.146 C 
BRANCH  14  15
ATOM     15  C3  <0> d          -1.384  -0.506  -0.037  0.00  0.00     0.253 C 
BRANCH  15  16
ATOM     16  N1  <0> d          -0.038   0.032  -0.278  0.00  0.00    -0.077 N 
ATOM     17  C1  <0> d          -0.066   1.495  -0.148  0.00  0.00     0.269 C 
ATOM     18  C2  <0> d           0.897  -0.529   0.706  0.00  0.00     0.269 C 
ATOM     19  H25 <0> d           0.262  -0.217  -1.208  0.00  0.00     0.279 HD
ENDBRANCH  15  16
ENDBRANCH  14  15
ENDBRANCH  12  14
ENDBRANCH   1  12
BRANCH   8  20
ATOM     20  C10 <0> d          -6.111  -7.641   0.019  0.00  0.00     0.098 C 
ATOM     21  C15 <0> d          -6.801  -8.012   1.333  0.00  0.00     0.026 C 
ATOM     22  C14 <0> d          -7.115  -9.510   1.339  0.00  0.00     0.002 C 
ATOM     23  C13 <0> d          -8.039  -9.842   0.167  0.00  0.00     0.000 C 
ATOM     24  C12 <0> d          -7.349  -9.471  -1.148  0.00  0.00     0.002 C 
ATOM     25  C11 <0> d          -7.035  -7.974  -1.154  0.00  0.00     0.026 C 
ENDBRANCH   8  20
TORSDOF 5
