REMARK  6 active torsions:
REMARK  status: ('A' for Active; 'I' for Inactive)
REMARK    1  A    between atoms: C7_7  and  C8_8 
REMARK    2  A    between atoms: C8_8  and  N1_9 
REMARK    3  A    between atoms: C10_11  and  N3_15 
REMARK       I    between atoms: N3_15  and  C13_16 
REMARK    4  A    between atoms: C13_16  and  C14_18 
REMARK    5  A    between atoms: C17_24  and  C21_31 
REMARK    6  A    between atoms: C19_26  and  C20_27 
ROOT
ATOM      1  C14 <0> d          -3.153  -2.108   0.335  0.00  0.00     0.091 A 
ATOM      2  C15 <0> d          -2.894  -3.482   0.558  0.00  0.00     0.159 A 
ATOM      3  N4  <0> d          -4.037  -4.101   0.664  0.00  0.00    -0.182 NA
ATOM      4  N5  <0> d          -5.072  -3.179   0.509  0.00  0.00    -0.244 N 
ATOM      5  C16 <0> d          -4.533  -1.957   0.306  0.00  0.00     0.118 A 
ATOM      6  N6  <0> d          -5.248  -0.794   0.111  0.00  0.00    -0.266 NA
ATOM      7  C17 <0> d          -6.637  -0.953   0.567  0.00  0.00     0.121 C 
ATOM      8  C18 <0> d          -7.235  -2.225  -0.043  0.00  0.00     0.063 C 
ATOM      9  C19 <0> d          -6.516  -3.445   0.550  0.00  0.00     0.221 C 
ATOM     10  H17 <0> d          -5.216  -0.508  -0.857  0.00  0.00     0.130 HD
ENDROOT
BRANCH   1  11
ATOM     11  C13 <0> d          -2.154  -1.047   0.160  0.00  0.00     0.261 C 
ATOM     12  N3  <0> d          -0.840  -1.343   0.213  0.00  0.00    -0.319 N 
ATOM     13  H15 <0> d          -0.554  -2.268   0.283  0.00  0.00     0.169 HD
ATOM     14  O1  <0> d          -2.511   0.101  -0.032  0.00  0.00    -0.267 OA
BRANCH  12  15
ATOM     15  C10 <0> d           0.117  -0.312   0.165  0.00  0.00     0.085 A 
ATOM     16  C9  <0> d           1.090  -0.081   1.083  0.00  0.00     0.056 A 
ATOM     17  N1  <0> d           1.796   1.002   0.668  0.00  0.00    -0.268 N 
ATOM     18  C25 <0> d           1.340  -0.881   2.335  0.00  0.00     0.072 C 
ATOM     19  N2  <0> d           1.238   1.444  -0.538  0.00  0.00    -0.175 NA
ATOM     20  C11 <0> d           0.234   0.660  -0.840  0.00  0.00     0.079 A 
ATOM     21  C12 <0> d          -0.641   0.777  -2.060  0.00  0.00     0.075 C 
BRANCH  17  22
ATOM     22  C8  <0> d           2.941   1.601   1.358  0.00  0.00     0.190 C 
BRANCH  22  23
ATOM     23  C7  <0> d           4.214   0.956   0.875  0.00  0.00    -0.032 A 
ATOM     24  C2  <0> d           4.829   1.416  -0.275  0.00  0.00    -0.054 A 
ATOM     25  C1  <0> d           4.226   2.563  -1.044  0.00  0.00     0.049 C 
ATOM     26  C3  <0> d           5.999   0.827  -0.717  0.00  0.00     0.007 A 
ATOM     27  C4  <0> d           6.549  -0.228  -0.014  0.00  0.00     0.001 A 
ATOM     28  C5  <0> d           5.931  -0.692   1.133  0.00  0.00     0.001 A 
ATOM     29  C6  <0> d           4.764  -0.100   1.577  0.00  0.00     0.009 A 
ENDBRANCH  22  23
ENDBRANCH  17  22
ENDBRANCH  12  15
ENDBRANCH   1  11
BRANCH   9  30
ATOM     30  C20 <0> d          -6.838  -4.690  -0.279  0.00  0.00     0.409 C 
ATOM     31  F1  <0> d          -6.409  -4.496  -1.597  0.00  0.00    -0.169 F 
ATOM     32  F2  <0> d          -6.180  -5.797   0.267  0.00  0.00    -0.169 F 
ATOM     33  F3  <0> d          -8.219  -4.915  -0.266  0.00  0.00    -0.169 F 
ENDBRANCH   9  30
BRANCH   7  34
ATOM     34  C21 <0> d          -7.448   0.241   0.134  0.00  0.00     0.070 A 
ATOM     35  O2  <0> d          -7.349   0.871  -1.048  0.00  0.00    -0.325 OA
ATOM     36  C24 <0> d          -8.226   1.887  -1.089  0.00  0.00     0.142 A 
ATOM     37  C23 <0> d          -8.891   1.921   0.080  0.00  0.00     0.027 A 
ATOM     38  C22 <0> d          -8.390   0.860   0.868  0.00  0.00     0.036 A 
ENDBRANCH   7  34
TORSDOF 6
