REMARK  4 active torsions:
REMARK  status: ('A' for Active; 'I' for Inactive)
REMARK    1  A    between atoms: N1_2  and  C2_3 
REMARK       I    between atoms: N1_2  and  C6_9 
REMARK    2  A    between atoms: C5_7  and  O1_8 
REMARK    3  A    between atoms: C6_9  and  C7_11 
REMARK    4  A    between atoms: N3_15  and  C11_16 
ROOT
ATOM      1  C1  <0> d          -0.170   1.468   0.011  0.00  0.00     0.153 C 
ATOM      2  N1  <0> d          -0.092   0.005   0.006  0.00  0.00    -0.342 N 
ATOM      3  C6  <0> d          -0.138  -0.668  -1.160  0.00  0.00     0.270 C 
ATOM      4  O2  <0> d          -0.178  -1.884  -1.160  0.00  0.00    -0.266 OA
ENDROOT
BRANCH   2   5
ATOM      5  C2  <0> d           0.035  -0.726   1.270  0.00  0.00     0.143 C 
ATOM      6  C5  <0> d           1.303  -0.276   2.024  0.00  0.00     0.168 C 
ATOM      7  C4  <0> d           0.787   0.308   3.359  0.00  0.00     0.266 C 
ATOM      8  N2  <0> d          -0.533  -0.342   3.567  0.00  0.00    -0.071 N 
ATOM      9  C3  <0> d          -1.139  -0.379   2.211  0.00  0.00     0.260 C 
ATOM     10  H8  <0> d          -1.103   0.208   4.192  0.00  0.00     0.277 HD
ATOM     11  H19 <0> d          -0.413  -1.277   3.925  0.00  0.00     0.277 HD
BRANCH   6  12
ATOM     12  O1  <0> d           2.159  -1.393   2.267  0.00  0.00    -0.392 OA
ATOM     13  H11 <0> d           2.973  -1.170   2.739  0.00  0.00     0.210 HD
ENDBRANCH   6  12
ENDBRANCH   2   5
BRANCH   3  14
ATOM     14  C7  <0> d          -0.140   0.065  -2.430  0.00  0.00     0.104 A 
ATOM     15  N3  <0> d          -0.315  -0.478  -3.683  0.00  0.00    -0.346 N 
ATOM     16  C10 <0> d          -0.256   0.519  -4.600  0.00  0.00     0.111 A 
ATOM     17  C9  <0> d          -0.036   1.692  -3.958  0.00  0.00     0.029 A 
ATOM     18  C8  <0> d           0.039   1.423  -2.588  0.00  0.00     0.056 A 
ATOM     19 Br1  <0> d           0.137   3.390  -4.771  0.00  0.00    -0.050 Br
BRANCH  15  20
ATOM     20  C11 <0> d          -0.533  -1.897  -3.976  0.00  0.00     0.090 A 
ATOM     21  C13 <0> d          -1.888  -2.298  -4.561  0.00  0.00     0.028 A 
ATOM     22  C12 <0> d          -0.640  -2.306  -5.446  0.00  0.00     0.028 A 
ENDBRANCH  15  20
ENDBRANCH   3  14
TORSDOF 4
