REMARK  2 active torsions:
REMARK  status: ('A' for Active; 'I' for Inactive)
REMARK    1  A    between atoms: N1_2  and  C2_3 
REMARK       I    between atoms: N1_2  and  C11_12 
REMARK    2  A    between atoms: C11_12  and  C12_14 
ROOT
ATOM      1  C1  <0> d          -0.033   1.460   0.012  0.00  0.00     0.154 C 
ATOM      2  N1  <0> d           0.004  -0.004   0.002  0.00  0.00    -0.343 N 
ATOM      3  C11 <0> d          -0.102  -0.673  -1.163  0.00  0.00     0.254 C 
ATOM      4  O1  <0> d          -0.178  -1.887  -1.163  0.00  0.00    -0.267 OA
ENDROOT
BRANCH   3   5
ATOM      5  C12 <0> d          -0.124   0.068  -2.440  0.00  0.00     0.034 A 
ATOM      6  C17 <0> d          -0.905  -0.393  -3.503  0.00  0.00     0.049 A 
ATOM      7  C16 <0> d          -0.925   0.308  -4.692  0.00  0.00     0.069 A 
ATOM      8  C15 <0> d          -0.159   1.467  -4.835  0.00  0.00     0.096 A 
ATOM      9  N2  <0> d          -1.708  -0.133  -5.770  0.00  0.00    -0.323 N 
ATOM     10  C14 <0> d           0.621   1.920  -3.781  0.00  0.00     0.040 A 
ATOM     11  O3  <0> d          -0.184   2.142  -6.014  0.00  0.00    -0.340 OA
ATOM     12  C13 <0> d           0.640   1.228  -2.590  0.00  0.00     0.020 A 
ATOM     13  C19 <0> d          -0.350   1.360  -7.200  0.00  0.00     0.278 C 
ATOM     14  C18 <0> d          -1.469   0.369  -7.001  0.00  0.00     0.246 C 
ATOM     15  O2  <0> d          -2.152   0.025  -7.942  0.00  0.00    -0.271 OA
ATOM     16  H16 <0> d          -2.409  -0.789  -5.633  0.00  0.00     0.169 HD
ENDBRANCH   3   5
BRANCH   2  17
ATOM     17  C2  <0> d           0.155  -0.742   1.259  0.00  0.00     0.121 C 
ATOM     18  C6  <0> d          -0.954  -0.373   2.221  0.00  0.00    -0.029 A 
ATOM     19  C5  <0> d          -0.427  -0.178   3.486  0.00  0.00    -0.050 A 
ATOM     20  C7  <0> d          -2.313  -0.220   2.007  0.00  0.00     0.010 A 
ATOM     21  C4  <0> d           1.069  -0.406   3.458  0.00  0.00     0.041 C 
ATOM     22  C10 <0> d          -1.263   0.170   4.534  0.00  0.00     0.007 A 
ATOM     23  C3  <0> d           1.462  -0.329   1.968  0.00  0.00     0.035 C 
ATOM     24  C9  <0> d          -2.623   0.320   4.317  0.00  0.00     0.001 A 
ATOM     25  C8  <0> d          -3.147   0.126   3.053  0.00  0.00     0.001 A 
ENDBRANCH   2  17
TORSDOF 2
