REMARK  2 active torsions:
REMARK  status: ('A' for Active; 'I' for Inactive)
REMARK    1  A    between atoms: C6_6  and  N1_9 
REMARK    2  A    between atoms: N1_9  and  C9_10 
ROOT
ATOM      1  N1  <0> d          -0.700   1.560   1.217  0.00  0.00    -0.066 N 
ATOM      2  H16 <0> d          -0.066   1.611   2.114  0.00  0.00     0.278 HD
ATOM      3  H30 <0> d          -1.044   2.571   0.952  0.00  0.00     0.278 HD
ENDROOT
BRANCH   1   4
ATOM      4  C6  <0> d           0.073   0.998   0.101  0.00  0.00     0.190 C 
ATOM      5  C5  <0> d           0.887   2.109  -0.566  0.00  0.00     0.033 C 
ATOM      6  C4  <0> d           1.692   1.524  -1.727  0.00  0.00     0.002 C 
ATOM      7  C3  <0> d           2.640   0.446  -1.199  0.00  0.00     0.005 C 
ATOM      8  C2  <0> d           1.827  -0.665  -0.532  0.00  0.00    -0.013 C 
ATOM      9  C1  <0> d           2.775  -1.744  -0.003  0.00  0.00     0.010 C 
ATOM     10  C7  <0> d           1.021  -0.081   0.630  0.00  0.00     0.016 C 
ATOM     11  C8  <0> d           1.976   0.537   1.653  0.00  0.00     0.012 C 
ENDBRANCH   1   4
BRANCH   1  12
ATOM     12  C9  <0> d          -1.873   0.727   1.516  0.00  0.00     0.186 C 
ATOM     13  C14 <0> d          -2.263   0.904   2.984  0.00  0.00     0.038 C 
ATOM     14  C13 <0> d          -3.482   0.034   3.297  0.00  0.00     0.070 C 
ATOM     15  C12 <0> d          -4.649   0.452   2.400  0.00  0.00     0.164 C 
ATOM     16  C11 <0> d          -4.261   0.281   0.931  0.00  0.00     0.070 C 
ATOM     17  O2  <0> d          -5.796  -0.356   2.693  0.00  0.00    -0.353 OA
ATOM     18  O1  <0> d          -4.975   1.829   2.651  0.00  0.00    -0.353 OA
ATOM     19  C10 <0> d          -3.040   1.151   0.622  0.00  0.00     0.038 C 
ATOM     20  C16 <0> d          -6.850   0.534   3.114  0.00  0.00     0.197 C 
ATOM     21  C15 <0> d          -6.415   1.897   2.522  0.00  0.00     0.197 C 
ENDBRANCH   1  12
TORSDOF 2
