REMARK  5 active torsions:
REMARK  status: ('A' for Active; 'I' for Inactive)
REMARK    1  A    between atoms: C5_5  and  N2_8 
REMARK    2  A    between atoms: C14_18  and  S1_19 
REMARK    3  A    between atoms: S1_19  and  C15_20 
REMARK    4  A    between atoms: C15_20  and  C16_21 
REMARK       I    between atoms: C16_21  and  N4_23 
REMARK    5  A    between atoms: N4_23  and  C17_24 
ROOT
ATOM      1  C17 <0> d          -7.609  -1.649   0.560  0.00  0.00     0.122 C 
ATOM      2  C18 <0> d          -7.935  -2.490  -0.676  0.00  0.00     0.046 C 
ATOM      3  C19 <0> d          -9.370  -3.011  -0.574  0.00  0.00     0.004 C 
ATOM      4  C20 <0> d         -10.338  -1.828  -0.493  0.00  0.00     0.000 C 
ATOM      5  C21 <0> d         -10.012  -0.987   0.743  0.00  0.00     0.004 C 
ATOM      6  C22 <0> d          -8.577  -0.466   0.641  0.00  0.00     0.046 C 
ATOM      7  C23 <0> d          -7.746  -2.478   1.768  0.00  0.00     0.091 C 
ATOM      8  N5  <0> d          -7.851  -3.119   2.701  0.00  0.00    -0.195 NA
ENDROOT
BRANCH   1   9
ATOM      9  N4  <0> d          -6.235  -1.150   0.463  0.00  0.00    -0.338 N 
ATOM     10  C16 <0> d          -5.208  -2.018   0.380  0.00  0.00     0.228 C 
ATOM     11  O2  <0> d          -5.420  -3.212   0.385  0.00  0.00    -0.273 OA
ATOM     12  H13 <0> d          -6.043  -0.067   0.458  0.00  0.00     0.164 HD
BRANCH  10  13
ATOM     13  C15 <0> d          -3.794  -1.505   0.280  0.00  0.00     0.185 C 
BRANCH  13  14
ATOM     14  S1  <0> d          -2.650  -2.904   0.183  0.00  0.00    -0.084 SA
BRANCH  14  15
ATOM     15  C14 <0> d          -1.118  -2.039   0.078  0.00  0.00     0.156 A 
ATOM     16  N2  <0> d           0.037  -2.767  -0.014  0.00  0.00    -0.241 N 
ATOM     17  C7  <0> d           1.236  -2.145  -0.097  0.00  0.00     0.268 A 
ATOM     18  O1  <0> d           2.272  -2.780  -0.179  0.00  0.00    -0.267 OA
ATOM     19  C8  <0> d           1.242  -0.677  -0.086  0.00  0.00     0.059 A 
ATOM     20  C13 <0> d           0.003  -0.004   0.012  0.00  0.00     0.050 A 
ATOM     21  C9  <0> d           2.426   0.056  -0.167  0.00  0.00     0.019 A 
ATOM     22  C12 <0> d          -0.016   1.394   0.025  0.00  0.00     0.030 A 
ATOM     23  N3  <0> d          -1.137  -0.730   0.090  0.00  0.00    -0.335 N 
ATOM     24  C11 <0> d           1.159   2.086  -0.057  0.00  0.00     0.002 A 
ATOM     25  C10 <0> d           2.375   1.422  -0.151  0.00  0.00     0.001 A 
ATOM     26  H24 <0> d          -2.110  -0.220   0.167  0.00  0.00     0.168 HD
BRANCH  16  27
ATOM     27  C5  <0> d          -0.022  -4.163  -0.021  0.00  0.00     0.138 A 
ATOM     28  C4  <0> d           0.066  -4.862   1.177  0.00  0.00     0.052 A 
ATOM     29  C3  <0> d          -0.000  -6.244   1.156  0.00  0.00     0.012 A 
ATOM     30  C2  <0> d          -0.140  -6.882  -0.069  0.00  0.00    -0.044 A 
ATOM     31  C1  <0> d          -0.209  -8.386  -0.141  0.00  0.00     0.049 C 
ATOM     32  C6  <0> d          -0.214  -6.124  -1.221  0.00  0.00     0.125 A 
ATOM     33  N1  <0> d          -0.155  -4.807  -1.169  0.00  0.00    -0.242 NA
ENDBRANCH  16  27
ENDBRANCH  14  15
ENDBRANCH  13  14
ENDBRANCH  10  13
ENDBRANCH   1   9
TORSDOF 5
