REMARK  1 active torsions:
REMARK  status: ('A' for Active; 'I' for Inactive)
REMARK    1  A    between atoms: C10_11  and  N1_21 
ROOT
ATOM      1  C1  <0> d           6.476  -2.583  -0.737  0.00  0.00     0.049 C 
ATOM      2  C2  <0> d           5.260  -2.517  -1.624  0.00  0.00    -0.044 A 
ATOM      3  C3  <0> d           4.837  -3.655  -2.279  0.00  0.00     0.010 A 
ATOM      4  C4  <0> d           3.726  -3.656  -3.108  0.00  0.00     0.031 A 
ATOM      5  C5  <0> d           3.041  -2.450  -3.259  0.00  0.00     0.044 A 
ATOM      6  C6  <0> d           3.478  -1.302  -2.589  0.00  0.00     0.015 A 
ATOM      7  C7  <0> d           4.585  -1.307  -1.766  0.00  0.00     0.027 A 
ATOM      8 Br1  <0> d           5.160   0.256  -0.871  0.00  0.00    -0.050 Br
ATOM      9  C8  <0> d           2.530  -0.207  -2.968  0.00  0.00     0.146 A 
ATOM     10  C9  <0> d           3.245   0.905  -3.677  0.00  0.00     0.100 C 
ATOM     11  C10 <0> d           3.490   2.075  -3.036  0.00  0.00     0.160 C 
ATOM     12  O1  <0> d           3.112   2.266  -1.763  0.00  0.00    -0.297 OA
ATOM     13  C11 <0> d           2.138   1.509  -1.225  0.00  0.00     0.067 C 
ATOM     14  C12 <0> d           1.807   0.315  -1.753  0.00  0.00     0.046 C 
ATOM     15  C13 <0> d           0.783  -0.474  -1.195  0.00  0.00     0.160 C 
ATOM     16  O2  <0> d           0.526  -1.553  -1.689  0.00  0.00    -0.293 OA
ATOM     17  C14 <0> d           0.002  -0.004   0.002  0.00  0.00     0.088 C 
ATOM     18  C15 <0> d          -0.019   1.528   0.010  0.00  0.00    -0.005 C 
ATOM     19  C16 <0> d           1.425   2.033  -0.001  0.00  0.00     0.070 C 
ATOM     20  C17 <0> d          -0.728   2.026   1.272  0.00  0.00     0.011 C 
ATOM     21  C18 <0> d           3.671   0.731  -5.033  0.00  0.00     0.101 C 
ATOM     22  N2  <0> d           4.008   0.593  -6.109  0.00  0.00    -0.191 NA
ATOM     23  C19 <0> d           1.545  -0.875  -3.904  0.00  0.00     0.246 A 
ATOM     24  O3  <0> d           0.600  -0.347  -4.451  0.00  0.00    -0.271 OA
ATOM     25  N3  <0> d           1.916  -2.167  -4.014  0.00  0.00    -0.325 N 
ATOM     26  H16 <0> d           1.450  -2.820  -4.558  0.00  0.00     0.169 HD
ENDROOT
BRANCH  11  27
ATOM     27  N1  <0> d           4.138   3.085  -3.703  0.00  0.00    -0.379 N 
ATOM     28  H14 <0> d           4.318   3.926  -3.254  0.00  0.00     0.158 HD
ATOM     29  H15 <0> d           4.415   2.958  -4.624  0.00  0.00     0.158 HD
ENDBRANCH  11  27
TORSDOF 1
