REMARK  3 active torsions:
REMARK  status: ('A' for Active; 'I' for Inactive)
REMARK    1  A    between atoms: C4_4  and  C5_5 
REMARK    2  A    between atoms: N1_7  and  S1_8 
REMARK    3  A    between atoms: S1_8  and  C6_11 
ROOT
ATOM      1  S1  <0> d           1.321   1.387   4.481  0.00  0.00     0.304 S 
ATOM      2  O2  <0> d           2.413   0.655   5.020  0.00  0.00    -0.197 OA
ATOM      3  O3  <0> d           1.477   2.681   3.914  0.00  0.00    -0.197 OA
ENDROOT
BRANCH   1   4
ATOM      4  N1  <0> d           0.646   0.435   3.306  0.00  0.00    -0.134 NA
ATOM      5  C5  <0> d           1.314   0.159   2.237  0.00  0.00     0.193 C 
ATOM      6  O1  <0> d           2.561   0.648   2.075  0.00  0.00    -0.174 OA
BRANCH   5   7
ATOM      7  C4  <0> d           0.700  -0.708   1.168  0.00  0.00     0.070 A 
ATOM      8  C2  <0> d           0.002  -0.004   0.002  0.00  0.00    -0.006 A 
ATOM      9  C1  <0> d          -0.019   1.526   0.010  0.00  0.00     0.011 C 
ATOM     10  C3  <0> d          -0.828  -0.728   1.065  0.00  0.00     0.018 A 
ENDBRANCH   5   7
ENDBRANCH   1   4
BRANCH   1  11
ATOM     11  C6  <0> d           0.132   1.543   5.772  0.00  0.00     0.191 A 
ATOM     12  N3  <0> d           0.261   1.076   7.023  0.00  0.00    -0.339 N 
ATOM     13  C8  <0> d          -0.809   1.374   7.707  0.00  0.00     0.184 A 
ATOM     14  H12 <0> d           1.030   0.594   7.366  0.00  0.00     0.167 HD
ATOM     15  N2  <0> d          -1.666   2.040   6.902  0.00  0.00    -0.336 N 
ATOM     16  C7  <0> d          -1.069   2.147   5.675  0.00  0.00     0.146 A 
ATOM     17  C9  <0> d          -2.988   2.552   7.273  0.00  0.00     0.158 C 
ATOM     18 Cl1  <0> d          -1.730   2.914   4.265  0.00  0.00    -0.061 Cl
ENDBRANCH   1  11
TORSDOF 3
