REMARK  2 active torsions:
REMARK  status: ('A' for Active; 'I' for Inactive)
REMARK    1  A    between atoms: N2_9  and  S1_11 
REMARK    2  A    between atoms: S1_11  and  N3_14 
ROOT
ATOM      1  C1  <0> d          -0.017   1.378   0.010  0.00  0.00     0.020 A 
ATOM      2  C2  <0> d           1.188   2.061   0.002  0.00  0.00     0.012 A 
ATOM      3  C3  <0> d           2.372   1.332  -0.009  0.00  0.00    -0.015 A 
ATOM      4  C4  <0> d           2.318  -0.043  -0.006  0.00  0.00     0.043 A 
ATOM      5  N1  <0> d           1.142  -0.659  -0.006  0.00  0.00    -0.265 NA
ATOM      6  C5  <0> d           0.002  -0.004   0.002  0.00  0.00     0.117 A 
ATOM      7  C6  <0> d           3.554  -0.905   0.016  0.00  0.00     0.080 C 
ATOM      8  C7  <0> d           4.772  -0.120  -0.468  0.00  0.00     0.143 C 
ATOM      9  N2  <0> d           4.786   1.175   0.231  0.00  0.00    -0.289 N 
ATOM     10  C8  <0> d           3.672   2.094  -0.032  0.00  0.00     0.177 C 
ENDROOT
BRANCH   9  11
ATOM     11  S1  <0> d           6.008   1.580   1.272  0.00  0.00     0.319 S 
ATOM     12  O1  <0> d           5.479   2.555   2.161  0.00  0.00    -0.182 OA
ATOM     13  O2  <0> d           6.572   0.359   1.730  0.00  0.00    -0.182 OA
BRANCH  11  14
ATOM     14  N3  <0> d           7.180   2.338   0.381  0.00  0.00    -0.291 N 
ATOM     15  C12 <0> d           7.160   3.796   0.193  0.00  0.00     0.166 C 
ATOM     16  C11 <0> d           8.545   4.349   0.567  0.00  0.00     0.290 C 
ATOM     17  N4  <0> d           9.575   3.638  -0.202  0.00  0.00     0.086 N 
ATOM     18  C10 <0> d           9.602   2.210   0.138  0.00  0.00     0.290 C 
ATOM     19  H14 <0> d          10.481   4.060  -0.068  0.00  0.00     0.316 HD
ATOM     20  C9  <0> d           8.265   1.569  -0.248  0.00  0.00     0.166 C 
ENDBRANCH  11  14
ENDBRANCH   9  11
TORSDOF 2
