REMARK  6 active torsions:
REMARK  status: ('A' for Active; 'I' for Inactive)
REMARK    1  A    between atoms: C6_6  and  C8_8 
REMARK       I    between atoms: C8_8  and  N1_10 
REMARK    2  A    between atoms: N1_10  and  N2_11 
REMARK       I    between atoms: N2_11  and  C9_12 
REMARK    3  A    between atoms: C9_12  and  C10_14 
REMARK    4  A    between atoms: N3_16  and  C18_23 
REMARK    5  A    between atoms: C18_23  and  C19_24 
REMARK    6  A    between atoms: C19_24  and  N4_25 
ROOT
ATOM      1  C10 <0> d           0.118  -6.998   4.904  0.00  0.00     0.061 A 
ATOM      2  C11 <0> d           0.111  -6.472   6.163  0.00  0.00     0.109 A 
ATOM      3  N3  <0> d           0.130  -7.471   7.077  0.00  0.00    -0.353 N 
ATOM      4  C12 <0> d           0.151  -8.699   6.449  0.00  0.00     0.045 A 
ATOM      5  C13 <0> d           0.139  -8.464   5.065  0.00  0.00     0.008 A 
ATOM      6  C14 <0> d           0.149  -9.534   4.174  0.00  0.00     0.015 A 
ATOM      7  C15 <0> d           0.168 -10.824   4.659  0.00  0.00     0.001 A 
ATOM      8  C16 <0> d           0.177 -11.059   6.026  0.00  0.00     0.002 A 
ATOM      9  C17 <0> d           0.175 -10.008   6.918  0.00  0.00     0.030 A 
ENDROOT
BRANCH   1  10
ATOM     10  C9  <0> d           0.103  -6.252   3.639  0.00  0.00     0.272 C 
ATOM     11  N2  <0> d           0.085  -4.905   3.652  0.00  0.00    -0.263 N 
ATOM     12  H9  <0> d           0.082  -4.428   4.496  0.00  0.00     0.190 HD
ATOM     13  O2  <0> d           0.106  -6.851   2.580  0.00  0.00    -0.266 OA
BRANCH  11  14
ATOM     14  N1  <0> d           0.070  -4.193   2.445  0.00  0.00    -0.263 N 
ATOM     15  C8  <0> d           0.052  -2.845   2.458  0.00  0.00     0.270 C 
ATOM     16  O1  <0> d           0.049  -2.248   3.516  0.00  0.00    -0.266 OA
ATOM     17  H8  <0> d           0.072  -4.670   1.601  0.00  0.00     0.190 HD
BRANCH  15  18
ATOM     18  C6  <0> d           0.036  -2.095   1.184  0.00  0.00     0.034 A 
ATOM     19  C5  <0> d           0.040  -2.778  -0.033  0.00  0.00     0.017 A 
ATOM     20  C4  <0> d           0.025  -2.071  -1.218  0.00  0.00     0.002 A 
ATOM     21  C3  <0> d           0.006  -0.688  -1.201  0.00  0.00     0.007 A 
ATOM     22  C2  <0> d           0.002  -0.004   0.002  0.00  0.00    -0.061 A 
ATOM     23  C1  <0> d          -0.018   1.503   0.010  0.00  0.00     0.048 C 
ATOM     24  C7  <0> d           0.023  -0.699   1.194  0.00  0.00     0.024 A 
ENDBRANCH  15  18
ENDBRANCH  11  14
ENDBRANCH   1  10
BRANCH   3  25
ATOM     25  C18 <0> d           0.129  -7.275   8.529  0.00  0.00     0.156 C 
BRANCH  25  26
ATOM     26  C19 <0> d           1.567  -7.306   9.049  0.00  0.00     0.254 C 
BRANCH  26  27
ATOM     27  N4  <0> d           1.566  -7.109  10.505  0.00  0.00    -0.077 N 
ATOM     28  C20 <0> d           0.895  -8.245  11.152  0.00  0.00     0.269 C 
ATOM     29  C21 <0> d           2.951  -7.019  10.988  0.00  0.00     0.269 C 
ATOM     30  H25 <0> d           1.075  -6.256  10.729  0.00  0.00     0.279 HD
ENDBRANCH  26  27
ENDBRANCH  25  26
ENDBRANCH   3  25
TORSDOF 6
