REMARK  4 active torsions:
REMARK  status: ('A' for Active; 'I' for Inactive)
REMARK    1  A    between atoms: C2_2  and  C3_3 
REMARK    2  A    between atoms: C2_2  and  N3_9 
REMARK    3  A    between atoms: N3_9  and  C7_10 
REMARK    4  A    between atoms: C7_10  and  C8_11 
ROOT
ATOM      1  N3  <0> d           0.713  -0.491   1.192  0.00  0.00    -0.061 N 
ATOM      2  H10 <0> d           0.290  -0.099   2.020  0.00  0.00     0.278 HD
ATOM      3  H15 <0> d           0.655  -1.497   1.230  0.00  0.00     0.278 HD
ENDROOT
BRANCH   1   4
ATOM      4  C2  <0> d           0.002  -0.004   0.002  0.00  0.00     0.218 C 
ATOM      5  C1  <0> d          -0.019   1.526   0.010  0.00  0.00     0.045 C 
BRANCH   4   6
ATOM      6  C3  <0> d          -1.412  -0.526   0.013  0.00  0.00     0.008 A 
ATOM      7  C5  <0> d          -2.103  -0.974  -1.061  0.00  0.00     0.122 A 
ATOM      8  N2  <0> d          -3.326  -1.353  -0.633  0.00  0.00    -0.285 N 
ATOM      9  N1  <0> d          -3.391  -1.122   0.747  0.00  0.00    -0.185 NA
ATOM     10  C6  <0> d          -4.398  -1.903  -1.467  0.00  0.00     0.179 C 
ATOM     11  C4  <0> d          -2.243  -0.627   1.133  0.00  0.00     0.149 A 
ENDBRANCH   4   6
ENDBRANCH   1   4
BRANCH   1  12
ATOM     12  C7  <0> d           2.122  -0.083   1.122  0.00  0.00     0.299 C 
BRANCH  12  13
ATOM     13  C8  <0> d           2.851  -0.582   2.343  0.00  0.00     0.100 A 
ATOM     14  S1  <0> d           3.064   0.192   3.823  0.00  0.00    -0.084 SA
ATOM     15  C10 <0> d           4.007  -1.089   4.635  0.00  0.00     0.071 A 
ATOM     16  C9  <0> d           4.073  -2.017   3.646  0.00  0.00     0.124 A 
ATOM     17  N4  <0> d           3.477  -1.720   2.508  0.00  0.00    -0.256 NA
ENDBRANCH  12  13
ENDBRANCH   1  12
TORSDOF 4
