REMARK  2 active torsions:
REMARK  status: ('A' for Active; 'I' for Inactive)
REMARK    1  A    between atoms: C2_2  and  N1_3 
REMARK    2  A    between atoms: C9_10  and  N2_13 
ROOT
ATOM      1  N1  <0> d          -1.553  -0.055   0.105  0.00  0.00    -0.315 N 
ATOM      2  C3  <0> d          -2.145  -0.658   1.216  0.00  0.00     0.052 A 
ATOM      3  C4  <0> d          -1.661  -0.861   2.508  0.00  0.00    -0.033 A 
ATOM      4  C5  <0> d          -2.446  -1.494   3.449  0.00  0.00     0.028 A 
ATOM      5  C6  <0> d          -3.717  -1.932   3.121  0.00  0.00     0.012 A 
ATOM      6  C7  <0> d          -4.204  -1.733   1.840  0.00  0.00     0.031 A 
ATOM      7  C8  <0> d          -3.422  -1.102   0.899  0.00  0.00     0.012 A 
ATOM      8  C9  <0> d          -3.649  -0.740  -0.551  0.00  0.00     0.344 A 
ATOM      9  C10 <0> d          -2.364  -0.056  -0.966  0.00  0.00     0.262 A 
ATOM     10  O1  <0> d          -2.113   0.403  -2.060  0.00  0.00    -0.270 OA
ATOM     11 Br1  <0> d          -4.786  -2.799   4.417  0.00  0.00    -0.051 Br
ATOM     12  C11 <0> d          -0.279  -0.389   2.876  0.00  0.00     0.050 C 
ENDROOT
BRANCH   8  13
ATOM     13  N2  <0> d          -3.879  -1.949  -1.353  0.00  0.00     0.096 N 
ATOM     14  H9  <0> d          -4.031  -1.716  -2.323  0.00  0.00     0.314 HD
ATOM     15  H10 <0> d          -3.114  -2.600  -1.254  0.00  0.00     0.314 HD
ENDBRANCH   8  13
BRANCH   1  16
ATOM     16  C2  <0> d          -0.205   0.519   0.109  0.00  0.00     0.128 C 
ATOM     17  C1  <0> d           0.809  -0.558  -0.284  0.00  0.00     0.027 C 
ENDBRANCH   1  16
TORSDOF 2
