REMARK  5 active torsions:
REMARK  status: ('A' for Active; 'I' for Inactive)
REMARK    1  A    between atoms: O1_2  and  C2_3 
REMARK    2  A    between atoms: C7_8  and  C8_9 
REMARK    3  A    between atoms: C17_19  and  C18_20 
REMARK    4  A    between atoms: C17_19  and  N3_33 
REMARK       I    between atoms: C18_20  and  N1_22 
REMARK    5  A    between atoms: N1_22  and  C19_23 
ROOT
ATOM      1  C8  <0> d          -5.768  -0.555   4.773  0.00  0.00     0.190 C 
ATOM      2  C9  <0> d          -4.849  -0.096   3.661  0.00  0.00     0.273 C 
ATOM      3  C10 <0> d          -4.964   2.303   4.067  0.00  0.00     0.276 C 
ATOM      4  C11 <0> d          -6.168   2.423   4.981  0.00  0.00     0.001 A 
ATOM      5  C12 <0> d          -6.987   3.531   4.907  0.00  0.00     0.012 A 
ATOM      6  C13 <0> d          -8.073   3.639   5.758  0.00  0.00     0.001 A 
ATOM      7  C14 <0> d          -8.333   2.641   6.680  0.00  0.00     0.003 A 
ATOM      8  C15 <0> d          -7.516   1.528   6.750  0.00  0.00     0.037 A 
ATOM      9  C16 <0> d          -6.433   1.416   5.889  0.00  0.00     0.077 A 
ATOM     10  O2  <0> d          -5.652   0.302   5.915  0.00  0.00    -0.339 OA
ATOM     11  N3  <0> d          -5.237   1.216   3.098  0.00  0.00    -0.056 N 
ATOM     12  H30 <0> d          -6.243   1.202   2.893  0.00  0.00     0.280 HD
ENDROOT
BRANCH  11  13
ATOM     13  C17 <0> d          -4.500   1.459   1.847  0.00  0.00     0.337 C 
BRANCH  13  14
ATOM     14  C18 <0> d          -3.012   1.415   2.079  0.00  0.00     0.244 C 
ATOM     15  O3  <0> d          -2.578   1.200   3.191  0.00  0.00    -0.272 OA
ATOM     16  N1  <0> d          -2.164   1.616   1.051  0.00  0.00    -0.346 N 
ATOM     17  H20 <0> d          -2.511   1.788   0.162  0.00  0.00     0.163 HD
BRANCH  16  18
ATOM     18  C19 <0> d          -0.717   1.573   1.277  0.00  0.00     0.176 C 
ATOM     19  C24 <0> d          -0.262   2.869   1.917  0.00  0.00     0.240 C 
ATOM     20  N2  <0> d          -0.650   4.040   1.410  0.00  0.00    -0.359 N 
ATOM     21  O4  <0> d           0.456   2.841   2.894  0.00  0.00    -0.271 OA
ATOM     22  C23 <0> d          -1.526   4.087   0.228  0.00  0.00     0.122 C 
ATOM     23  H29 <0> d          -0.352   4.865   1.822  0.00  0.00     0.162 HD
ATOM     24  C22 <0> d          -0.716   3.665  -0.999  0.00  0.00     0.020 C 
ATOM     25  C21 <0> d          -0.729   2.156  -1.163  0.00  0.00     0.004 C 
ATOM     26  C20 <0> d           0.008   1.414  -0.062  0.00  0.00     0.035 C 
ENDBRANCH  16  18
ENDBRANCH  13  14
ENDBRANCH  11  13
BRANCH   1  27
ATOM     27  C7  <0> d          -5.401  -1.962   5.168  0.00  0.00     0.006 A 
ATOM     28  C2  <0> d          -5.907  -3.039   4.455  0.00  0.00     0.077 A 
ATOM     29  C3  <0> d          -5.564  -4.333   4.819  0.00  0.00     0.037 A 
ATOM     30  C4  <0> d          -4.727  -4.546   5.897  0.00  0.00     0.003 A 
ATOM     31  C5  <0> d          -4.228  -3.472   6.611  0.00  0.00     0.001 A 
ATOM     32  C6  <0> d          -4.564  -2.181   6.246  0.00  0.00     0.012 A 
BRANCH  28  33
ATOM     33  O1  <0> d          -6.734  -2.826   3.398  0.00  0.00    -0.355 OA
ATOM     34  C1  <0> d          -7.218  -3.981   2.710  0.00  0.00     0.210 C 
ENDBRANCH  28  33
ENDBRANCH   1  27
TORSDOF 5
