REMARK  6 active torsions:
REMARK  status: ('A' for Active; 'I' for Inactive)
REMARK    1  A    between atoms: C5_6  and  C13_17 
REMARK    2  A    between atoms: C7_8  and  N2_9 
REMARK       I    between atoms: N2_9  and  C8_10 
REMARK    3  A    between atoms: C8_10  and  C9_12 
REMARK       I    between atoms: C13_17  and  N3_19 
REMARK    4  A    between atoms: N3_19  and  C15_21 
REMARK    5  A    between atoms: C15_21  and  C16_22 
REMARK    6  A    between atoms: C23_32  and  C24_33 
ROOT
ATOM      1  C1  <0> d          -0.619   1.549   0.281  0.00  0.00     0.152 C 
ATOM      2  N1  <0> d          -0.629   0.085   0.253  0.00  0.00    -0.360 N 
ATOM      3  C2  <0> d          -0.561  -0.722  -0.887  0.00  0.00     0.085 A 
ATOM      4  C3  <0> d          -0.596  -2.065  -0.518  0.00  0.00     0.059 A 
ATOM      5  C4  <0> d          -0.540  -3.050  -1.491  0.00  0.00     0.048 A 
ATOM      6  C5  <0> d          -0.449  -2.700  -2.840  0.00  0.00     0.036 A 
ATOM      7  C6  <0> d          -0.414  -1.353  -3.209  0.00  0.00     0.049 A 
ATOM      8  C7  <0> d          -0.470  -0.371  -2.237  0.00  0.00     0.065 A 
ATOM      9  N6  <0> d          -0.688  -2.171   0.877  0.00  0.00    -0.366 N 
ATOM     10  C23 <0> d          -0.706  -0.806   1.417  0.00  0.00     0.188 A 
ATOM     11  H25 <0> d          -0.729  -2.993   1.391  0.00  0.00     0.161 HD
ENDROOT
BRANCH   6  12
ATOM     12  C13 <0> d          -0.390  -3.751  -3.874  0.00  0.00     0.253 C 
ATOM     13  O3  <0> d          -0.924  -3.574  -4.952  0.00  0.00    -0.267 OA
ATOM     14  N3  <0> d           0.256  -4.907  -3.624  0.00  0.00    -0.349 N 
ATOM     15  C14 <0> d           0.811  -5.162  -2.292  0.00  0.00     0.153 C 
BRANCH  14  16
ATOM     16  C15 <0> d           0.404  -5.908  -4.683  0.00  0.00     0.172 C 
BRANCH  16  17
ATOM     17  C16 <0> d           1.700  -5.648  -5.454  0.00  0.00     0.200 A 
ATOM     18  N5  <0> d           1.668  -4.309  -6.056  0.00  0.00    -0.365 N 
ATOM     19  C22 <0> d           2.660  -3.632  -5.556  0.00  0.00     0.056 A 
ATOM     20  H34 <0> d           1.025  -3.989  -6.708  0.00  0.00     0.162 HD
ATOM     21  C17 <0> d           3.405  -4.487  -4.592  0.00  0.00     0.056 A 
ATOM     22  C21 <0> d           3.138  -2.258  -5.765  0.00  0.00     0.031 A 
ATOM     23  N4  <0> d           2.844  -5.661  -4.534  0.00  0.00    -0.365 N 
ATOM     24  C18 <0> d           4.570  -3.902  -3.914  0.00  0.00     0.031 A 
ATOM     25  H33 <0> d           3.130  -6.407  -3.984  0.00  0.00     0.162 HD
ATOM     26  C19 <0> d           4.924  -2.629  -4.180  0.00  0.00     0.002 A 
ATOM     27  C20 <0> d           4.220  -1.821  -5.090  0.00  0.00     0.002 A 
ENDBRANCH  16  17
ENDBRANCH  14  16
ENDBRANCH   6  12
BRANCH   8  28
ATOM     28  N2  <0> d          -0.435   0.980  -2.608  0.00  0.00    -0.323 N 
ATOM     29  C8  <0> d          -1.033   1.383  -3.747  0.00  0.00     0.251 C 
ATOM     30  O1  <0> d          -1.524   0.565  -4.496  0.00  0.00    -0.270 OA
ATOM     31  H8  <0> d           0.020   1.626  -2.044  0.00  0.00     0.169 HD
BRANCH  29  32
ATOM     32  C9  <0> d          -1.091   2.849  -4.090  0.00  0.00     0.213 C 
ATOM     33  O2  <0> d          -1.815   3.046  -5.315  0.00  0.00    -0.376 OA
ATOM     34  C12 <0> d          -1.217   4.109  -6.069  0.00  0.00     0.168 C 
ATOM     35  C11 <0> d           0.012   4.608  -5.279  0.00  0.00     0.029 C 
ATOM     36  C10 <0> d           0.333   3.393  -4.367  0.00  0.00     0.044 C 
ENDBRANCH  29  32
ENDBRANCH   8  28
BRANCH  10  37
ATOM     37  C24 <0> d          -2.007  -0.561   2.184  0.00  0.00     0.028 C 
ATOM     38  C27 <0> d          -2.169  -1.456   3.424  0.00  0.00     0.008 C 
ATOM     39  C26 <0> d          -2.745  -0.224   4.141  0.00  0.00     0.001 C 
ATOM     40  C25 <0> d          -1.937   0.632   3.151  0.00  0.00     0.008 C 
ENDBRANCH  10  37
TORSDOF 6
