REMARK  5 active torsions:
REMARK  status: ('A' for Active; 'I' for Inactive)
REMARK    1  A    between atoms: C9_9  and  C10_11 
REMARK    2  A    between atoms: C11_14  and  S2_16 
REMARK    3  A    between atoms: S2_16  and  C12_17 
REMARK    4  A    between atoms: C12_17  and  C13_18 
REMARK       I    between atoms: C13_18  and  N3_20 
REMARK    5  A    between atoms: N3_20  and  C14_21 
ROOT
ATOM      1  C12 <0> d           5.367  -8.852   2.713  0.00  0.00     0.186 C 
ENDROOT
BRANCH   1   2
ATOM      2  S2  <0> d           4.435  -7.927   3.964  0.00  0.00    -0.073 SA
BRANCH   2   3
ATOM      3  C11 <0> d           3.419  -6.839   3.021  0.00  0.00     0.231 A 
ATOM      4  N2  <0> d           3.377  -6.752   1.713  0.00  0.00    -0.114 NA
ATOM      5  N1  <0> d           2.522  -5.853   1.373  0.00  0.00    -0.125 NA
ATOM      6  C10 <0> d           1.989  -5.334   2.440  0.00  0.00     0.184 A 
ATOM      7  O1  <0> d           2.545  -5.939   3.508  0.00  0.00    -0.267 OA
BRANCH   6   8
ATOM      8  C9  <0> d           0.944  -4.249   2.475  0.00  0.00     0.135 C 
ATOM      9  C8  <0> d           1.550  -2.865   2.140  0.00  0.00     0.059 C 
ATOM     10  C6  <0> d           0.597  -2.028   1.324  0.00  0.00    -0.065 C 
ATOM     11  C5  <0> d          -0.366  -2.662   0.665  0.00  0.00    -0.019 C 
ATOM     12  C7  <0> d           0.742  -0.510   1.240  0.00  0.00     0.039 C 
ATOM     13  C4  <0> d          -1.399  -2.047  -0.237  0.00  0.00     0.046 C 
ATOM     14  S1  <0> d          -0.227  -4.389   1.060  0.00  0.00    -0.120 SA
ATOM     15  C3  <0> d          -1.435  -0.534   0.013  0.00  0.00     0.009 C 
ATOM     16  C2  <0> d           0.002  -0.004   0.002  0.00  0.00    -0.014 C 
ATOM     17  C1  <0> d          -0.019   1.526   0.010  0.00  0.00     0.010 C 
ENDBRANCH   6   8
ENDBRANCH   2   3
ENDBRANCH   1   2
BRANCH   1  18
ATOM     18  C13 <0> d           6.287  -9.832   3.395  0.00  0.00     0.233 C 
ATOM     19  O2  <0> d           6.312  -9.899   4.605  0.00  0.00    -0.272 OA
ATOM     20  N3  <0> d           7.083 -10.633   2.659  0.00  0.00    -0.306 N 
ATOM     21  H17 <0> d           7.063 -10.580   1.691  0.00  0.00     0.171 HD
BRANCH  20  22
ATOM     22  C14 <0> d           7.914 -11.517   3.275  0.00  0.00     0.162 A 
ATOM     23  O4  <0> d           8.011 -11.662   4.601  0.00  0.00    -0.325 OA
ATOM     24  C20 <0> d           8.976 -12.681   4.893  0.00  0.00     0.162 A 
ATOM     25  C16 <0> d           9.481 -13.150   3.555  0.00  0.00     0.017 A 
ATOM     26  C21 <0> d           8.322 -13.840   5.648  0.00  0.00     0.045 C 
ATOM     27  C15 <0> d           8.783 -12.389   2.599  0.00  0.00     0.097 A 
ATOM     28  C17 <0> d          10.395 -14.078   3.124  0.00  0.00     0.063 A 
ATOM     29  C18 <0> d           9.075 -12.637   1.231  0.00  0.00     0.300 A 
ATOM     30  N5  <0> d           9.988 -13.570   0.927  0.00  0.00    -0.106 NA
ATOM     31  O3  <0> d           8.505 -12.011   0.349  0.00  0.00    -0.264 OA
ATOM     32  N4  <0> d          10.605 -14.245   1.827  0.00  0.00    -0.151 NA
ATOM     33  C19 <0> d          11.158 -14.907   4.125  0.00  0.00     0.073 C 
ENDBRANCH  20  22
ENDBRANCH   1  18
TORSDOF 5
