REMARK  5 active torsions:
REMARK  status: ('A' for Active; 'I' for Inactive)
REMARK    1  A    between atoms: C4_4  and  N1_7 
REMARK    2  A    between atoms: C9_11  and  N2_14 
REMARK    3  A    between atoms: N2_14  and  C11_15 
REMARK    4  A    between atoms: C11_15  and  C12_16 
REMARK    5  A    between atoms: C12_16  and  C13_17 
ROOT
ATOM      1  N2  <0> d           5.553  -3.085   1.238  0.00  0.00    -0.061 N 
ATOM      2  H9  <0> d           6.556  -3.190   1.265  0.00  0.00     0.278 HD
ATOM      3  H21 <0> d           5.250  -2.544   2.034  0.00  0.00     0.278 HD
ENDROOT
BRANCH   1   4
ATOM      4  C9  <0> d           5.167  -2.393   0.001  0.00  0.00     0.286 A 
ATOM      5  C8  <0> d           5.915  -1.050  -0.127  0.00  0.00     0.146 A 
ATOM      6  C7  <0> d           4.802  -0.025  -0.139  0.00  0.00     0.233 A 
ATOM      7  N1  <0> d           3.624  -0.652  -0.037  0.00  0.00    -0.251 N 
ATOM      8  O1  <0> d           4.954   1.175  -0.226  0.00  0.00    -0.273 OA
ATOM      9  C10 <0> d           3.711  -1.985   0.053  0.00  0.00     0.262 A 
ATOM     10  O2  <0> d           2.772  -2.745   0.157  0.00  0.00    -0.270 OA
BRANCH   7  11
ATOM     11  C4  <0> d           2.399   0.031  -0.021  0.00  0.00     0.045 A 
ATOM     12  C3  <0> d           1.625   0.044   1.131  0.00  0.00     0.030 A 
ATOM     13  C2  <0> d           0.420   0.718   1.145  0.00  0.00     0.002 A 
ATOM     14  C1  <0> d          -0.016   1.380   0.011  0.00  0.00     0.000 A 
ATOM     15  C6  <0> d           0.753   1.369  -1.138  0.00  0.00     0.002 A 
ATOM     16  C5  <0> d           1.959   0.696  -1.157  0.00  0.00     0.030 A 
ENDBRANCH   7  11
ENDBRANCH   1   4
BRANCH   1  17
ATOM     17  C11 <0> d           4.921  -4.410   1.276  0.00  0.00     0.237 C 
BRANCH  17  18
ATOM     18  C12 <0> d           5.323  -5.130   2.564  0.00  0.00     0.064 C 
BRANCH  18  19
ATOM     19  C13 <0> d           4.674  -6.490   2.603  0.00  0.00    -0.048 A 
ATOM     20  C20 <0> d           3.283  -6.820   3.096  0.00  0.00     0.155 A 
ATOM     21  N3  <0> d           3.128  -8.268   2.924  0.00  0.00    -0.385 N 
ATOM     22  C19 <0> d           4.238  -8.751   2.421  0.00  0.00     0.038 A 
ATOM     23  H20 <0> d           2.338  -8.784   3.149  0.00  0.00     0.160 HD
ATOM     24  C14 <0> d           5.220  -7.663   2.210  0.00  0.00    -0.006 A 
ATOM     25  C18 <0> d           4.621 -10.074   2.066  0.00  0.00     0.030 A 
ATOM     26  C15 <0> d           6.531  -8.011   1.649  0.00  0.00     0.014 A 
ATOM     27  C16 <0> d           6.793  -9.303   1.347  0.00  0.00     0.001 A 
ATOM     28  C17 <0> d           5.846 -10.316   1.555  0.00  0.00     0.002 A 
ENDBRANCH  18  19
ENDBRANCH  17  18
ENDBRANCH   1  17
TORSDOF 5
