REMARK  5 active torsions:
REMARK  status: ('A' for Active; 'I' for Inactive)
REMARK    1  A    between atoms: C4_5  and  C7_9 
REMARK    2  A    between atoms: C7_9  and  N6_31 
REMARK    3  A    between atoms: C12_14  and  C13_15 
REMARK       I    between atoms: C13_15  and  N3_17 
REMARK    4  A    between atoms: N3_17  and  C14_18 
REMARK    5  A    between atoms: C17_21  and  N4_24 
ROOT
ATOM      1  C8  <0> d           2.708  -1.870  -1.613  0.00  0.00     0.236 C 
ATOM      2  C9  <0> d           2.081  -1.688  -2.997  0.00  0.00     0.028 C 
ATOM      3  C10 <0> d           1.857  -3.062  -3.635  0.00  0.00     0.004 C 
ATOM      4  C11 <0> d           0.965  -3.903  -2.718  0.00  0.00     0.043 C 
ATOM      5  C12 <0> d           1.625  -4.020  -1.342  0.00  0.00     0.280 C 
ATOM      6  N6  <0> d           1.790  -2.666  -0.772  0.00  0.00    -0.053 N 
ATOM      7  H29 <0> d           0.875  -2.202  -0.745  0.00  0.00     0.281 HD
ENDROOT
BRANCH   5   8
ATOM      8  C13 <0> d           0.741  -4.831  -0.429  0.00  0.00     0.253 C 
ATOM      9  O1  <0> d          -0.088  -4.277   0.261  0.00  0.00    -0.271 OA
ATOM     10  N3  <0> d           0.871  -6.171  -0.381  0.00  0.00    -0.325 N 
ATOM     11  H18 <0> d           1.583  -6.608  -0.875  0.00  0.00     0.169 HD
BRANCH  10  12
ATOM     12  C14 <0> d          -0.020  -6.934   0.384  0.00  0.00     0.034 A 
ATOM     13  C19 <0> d          -1.341  -6.529   0.520  0.00  0.00     0.032 A 
ATOM     14  C18 <0> d          -2.220  -7.281   1.273  0.00  0.00     0.034 A 
ATOM     15  C17 <0> d          -1.782  -8.443   1.895  0.00  0.00     0.058 A 
ATOM     16  C16 <0> d          -0.461  -8.849   1.759  0.00  0.00     0.034 A 
ATOM     17  C15 <0> d           0.416  -8.100   1.001  0.00  0.00     0.032 A 
BRANCH  15  18
ATOM     18  N4  <0> d          -2.675  -9.207   2.661  0.00  0.00    -0.245 N 
ATOM     19  N5  <0> d          -4.028  -8.919   2.881  0.00  0.00    -0.180 NA
ATOM     20  C22 <0> d          -4.528  -9.859   3.642  0.00  0.00     0.140 A 
ATOM     21  C21 <0> d          -3.512 -10.776   3.931  0.00  0.00     0.040 A 
ATOM     22  C20 <0> d          -2.384 -10.356   3.311  0.00  0.00     0.120 A 
ENDBRANCH  15  18
ENDBRANCH  10  12
ENDBRANCH   5   8
BRANCH   6  23
ATOM     23  C7  <0> d           2.320  -2.760   0.604  0.00  0.00     0.297 C 
BRANCH  23  24
ATOM     24  C4  <0> d           2.593  -1.371   1.121  0.00  0.00     0.085 A 
ATOM     25  N1  <0> d           1.641  -0.697   1.742  0.00  0.00    -0.253 NA
ATOM     26  C3  <0> d           1.881   0.521   2.195  0.00  0.00     0.055 A 
ATOM     27  C2  <0> d           3.129   1.091   2.018  0.00  0.00     0.055 A 
ATOM     28  C23 <0> d           0.793   1.291   2.898  0.00  0.00     0.072 C 
ATOM     29  C1  <0> d           3.402   2.481   2.533  0.00  0.00     0.072 C 
ATOM     30  N2  <0> d           4.081   0.418   1.396  0.00  0.00    -0.255 NA
ATOM     31  C5  <0> d           3.841  -0.800   0.943  0.00  0.00     0.057 A 
ATOM     32  C6  <0> d           4.927  -1.567   0.233  0.00  0.00     0.072 C 
ENDBRANCH  23  24
ENDBRANCH   6  23
TORSDOF 5
