REMARK  7 active torsions:
REMARK  status: ('A' for Active; 'I' for Inactive)
REMARK    1  A    between atoms: C3_3  and  C5_6 
REMARK    2  A    between atoms: C5_6  and  N1_7 
REMARK       I    between atoms: N2_10  and  C10_13 
REMARK    3  A    between atoms: C10_13  and  C11_15 
REMARK    4  A    between atoms: C11_15  and  C12_16 
REMARK    5  A    between atoms: C12_16  and  C13_17 
REMARK    6  A    between atoms: C13_17  and  C14_18 
REMARK    7  A    between atoms: C14_18  and  C15_19 
ROOT
ATOM      1  C11 <0> d           7.145  -4.195  -2.612  0.00  0.00     0.103 C 
ENDROOT
BRANCH   1   2
ATOM      2  C10 <0> d           5.643  -4.079  -2.554  0.00  0.00     0.219 C 
ATOM      3  N2  <0> d           5.061  -2.864  -2.538  0.00  0.00    -0.349 N 
ATOM      4  C7  <0> d           3.597  -2.729  -2.481  0.00  0.00     0.156 C 
ATOM      5  C8  <0> d           5.872  -1.638  -2.578  0.00  0.00     0.156 C 
ATOM      6  C6  <0> d           3.241  -1.770  -1.340  0.00  0.00     0.292 C 
ATOM      7  N1  <0> d           3.975  -0.510  -1.517  0.00  0.00     0.094 N 
ATOM      8  C9  <0> d           5.426  -0.722  -1.433  0.00  0.00     0.292 C 
ATOM      9  O2  <0> d           4.959  -5.080  -2.521  0.00  0.00    -0.273 OA
BRANCH   7  10
ATOM     10  C5  <0> d           3.533   0.497  -0.543  0.00  0.00     0.304 C 
BRANCH  10  11
ATOM     11  C3  <0> d           3.914   1.892  -1.044  0.00  0.00     0.149 C 
ATOM     12  C2  <0> d           3.466   2.970  -0.025  0.00  0.00     0.036 C 
ATOM     13  C1  <0> d           3.338   4.213  -0.947  0.00  0.00     0.029 C 
ATOM     14  C4  <0> d           2.849   3.589  -2.272  0.00  0.00     0.168 C 
ATOM     15  O1  <0> d           3.203   2.201  -2.253  0.00  0.00    -0.384 OA
ENDBRANCH  10  11
ENDBRANCH   7  10
ENDBRANCH   1   2
BRANCH   1  16
ATOM     16  C12 <0> d           7.543  -5.672  -2.619  0.00  0.00     0.009 C 
BRANCH  16  17
ATOM     17  C13 <0> d           9.067  -5.789  -2.678  0.00  0.00     0.002 C 
BRANCH  17  18
ATOM     18  C14 <0> d           9.465  -7.266  -2.685  0.00  0.00     0.017 C 
BRANCH  18  19
ATOM     19  C15 <0> d          10.990  -7.383  -2.745  0.00  0.00     0.072 C 
ATOM     20  S1  <0> d          11.638  -6.857  -4.399  0.00  0.00    -0.160 SA
ATOM     21  C18 <0> d          12.222  -8.523  -5.024  0.00  0.00     0.101 C 
ATOM     22  C17 <0> d          11.316  -9.403  -4.165  0.00  0.00     0.119 C 
ATOM     23  C16 <0> d          11.427  -8.826  -2.720  0.00  0.00     0.123 C 
ATOM     24  N3  <0> d          11.645 -10.784  -3.891  0.00  0.00    -0.336 N 
ATOM     25  N4  <0> d          10.822  -9.890  -1.976  0.00  0.00    -0.335 N 
ATOM     26  C19 <0> d          11.160 -11.031  -2.637  0.00  0.00     0.316 C 
ATOM     27  H32 <0> d          10.290  -9.818  -1.168  0.00  0.00     0.164 HD
ATOM     28  O3  <0> d          11.032 -12.147  -2.172  0.00  0.00    -0.247 OA
ATOM     29  H31 <0> d          12.111 -11.403  -4.473  0.00  0.00     0.164 HD
ENDBRANCH  18  19
ENDBRANCH  17  18
ENDBRANCH  16  17
ENDBRANCH   1  16
TORSDOF 7
