REMARK  4 active torsions:
REMARK  status: ('A' for Active; 'I' for Inactive)
REMARK    1  A    between atoms: C6_7  and  O7_27 
REMARK    2  A    between atoms: C8_9  and  O3_13 
REMARK    3  A    between atoms: O3_13  and  C11_14 
REMARK    4  A    between atoms: C11_14  and  C12_15 
REMARK       I    between atoms: C12_15  and  N1_17 
ROOT
ATOM      1  C1  <0> d           0.709  13.447   3.985  0.00  0.00     0.046 C 
ATOM      2  C2  <0> d           2.224  13.336   3.798  0.00  0.00     0.067 C 
ATOM      3  C3  <0> d           2.866  12.848   5.105  0.00  0.00     0.122 C 
ATOM      4  C4  <0> d           2.290  11.476   5.404  0.00  0.00     0.168 C 
ATOM      5  O1  <0> d           1.994  11.140   6.532  0.00  0.00    -0.292 OA
ATOM      6  C5  <0> d           2.109  10.577   4.259  0.00  0.00     0.076 A 
ATOM      7  C6  <0> d           1.823   9.216   4.455  0.00  0.00     0.085 A 
ATOM      8  C7  <0> d           1.645   8.392   3.358  0.00  0.00     0.074 A 
ATOM      9  C8  <0> d           1.750   8.911   2.074  0.00  0.00     0.074 A 
ATOM     10  C9  <0> d           2.042  10.254   1.873  0.00  0.00     0.074 A 
ATOM     11  C10 <0> d           2.221  11.097   2.956  0.00  0.00     0.089 A 
ATOM     12  O2  <0> d           2.508  12.404   2.755  0.00  0.00    -0.339 OA
ATOM     13  C20 <0> d           2.795  14.707   3.429  0.00  0.00     0.046 C 
ENDROOT
BRANCH   9  14
ATOM     14  O3  <0> d           1.571   8.096   1.004  0.00  0.00    -0.342 OA
BRANCH  14  15
ATOM     15  C11 <0> d           1.279   6.724   1.275  0.00  0.00     0.278 C 
BRANCH  15  16
ATOM     16  C12 <0> d           1.113   5.979  -0.025  0.00  0.00     0.244 C 
ATOM     17  O4  <0> d           1.234   6.566  -1.079  0.00  0.00    -0.271 OA
ATOM     18  N1  <0> d           0.832   4.661  -0.015  0.00  0.00    -0.350 N 
ATOM     19  C17 <0> d           0.682   3.937   1.255  0.00  0.00     0.131 C 
ATOM     20  C13 <0> d           0.667   3.921  -1.274  0.00  0.00     0.131 C 
ATOM     21  C16 <0> d           1.621   2.726   1.245  0.00  0.00     0.088 C 
ATOM     22  C15 <0> d           1.345   1.882  -0.001  0.00  0.00     0.167 C 
ATOM     23  C14 <0> d           1.606   2.711  -1.260  0.00  0.00     0.088 C 
ATOM     24  O6  <0> d           2.208   0.733   0.001  0.00  0.00    -0.353 OA
ATOM     25  O5  <0> d          -0.018   1.438   0.010  0.00  0.00    -0.353 OA
ATOM     26  C19 <0> d           1.406  -0.333  -0.564  0.00  0.00     0.197 C 
ATOM     27  C18 <0> d           0.002  -0.004   0.002  0.00  0.00     0.197 C 
ENDBRANCH  15  16
ENDBRANCH  14  15
ENDBRANCH   9  14
BRANCH   7  28
ATOM     28  O7  <0> d           1.723   8.713   5.711  0.00  0.00    -0.360 OA
ATOM     29  H22 <0> d           2.558   8.385   6.071  0.00  0.00     0.217 HD
ENDBRANCH   7  28
TORSDOF 4
