REMARK  6 active torsions:
REMARK  status: ('A' for Active; 'I' for Inactive)
REMARK    1  A    between atoms: C2_3  and  C12_18 
REMARK    2  A    between atoms: C5_6  and  C6_7 
REMARK       I    between atoms: C6_7  and  N2_9 
REMARK    3  A    between atoms: N2_9  and  C7_10 
REMARK    4  A    between atoms: N4_13  and  C10_15 
REMARK    5  A    between atoms: C10_15  and  C11_16 
REMARK    6  A    between atoms: C11_16  and  O2_17 
ROOT
ATOM      1  C1  <0> d           0.133   1.488   0.473  0.00  0.00     0.156 C 
ATOM      2  N1  <0> d           0.026   0.048   0.230  0.00  0.00    -0.346 N 
ATOM      3  C2  <0> d          -0.311  -0.537  -0.955  0.00  0.00     0.045 A 
ATOM      4  C3  <0> d          -0.304  -1.905  -0.782  0.00  0.00     0.033 A 
ATOM      5  C4  <0> d           0.046  -2.162   0.542  0.00  0.00     0.038 A 
ATOM      6  C5  <0> d           0.254  -0.944   1.159  0.00  0.00     0.103 A 
ENDROOT
BRANCH   6   7
ATOM      7  C6  <0> d           0.645  -0.742   2.556  0.00  0.00     0.273 C 
ATOM      8  O1  <0> d           0.699  -1.691   3.317  0.00  0.00    -0.266 OA
ATOM      9  N2  <0> d           0.946   0.495   3.000  0.00  0.00    -0.319 N 
ATOM     10  H6  <0> d           1.006   1.233   2.374  0.00  0.00     0.169 HD
BRANCH   9  11
ATOM     11  C7  <0> d           1.174   0.714   4.371  0.00  0.00     0.071 A 
ATOM     12  C9  <0> d           1.484   1.903   4.949  0.00  0.00     0.143 A 
ATOM     13  N4  <0> d           1.619   1.686   6.284  0.00  0.00    -0.277 N 
ATOM     14  N3  <0> d           1.393   0.324   6.523  0.00  0.00    -0.183 NA
ATOM     15  C8  <0> d           1.128  -0.257   5.382  0.00  0.00     0.169 A 
BRANCH  13  16
ATOM     16  C10 <0> d           1.948   2.696   7.293  0.00  0.00     0.176 C 
BRANCH  16  17
ATOM     17  C11 <0> d           0.882   2.686   8.390  0.00  0.00     0.185 C 
BRANCH  17  18
ATOM     18  O2  <0> d           1.203   3.671   9.374  0.00  0.00    -0.399 OA
ATOM     19  H13 <0> d           0.569   3.721  10.103  0.00  0.00     0.209 HD
ENDBRANCH  17  18
ENDBRANCH  16  17
ENDBRANCH  13  16
ENDBRANCH   9  11
ENDBRANCH   6   7
BRANCH   3  20
ATOM     20  C12 <0> d          -0.630   0.174  -2.211  0.00  0.00    -0.009 A 
ATOM     21  C17 <0> d          -1.328  -0.479  -3.228  0.00  0.00     0.017 A 
ATOM     22  C16 <0> d          -1.627   0.191  -4.396  0.00  0.00     0.043 A 
ATOM     23  C15 <0> d          -1.226   1.507  -4.565  0.00  0.00     0.116 A 
ATOM     24  C14 <0> d          -0.528   2.159  -3.560  0.00  0.00     0.043 A 
ATOM     25  F1  <0> d          -1.517   2.157  -5.713  0.00  0.00    -0.206 F 
ATOM     26  C13 <0> d          -0.229   1.500  -2.386  0.00  0.00     0.017 A 
ENDBRANCH   3  20
TORSDOF 6
