REMARK  6 active torsions:
REMARK  status: ('A' for Active; 'I' for Inactive)
REMARK       I    between atoms: C2_2  and  N1_4 
REMARK    1  A    between atoms: N1_4  and  C3_5 
REMARK    2  A    between atoms: C3_5  and  C4_6 
REMARK    3  A    between atoms: C4_6  and  C5_7 
REMARK    4  A    between atoms: C5_7  and  N2_8 
REMARK       I    between atoms: N2_8  and  C6_9 
REMARK    5  A    between atoms: C6_9  and  C7_11 
REMARK    6  A    between atoms: C8_12  and  C9_13 
ROOT
ATOM      1  C7  <0> d          -5.538  -6.574  -0.196  0.00  0.00     0.075 C 
ATOM      2  C8  <0> d          -5.753  -7.892   0.015  0.00  0.00     0.022 C 
ENDROOT
BRANCH   1   3
ATOM      3  C6  <0> d          -4.173  -6.053  -0.234  0.00  0.00     0.241 C 
ATOM      4  N2  <0> d          -3.958  -4.739  -0.445  0.00  0.00    -0.358 N 
ATOM      5  H12 <0> d          -4.710  -4.139  -0.571  0.00  0.00     0.162 HD
ATOM      6  O2  <0> d          -3.230  -6.806  -0.076  0.00  0.00    -0.269 OA
BRANCH   4   7
ATOM      7  C5  <0> d          -2.590  -4.218  -0.482  0.00  0.00     0.124 C 
BRANCH   7   8
ATOM      8  C4  <0> d          -2.626  -2.709  -0.734  0.00  0.00     0.039 C 
BRANCH   8   9
ATOM      9  C3  <0> d          -1.197  -2.164  -0.774  0.00  0.00     0.124 C 
BRANCH   9  10
ATOM     10  N1  <0> d          -1.232  -0.719  -1.014  0.00  0.00    -0.361 N 
ATOM     11  C2  <0> d          -0.082  -0.021  -1.089  0.00  0.00     0.213 C 
ATOM     12  C1  <0> d          -0.117   1.465  -1.337  0.00  0.00     0.117 C 
ATOM     13  O1  <0> d           0.982  -0.588  -0.958  0.00  0.00    -0.274 OA
ATOM     14  H5  <0> d          -2.083  -0.265  -1.120  0.00  0.00     0.162 HD
ENDBRANCH   9  10
ENDBRANCH   8   9
ENDBRANCH   7   8
ENDBRANCH   4   7
ENDBRANCH   1   3
BRANCH   2  15
ATOM     15  C9  <0> d          -7.123  -8.401   0.136  0.00  0.00     0.033 A 
ATOM     16  C17 <0> d          -8.262  -7.473   0.159  0.00  0.00     0.256 A 
ATOM     17  N3  <0> d          -9.517  -7.947   0.264  0.00  0.00    -0.322 N 
ATOM     18  O3  <0> d          -8.070  -6.273   0.077  0.00  0.00    -0.267 OA
ATOM     19  C16 <0> d          -9.758  -9.301   0.363  0.00  0.00     0.045 A 
ATOM     20  H1  <0> d         -10.263  -7.327   0.275  0.00  0.00     0.169 HD
ATOM     21  C11 <0> d          -8.692 -10.222   0.351  0.00  0.00    -0.008 A 
ATOM     22  C15 <0> d         -11.064  -9.771   0.478  0.00  0.00     0.030 A 
ATOM     23  C10 <0> d          -7.359  -9.762   0.235  0.00  0.00     0.030 A 
ATOM     24  C12 <0> d          -8.960 -11.596   0.454  0.00  0.00     0.014 A 
ATOM     25  C13 <0> d         -10.248 -12.031   0.566  0.00  0.00     0.001 A 
ATOM     26  C14 <0> d         -11.301 -11.125   0.578  0.00  0.00     0.002 A 
ENDBRANCH   2  15
TORSDOF 6
