REMARK  2 active torsions:
REMARK  status: ('A' for Active; 'I' for Inactive)
REMARK    1  A    between atoms: C7_7  and  N1_12 
REMARK    2  A    between atoms: N1_12  and  C9_13 
ROOT
ATOM      1  C1  <0> d           3.874  -1.839  -3.060  0.00  0.00     0.001 A 
ATOM      2  C2  <0> d           5.042  -1.741  -2.327  0.00  0.00     0.002 A 
ATOM      3  C3  <0> d           4.966  -1.711  -0.946  0.00  0.00     0.024 A 
ATOM      4  C4  <0> d           3.742  -1.775  -0.321  0.00  0.00     0.067 A 
ATOM      5  C5  <0> d           2.557  -1.858  -1.034  0.00  0.00    -0.005 A 
ATOM      6  C6  <0> d           2.653  -1.898  -2.429  0.00  0.00     0.011 A 
ATOM      7  C7  <0> d           1.285  -1.878  -0.222  0.00  0.00     0.234 C 
ATOM      8  C8  <0> d           1.545  -2.310   1.239  0.00  0.00     0.183 C 
ATOM      9  S1  <0> d           3.301  -1.781   1.403  0.00  0.00     0.178 S 
ATOM     10  O1  <0> d           4.087  -2.802   2.001  0.00  0.00    -0.223 OA
ATOM     11  O2  <0> d           3.389  -0.429   1.831  0.00  0.00    -0.223 OA
ENDROOT
BRANCH   7  12
ATOM     12  N1  <0> d           0.339  -2.819  -0.837  0.00  0.00    -0.061 N 
ATOM     13  H8  <0> d           0.249  -2.612  -1.820  0.00  0.00     0.278 HD
ATOM     14  H18 <0> d           0.680  -3.762  -0.721  0.00  0.00     0.278 HD
BRANCH  12  15
ATOM     15  C9  <0> d          -0.972  -2.689  -0.187  0.00  0.00     0.190 C 
ATOM     16  C13 <0> d          -2.048  -3.322  -1.074  0.00  0.00     0.059 C 
ATOM     17  C12 <0> d          -3.398  -3.252  -0.355  0.00  0.00     0.169 C 
ATOM     18  O3  <0> d          -3.299  -3.917   0.907  0.00  0.00    -0.391 OA
ATOM     19  C11 <0> d          -2.341  -3.339   1.796  0.00  0.00     0.169 C 
ATOM     20  C10 <0> d          -0.949  -3.412   1.163  0.00  0.00     0.059 C 
ENDBRANCH  12  15
ENDBRANCH   7  12
TORSDOF 2
