REMARK  4 active torsions:
REMARK  status: ('A' for Active; 'I' for Inactive)
REMARK    1  A    between atoms: C2_2  and  N3_25 
REMARK    2  A    between atoms: C5_5  and  N4_27 
REMARK    3  A    between atoms: C8_8  and  N4_27 
REMARK    4  A    between atoms: N2_16  and  C15_17 
ROOT
ATOM      1  C8  <0> d           2.422  -0.242   0.519  0.00  0.00     0.223 C 
ATOM      2  C9  <0> d           0.954  -0.620   0.752  0.00  0.00     0.047 C 
ATOM      3  C10 <0> d           0.096  -0.068  -0.390  0.00  0.00    -0.040 C 
ATOM      4  C11 <0> d           0.022   1.460  -0.283  0.00  0.00     0.069 C 
ATOM      5  C12 <0> d           1.423   1.994  -0.126  0.00  0.00     0.047 A 
ATOM      6  C13 <0> d           2.492   1.237   0.229  0.00  0.00     0.016 A 
ATOM      7  C14 <0> d           3.612   2.065   0.270  0.00  0.00     0.150 A 
ATOM      8  N1  <0> d           3.233   3.279  -0.048  0.00  0.00    -0.179 NA
ATOM      9  N2  <0> d           1.853   3.258  -0.301  0.00  0.00    -0.238 N 
ATOM     10  C21 <0> d          -1.314  -0.655  -0.298  0.00  0.00     0.015 C 
ATOM     11  C22 <0> d           0.723  -0.455  -1.731  0.00  0.00     0.015 C 
ENDROOT
BRANCH   1  12
ATOM     12  N4  <0> d           3.205  -0.550   1.730  0.00  0.00    -0.062 N 
ATOM     13  H33 <0> d           3.137   0.237   2.386  0.00  0.00     0.278 HD
ATOM     14  H34 <0> d           2.827  -1.397   2.171  0.00  0.00     0.278 HD
BRANCH  12  15
ATOM     15  C5  <0> d           4.621  -0.773   1.382  0.00  0.00     0.190 C 
ATOM     16  C4  <0> d           5.494  -0.474   2.604  0.00  0.00     0.060 C 
ATOM     17  C3  <0> d           6.957  -0.767   2.264  0.00  0.00     0.236 C 
ATOM     18  N3  <0> d           7.087  -2.193   1.896  0.00  0.00    -0.071 N 
ATOM     19  C7  <0> d           6.305  -2.475   0.673  0.00  0.00     0.236 C 
ATOM     20  H32 <0> d           6.725  -2.770   2.664  0.00  0.00     0.279 HD
ATOM     21  C6  <0> d           4.822  -2.233   0.966  0.00  0.00     0.060 C 
BRANCH  18  22
ATOM     22  C2  <0> d           8.509  -2.528   1.673  0.00  0.00     0.230 C 
ATOM     23  C1  <0> d           8.602  -3.914   1.032  0.00  0.00     0.034 C 
ENDBRANCH  18  22
ENDBRANCH  12  15
ENDBRANCH   1  12
BRANCH   9  24
ATOM     24  C15 <0> d           1.064   4.356  -0.671  0.00  0.00     0.058 A 
ATOM     25  C20 <0> d          -0.194   4.529  -0.109  0.00  0.00     0.031 A 
ATOM     26  C19 <0> d          -0.969   5.612  -0.475  0.00  0.00     0.002 A 
ATOM     27  C18 <0> d          -0.494   6.523  -1.400  0.00  0.00     0.000 A 
ATOM     28  C17 <0> d           0.758   6.353  -1.961  0.00  0.00     0.002 A 
ATOM     29  C16 <0> d           1.541   5.275  -1.595  0.00  0.00     0.031 A 
ENDBRANCH   9  24
TORSDOF 4
