REMARK  2 active torsions:
REMARK  status: ('A' for Active; 'I' for Inactive)
REMARK    1  A    between atoms: C3_3  and  N3_17 
REMARK    2  A    between atoms: N1_6  and  C6_9 
ROOT
ATOM      1  C1  <0> d           0.022   1.869  -0.551  0.00  0.00     0.072 C 
ATOM      2  C2  <0> d           0.102   0.378  -0.346  0.00  0.00     0.056 A 
ATOM      3  C3  <0> d           0.173  -0.549  -1.325  0.00  0.00     0.120 A 
ATOM      4  C4  <0> d           0.235  -1.861  -0.678  0.00  0.00     0.291 A 
ATOM      5  O1  <0> d           0.307  -2.941  -1.236  0.00  0.00    -0.264 OA
ATOM      6  N1  <0> d           0.197  -1.645   0.653  0.00  0.00    -0.243 N 
ATOM      7  N2  <0> d           0.120  -0.264   0.867  0.00  0.00    -0.293 N 
ATOM      8  C5  <0> d           0.064   0.391   2.176  0.00  0.00     0.178 C 
ENDROOT
BRANCH   6   9
ATOM      9  C6  <0> d           0.234  -2.676   1.693  0.00  0.00     0.067 C 
ATOM     10  C9  <0> d           1.450  -3.588   1.441  0.00  0.00     0.173 C 
ATOM     11  S1  <0> d           0.684  -5.226   1.094  0.00  0.00     0.146 S 
ATOM     12  C8  <0> d          -1.030  -4.644   0.730  0.00  0.00     0.143 C 
ATOM     13  O2  <0> d           1.255  -5.768  -0.089  0.00  0.00    -0.228 OA
ATOM     14  O3  <0> d           0.671  -5.999   2.286  0.00  0.00    -0.228 OA
ATOM     15  C7  <0> d          -1.099  -3.424   1.690  0.00  0.00     0.048 C 
ATOM     16  C10 <0> d           0.407  -1.994   3.052  0.00  0.00     0.041 C 
ENDBRANCH   6   9
BRANCH   3  17
ATOM     17  N3  <0> d           0.186  -0.300  -2.714  0.00  0.00    -0.393 N 
ATOM     18  H16 <0> d           0.140   0.611  -3.043  0.00  0.00     0.156 HD
ATOM     19  H17 <0> d           0.240  -1.040  -3.339  0.00  0.00     0.156 HD
ENDBRANCH   3  17
TORSDOF 2
