REMARK  4 active torsions:
REMARK  status: ('A' for Active; 'I' for Inactive)
REMARK    1  A    between atoms: N1_2  and  C2_3 
REMARK    2  A    between atoms: N1_2  and  S1_9 
REMARK    3  A    between atoms: S1_9  and  N2_12 
REMARK    4  A    between atoms: N2_12  and  C8_13 
ROOT
ATOM      1  N2  <0> d           1.210  -0.651  -2.138  0.00  0.00    -0.298 N 
ATOM      2  H16 <0> d           1.334  -0.116  -2.938  0.00  0.00     0.174 HD
ENDROOT
BRANCH   1   3
ATOM      3  S1  <0> d          -0.258  -0.670  -1.374  0.00  0.00     0.317 S 
ATOM      4  O1  <0> d          -1.119   0.175  -2.126  0.00  0.00    -0.183 OA
ATOM      5  O2  <0> d          -0.000  -0.460   0.007  0.00  0.00    -0.183 OA
BRANCH   3   6
ATOM      6  N1  <0> d          -0.863  -2.206  -1.513  0.00  0.00    -0.294 N 
ATOM      7  C1  <0> d          -0.684  -3.165  -0.421  0.00  0.00     0.165 C 
BRANCH   6   8
ATOM      8  C2  <0> d          -1.577  -2.604  -2.729  0.00  0.00     0.097 C 
ATOM      9  C7  <0> d          -0.931  -3.864  -3.309  0.00  0.00     0.026 C 
ATOM     10  C6  <0> d          -1.677  -4.280  -4.579  0.00  0.00     0.002 C 
ATOM     11  C5  <0> d          -3.141  -4.568  -4.240  0.00  0.00     0.000 C 
ATOM     12  C4  <0> d          -3.786  -3.308  -3.659  0.00  0.00     0.002 C 
ATOM     13  C3  <0> d          -3.041  -2.892  -2.390  0.00  0.00     0.026 C 
ENDBRANCH   6   8
ENDBRANCH   3   6
ENDBRANCH   1   3
BRANCH   1  14
ATOM     14  C8  <0> d           2.323  -1.443  -1.608  0.00  0.00     0.098 C 
ATOM     15  C12 <0> d           3.152  -2.005  -2.768  0.00  0.00     0.064 C 
ATOM     16  C11 <0> d           4.381  -2.716  -2.203  0.00  0.00     0.127 C 
ATOM     17  N3  <0> d           5.202  -1.856  -1.346  0.00  0.00    -0.066 N 
ATOM     18  C15 <0> d           4.059  -4.078  -1.575  0.00  0.00     0.039 C 
ATOM     19  C13 <0> d           5.189  -3.474  -3.264  0.00  0.00     0.039 C 
ATOM     20  C10 <0> d           4.398  -1.373  -0.216  0.00  0.00     0.235 C 
ATOM     21  H21 <0> d           5.535  -1.069  -1.882  0.00  0.00     0.278 HD
ATOM     22  H30 <0> d           5.989  -2.383  -0.998  0.00  0.00     0.278 HD
ATOM     23  C9  <0> d           3.216  -0.554  -0.738  0.00  0.00     0.053 C 
ATOM     24  C14 <0> d           5.357  -4.592  -2.221  0.00  0.00     0.005 C 
ENDBRANCH   1  14
TORSDOF 4
