REMARK  6 active torsions:
REMARK  status: ('A' for Active; 'I' for Inactive)
REMARK    1  A    between atoms: C5_5  and  C8_8 
REMARK    2  A    between atoms: C8_8  and  C9_9 
REMARK    3  A    between atoms: C8_8  and  O4_21 
REMARK    4  A    between atoms: C9_9  and  N1_10 
REMARK    5  A    between atoms: N1_10  and  S1_11 
REMARK    6  A    between atoms: S1_11  and  C10_14 
ROOT
ATOM      1  N1  <0> d           1.529  -6.227   0.092  0.00  0.00    -0.312 N 
ATOM      2  H11 <0> d           0.704  -6.738   0.103  0.00  0.00     0.172 HD
ENDROOT
BRANCH   1   3
ATOM      3  C9  <0> d           1.488  -4.768   0.218  0.00  0.00     0.169 C 
BRANCH   3   4
ATOM      4  C8  <0> d           0.059  -4.275  -0.021  0.00  0.00     0.169 C 
BRANCH   4   5
ATOM      5  C5  <0> d           0.040  -2.768  -0.013  0.00  0.00    -0.028 A 
ATOM      6  C4  <0> d           0.025  -2.071  -1.206  0.00  0.00     0.010 A 
ATOM      7  C3  <0> d           0.006  -0.689  -1.199  0.00  0.00     0.007 A 
ATOM      8  C2  <0> d           0.002  -0.004   0.002  0.00  0.00    -0.062 A 
ATOM      9  C1  <0> d          -0.018   1.503   0.010  0.00  0.00     0.048 C 
ATOM     10  C7  <0> d           0.023  -0.702   1.195  0.00  0.00     0.007 A 
ATOM     11  C6  <0> d           0.037  -2.084   1.188  0.00  0.00     0.010 A 
ENDBRANCH   4   5
BRANCH   4  12
ATOM     12  O4  <0> d          -0.795  -4.768   1.013  0.00  0.00    -0.389 OA
ATOM     13  H18 <0> d          -0.540  -4.485   1.901  0.00  0.00     0.210 HD
ENDBRANCH   4  12
ENDBRANCH   3   4
ENDBRANCH   1   3
BRANCH   1  14
ATOM     14  S1  <0> d           2.982  -7.004  -0.069  0.00  0.00     0.263 S 
ATOM     15  O1  <0> d           2.694  -8.394  -0.141  0.00  0.00    -0.200 OA
ATOM     16  O2  <0> d           3.697  -6.321  -1.090  0.00  0.00    -0.200 OA
BRANCH  14  17
ATOM     17  C10 <0> d           3.877  -6.752   1.428  0.00  0.00     0.137 A 
ATOM     18  C12 <0> d           3.839  -7.546   2.515  0.00  0.00     0.100 A 
ATOM     19  O3  <0> d           4.656  -7.021   3.441  0.00  0.00    -0.216 OA
ATOM     20  C13 <0> d           3.026  -8.806   2.663  0.00  0.00     0.081 C 
ATOM     21  N2  <0> d           5.220  -5.838   2.903  0.00  0.00    -0.132 NA
ATOM     22  C11 <0> d           4.750  -5.682   1.697  0.00  0.00     0.084 A 
ATOM     23  C14 <0> d           5.083  -4.553   0.757  0.00  0.00     0.074 C 
ENDBRANCH  14  17
ENDBRANCH   1  14
TORSDOF 6
