REMARK  5 active torsions:
REMARK  status: ('A' for Active; 'I' for Inactive)
REMARK    1  A    between atoms: C2_2  and  N1_3 
REMARK    2  A    between atoms: C6_7  and  C11_16 
REMARK       I    between atoms: C11_16  and  N3_18 
REMARK    3  A    between atoms: N3_18  and  C12_19 
REMARK    4  A    between atoms: C14_21  and  N4_26 
REMARK       I    between atoms: N4_26  and  C19_27 
REMARK    5  A    between atoms: C19_27  and  C20_29 
ROOT
ATOM      1  C11 <0> d          -2.258  -1.830  -5.982  0.00  0.00     0.256 C 
ATOM      2  O3  <0> d          -1.755  -2.167  -7.037  0.00  0.00    -0.267 OA
ATOM      3  N3  <0> d          -3.569  -1.522  -5.929  0.00  0.00    -0.322 N 
ATOM      4  H10 <0> d          -3.989  -1.335  -5.076  0.00  0.00     0.169 HD
ENDROOT
BRANCH   1   5
ATOM      5  C6  <0> d          -1.433  -1.759  -4.760  0.00  0.00     0.034 A 
ATOM      6  C5  <0> d          -2.012  -1.372  -3.546  0.00  0.00     0.019 A 
ATOM      7  C4  <0> d          -1.245  -1.306  -2.407  0.00  0.00     0.033 A 
ATOM      8  C3  <0> d           0.111  -1.623  -2.454  0.00  0.00     0.064 A 
ATOM      9  N1  <0> d           0.871  -1.551  -1.294  0.00  0.00    -0.308 N 
ATOM     10  C8  <0> d           0.696  -2.011  -3.664  0.00  0.00     0.063 A 
ATOM     11  C10 <0> d           2.186  -1.851  -1.325  0.00  0.00     0.316 A 
ATOM     12  C9  <0> d           2.810  -2.268  -2.614  0.00  0.00     0.314 A 
ATOM     13  O2  <0> d           2.853  -1.784  -0.313  0.00  0.00    -0.262 OA
ATOM     14  N2  <0> d           2.050  -2.330  -3.726  0.00  0.00    -0.317 N 
ATOM     15  O1  <0> d           3.992  -2.545  -2.662  0.00  0.00    -0.262 OA
ATOM     16  H1  <0> d           2.447  -2.598  -4.570  0.00  0.00     0.169 HD
ATOM     17  C7  <0> d          -0.077  -2.078  -4.814  0.00  0.00     0.049 A 
BRANCH   9  18
ATOM     18  C2  <0> d           0.245  -1.143  -0.034  0.00  0.00     0.128 C 
ATOM     19  C1  <0> d           0.334   0.378   0.110  0.00  0.00     0.027 C 
ENDBRANCH   9  18
ENDBRANCH   1   5
BRANCH   3  20
ATOM     20  C12 <0> d          -4.324  -1.473  -7.106  0.00  0.00     0.043 A 
ATOM     21  C17 <0> d          -5.706  -1.602  -7.051  0.00  0.00    -0.035 A 
ATOM     22  C16 <0> d          -6.453  -1.549  -8.213  0.00  0.00     0.011 A 
ATOM     23  C18 <0> d          -6.392  -1.794  -5.723  0.00  0.00     0.050 C 
ATOM     24  C15 <0> d          -5.827  -1.378  -9.432  0.00  0.00     0.030 A 
ATOM     25  C14 <0> d          -4.444  -1.254  -9.494  0.00  0.00     0.036 A 
ATOM     26  C13 <0> d          -3.692  -1.302  -8.330  0.00  0.00     0.059 A 
BRANCH  25  27
ATOM     27  N4  <0> d          -3.811  -1.081 -10.730  0.00  0.00    -0.327 N 
ATOM     28  C19 <0> d          -4.318  -1.665 -11.834  0.00  0.00     0.226 C 
ATOM     29  O4  <0> d          -5.269  -2.412 -11.743  0.00  0.00    -0.273 OA
ATOM     30  H17 <0> d          -3.008  -0.541 -10.792  0.00  0.00     0.169 HD
BRANCH  28  31
ATOM     31  C20 <0> d          -3.703  -1.389 -13.182  0.00  0.00     0.078 A 
ATOM     32  C22 <0> d          -4.323  -2.082 -14.397  0.00  0.00     0.015 A 
ATOM     33  C21 <0> d          -4.530  -0.581 -14.184  0.00  0.00     0.015 A 
ENDBRANCH  28  31
ENDBRANCH  25  27
ENDBRANCH   3  20
TORSDOF 5
