REMARK  3 active torsions:
REMARK  status: ('A' for Active; 'I' for Inactive)
REMARK    1  A    between atoms: C4_4  and  N2_10 
REMARK       I    between atoms: N2_10  and  C9_11 
REMARK    2  A    between atoms: C9_11  and  C10_13 
REMARK       I    between atoms: C10_13  and  N3_15 
REMARK    3  A    between atoms: N3_15  and  C11_16 
ROOT
ATOM      1  N2  <0> d          -3.536  -0.939   1.022  0.00  0.00    -0.348 N 
ATOM      2  C9  <0> d          -4.542  -0.486   1.795  0.00  0.00     0.310 C 
ATOM      3  O1  <0> d          -4.329   0.369   2.629  0.00  0.00    -0.262 OA
ATOM      4  H16 <0> d          -3.707  -1.623   0.355  0.00  0.00     0.163 HD
ENDROOT
BRANCH   1   5
ATOM      5  C4  <0> d          -2.181  -0.398   1.188  0.00  0.00     0.089 C 
ATOM      6  C3  <0> d          -1.407  -0.566  -0.119  0.00  0.00     0.063 C 
ATOM      7  C2  <0> d           0.016  -0.040   0.035  0.00  0.00     0.121 C 
ATOM      8  C1  <0> d           0.004   1.492   0.046  0.00  0.00     0.046 C 
ATOM      9  N1  <0> d           0.703  -0.572   1.199  0.00  0.00    -0.059 N 
ATOM     10  C17 <0> d           0.808  -0.478  -1.219  0.00  0.00     0.046 C 
ATOM     11  C6  <0> d          -0.030  -0.667   2.449  0.00  0.00     0.121 C 
ATOM     12  H9  <0> d           1.057  -1.504   0.964  0.00  0.00     0.279 HD
ATOM     13  H24 <0> d           1.542  -0.008   1.362  0.00  0.00     0.279 HD
ATOM     14  C5  <0> d          -1.454  -1.187   2.277  0.00  0.00     0.063 C 
ATOM     15  C7  <0> d           0.720  -1.668   3.359  0.00  0.00     0.046 C 
ATOM     16  C8  <0> d          -0.055   0.677   3.184  0.00  0.00     0.046 C 
ENDBRANCH   1   5
BRANCH   2  17
ATOM     17  C10 <0> d          -5.920  -1.036   1.626  0.00  0.00     0.314 C 
ATOM     18  O2  <0> d          -6.134  -1.892   0.791  0.00  0.00    -0.262 OA
ATOM     19  N3  <0> d          -6.927  -0.583   2.399  0.00  0.00    -0.317 N 
ATOM     20  H17 <0> d          -6.744   0.052   3.109  0.00  0.00     0.169 HD
BRANCH  19  21
ATOM     21  C11 <0> d          -8.233  -1.029   2.178  0.00  0.00     0.058 A 
ATOM     22  C16 <0> d          -9.306  -0.169   2.383  0.00  0.00     0.082 A 
ATOM     23  C15 <0> d         -10.597  -0.612   2.157  0.00  0.00     0.058 A 
ATOM     24 Cl1  <0> d          -9.026   1.460   2.913  0.00  0.00    -0.080 Cl
ATOM     25  C14 <0> d         -10.820  -1.913   1.740  0.00  0.00     0.026 A 
ATOM     26 Cl2  <0> d         -11.938   0.462   2.404  0.00  0.00    -0.082 Cl
ATOM     27  C13 <0> d          -9.754  -2.771   1.542  0.00  0.00     0.004 A 
ATOM     28  C12 <0> d          -8.462  -2.333   1.760  0.00  0.00     0.031 A 
ENDBRANCH  19  21
ENDBRANCH   2  17
TORSDOF 3
