REMARK  2 active torsions:
REMARK  status: ('A' for Active; 'I' for Inactive)
REMARK    1  A    between atoms: C6_6  and  C7_7 
REMARK    2  A    between atoms: C9_10  and  C10_13 
ROOT
ATOM      1  C7  <0> d          -1.268  -0.763   0.009  0.00  0.00     0.061 A 
ATOM      2  C8  <0> d          -1.407  -2.116   0.009  0.00  0.00     0.149 A 
ATOM      3  N1  <0> d          -2.716  -2.395   0.017  0.00  0.00    -0.243 NA
ATOM      4  C9  <0> d          -3.399  -1.282   0.023  0.00  0.00     0.135 A 
ATOM      5  N2  <0> d          -2.540  -0.239   0.023  0.00  0.00    -0.341 N 
ATOM      6  H1  <0> d          -2.776   0.702   0.030  0.00  0.00     0.167 HD
ENDROOT
BRANCH   1   7
ATOM      7  C6  <0> d           0.002  -0.004   0.002  0.00  0.00    -0.005 A 
ATOM      8  C1  <0> d          -0.017   1.391   0.010  0.00  0.00     0.017 A 
ATOM      9  C2  <0> d           1.169   2.096   0.002  0.00  0.00     0.040 A 
ATOM     10  C3  <0> d           2.383   1.423  -0.013  0.00  0.00     0.102 A 
ATOM     11  O2  <0> d           3.540   2.140  -0.024  0.00  0.00    -0.346 OA
ATOM     12  C4  <0> d           2.408   0.032  -0.018  0.00  0.00     0.103 A 
ATOM     13  C15 <0> d           4.734   1.440   0.341  0.00  0.00     0.202 C 
ATOM     14  C14 <0> d           4.753   0.100  -0.406  0.00  0.00     0.202 C 
ATOM     15  O1  <0> d           3.591  -0.643  -0.025  0.00  0.00    -0.346 OA
ATOM     16  C5  <0> d           1.222  -0.681  -0.012  0.00  0.00     0.053 A 
ENDBRANCH   1   7
BRANCH   4  17
ATOM     17  C10 <0> d          -4.902  -1.179   0.033  0.00  0.00     0.254 C 
ATOM     18  N3  <0> d          -5.494  -2.401  -0.543  0.00  0.00    -0.064 N 
ATOM     19  C13 <0> d          -6.321  -3.054   0.498  0.00  0.00     0.233 C 
ATOM     20  H13 <0> d          -6.069  -2.159  -1.335  0.00  0.00     0.278 HD
ATOM     21  H18 <0> d          -4.759  -3.027  -0.837  0.00  0.00     0.278 HD
ATOM     22  C12 <0> d          -6.707  -1.913   1.472  0.00  0.00     0.030 C 
ATOM     23  C11 <0> d          -5.411  -1.060   1.485  0.00  0.00     0.042 C 
ENDBRANCH   4  17
TORSDOF 2
