REMARK  2 active torsions:
REMARK  status: ('A' for Active; 'I' for Inactive)
REMARK    1  A    between atoms: C9_9  and  C20_24 
REMARK    2  A    between atoms: N1_12  and  C12_16 
REMARK       I    between atoms: C20_24  and  N3_26 
ROOT
ATOM      1  C1  <0> d          -3.397   1.930  -0.394  0.00  0.00     0.048 C 
ATOM      2  C2  <0> d          -1.961   2.382  -0.336  0.00  0.00    -0.061 A 
ATOM      3  C3  <0> d          -0.939   1.460  -0.463  0.00  0.00     0.009 A 
ATOM      4  C4  <0> d           0.376   1.873  -0.413  0.00  0.00     0.038 A 
ATOM      5  C5  <0> d           0.680   3.219  -0.231  0.00  0.00     0.080 A 
ATOM      6  C6  <0> d          -0.346   4.138  -0.102  0.00  0.00    -0.001 A 
ATOM      7  C7  <0> d          -1.664   3.719  -0.149  0.00  0.00     0.019 A 
ATOM      8  C8  <0> d          -0.052   5.609   0.086  0.00  0.00     0.138 C 
ATOM      9  C9  <0> d           1.358   5.746   0.683  0.00  0.00     0.161 C 
ATOM     10  C10 <0> d           2.310   4.974  -0.243  0.00  0.00     0.160 C 
ATOM     11  O1  <0> d           1.986   3.588  -0.178  0.00  0.00    -0.318 OA
ATOM     12  N1  <0> d           2.172   5.478  -1.606  0.00  0.00    -0.289 N 
ATOM     13  C11 <0> d           1.059   6.098  -2.027  0.00  0.00     0.177 C 
ATOM     14  S1  <0> d           1.025   6.749  -3.610  0.00  0.00    -0.041 SA
ATOM     15  N2  <0> d          -0.030   6.227  -1.250  0.00  0.00    -0.357 N 
ATOM     16  C19 <0> d           3.749   5.182   0.233  0.00  0.00     0.073 C 
ATOM     17  H9  <0> d          -0.799   6.725  -1.569  0.00  0.00     0.162 HD
ENDROOT
BRANCH  12  18
ATOM     18  C12 <0> d           3.233   5.309  -2.502  0.00  0.00     0.045 A 
ATOM     19  C17 <0> d           4.145   6.337  -2.702  0.00  0.00    -0.035 A 
ATOM     20  C16 <0> d           5.194   6.166  -3.584  0.00  0.00     0.009 A 
ATOM     21  C18 <0> d           3.993   7.637  -1.954  0.00  0.00     0.050 C 
ATOM     22  C15 <0> d           5.332   4.976  -4.274  0.00  0.00     0.001 A 
ATOM     23  C14 <0> d           4.423   3.952  -4.081  0.00  0.00     0.002 A 
ATOM     24  C13 <0> d           3.374   4.115  -3.197  0.00  0.00     0.030 A 
ENDBRANCH  12  18
BRANCH   9  25
ATOM     25  C20 <0> d           1.391   5.151   2.067  0.00  0.00     0.230 C 
ATOM     26  O2  <0> d           1.713   3.992   2.221  0.00  0.00    -0.273 OA
ATOM     27  N3  <0> d           1.063   5.907   3.134  0.00  0.00    -0.360 N 
ATOM     28  C21 <0> d           0.986   5.301   4.465  0.00  0.00     0.152 C 
ATOM     29  C22 <0> d           0.783   7.335   2.961  0.00  0.00     0.152 C 
ENDBRANCH   9  25
TORSDOF 2
