REMARK  5 active torsions:
REMARK  status: ('A' for Active; 'I' for Inactive)
REMARK    1  A    between atoms: C2_2  and  C3_3 
REMARK    2  A    between atoms: C2_2  and  N3_14 
REMARK    3  A    between atoms: C6_6  and  N1_9 
REMARK       I    between atoms: N3_14  and  C12_15 
REMARK    4  A    between atoms: C12_15  and  C13_17 
REMARK    5  A    between atoms: C13_17  and  C14_18 
ROOT
ATOM      1  N3  <0> d           2.205   4.093   0.891  0.00  0.00    -0.353 N 
ATOM      2  C12 <0> d           2.091   5.310   1.458  0.00  0.00     0.219 C 
ATOM      3  O1  <0> d           1.111   5.991   1.240  0.00  0.00    -0.274 OA
ATOM      4  H13 <0> d           2.989   3.548   1.066  0.00  0.00     0.163 HD
ENDROOT
BRANCH   1   5
ATOM      5  C2  <0> d           1.147   3.593   0.011  0.00  0.00     0.113 C 
ATOM      6  C1  <0> d           1.375   4.114  -1.410  0.00  0.00     0.037 C 
BRANCH   5   7
ATOM      7  C3  <0> d           1.171   2.086   0.002  0.00  0.00    -0.036 A 
ATOM      8  C8  <0> d           2.380   1.415  -0.013  0.00  0.00     0.011 A 
ATOM      9  C7  <0> d           2.405   0.034  -0.021  0.00  0.00     0.030 A 
ATOM     10  C6  <0> d           1.214  -0.680  -0.013  0.00  0.00     0.039 A 
ATOM     11  C5  <0> d           0.002  -0.004   0.002  0.00  0.00     0.030 A 
ATOM     12  C4  <0> d          -0.017   1.377   0.010  0.00  0.00     0.011 A 
BRANCH  10  13
ATOM     13  N1  <0> d           1.236  -2.083  -0.021  0.00  0.00    -0.315 N 
ATOM     14  C11 <0> d           0.157  -2.907  -0.017  0.00  0.00     0.214 A 
ATOM     15  N2  <0> d           0.578  -4.143  -0.027  0.00  0.00    -0.254 NA
ATOM     16  C10 <0> d           1.919  -4.155  -0.039  0.00  0.00     0.135 A 
ATOM     17  C9  <0> d           2.352  -2.880  -0.042  0.00  0.00     0.117 A 
ENDBRANCH  10  13
ENDBRANCH   5   7
ENDBRANCH   1   5
BRANCH   2  18
ATOM     18  C13 <0> d           3.180   5.825   2.364  0.00  0.00     0.128 C 
BRANCH  18  19
ATOM     19  C14 <0> d           2.805   7.219   2.871  0.00  0.00     0.153 C 
ATOM     20  S1  <0> d           1.322   7.110   3.919  0.00  0.00    -0.113 SA
ATOM     21  C21 <0> d           1.963   6.430   5.418  0.00  0.00     0.028 A 
ATOM     22  C16 <0> d           3.284   6.696   5.776  0.00  0.00     0.051 A 
ATOM     23  C20 <0> d           1.158   5.643   6.224  0.00  0.00     0.021 A 
ATOM     24  N4  <0> d           4.124   7.464   4.976  0.00  0.00    -0.325 N 
ATOM     25  C17 <0> d           3.778   6.164   6.964  0.00  0.00     0.031 A 
ATOM     26  C15 <0> d           3.934   7.777   3.698  0.00  0.00     0.236 C 
ATOM     27  H16 <0> d           4.930   7.807   5.393  0.00  0.00     0.169 HD
ATOM     28  O2  <0> d           4.707   8.550   3.172  0.00  0.00    -0.272 OA
ATOM     29  C18 <0> d           2.971   5.382   7.766  0.00  0.00     0.002 A 
ATOM     30  C19 <0> d           1.664   5.118   7.399  0.00  0.00     0.002 A 
ENDBRANCH  18  19
ENDBRANCH   2  18
TORSDOF 5
