REMARK  5 active torsions:
REMARK  status: ('A' for Active; 'I' for Inactive)
REMARK    1  A    between atoms: C5_5  and  N1_8 
REMARK    2  A    between atoms: C10_11  and  N2_14 
REMARK       I    between atoms: N2_14  and  C14_16 
REMARK       I    between atoms: C14_16  and  N3_18 
REMARK    3  A    between atoms: N3_18  and  C15_19 
REMARK    4  A    between atoms: C15_19  and  C16_20 
REMARK    5  A    between atoms: C17_22  and  C18_25 
ROOT
ATOM      1  N2  <0> d          -4.172   0.124   7.383  0.00  0.00    -0.334 N 
ATOM      2  C13 <0> d          -4.254   1.581   7.518  0.00  0.00     0.155 C 
ATOM      3  C14 <0> d          -4.708  -0.671   8.330  0.00  0.00     0.318 C 
ATOM      4  O1  <0> d          -4.640  -1.880   8.218  0.00  0.00    -0.247 OA
ATOM      5  N3  <0> d          -5.318  -0.127   9.401  0.00  0.00    -0.335 N 
ATOM      6  H26 <0> d          -5.372   0.837   9.491  0.00  0.00     0.164 HD
ENDROOT
BRANCH   1   7
ATOM      7  C10 <0> d          -3.509  -0.468   6.218  0.00  0.00     0.091 C 
ATOM      8  C9  <0> d          -4.221  -0.018   4.940  0.00  0.00     0.053 C 
ATOM      9  C8  <0> d          -3.477  -0.575   3.724  0.00  0.00     0.237 C 
ATOM     10  N1  <0> d          -2.097  -0.073   3.720  0.00  0.00    -0.067 N 
ATOM     11  C12 <0> d          -1.386  -0.560   4.908  0.00  0.00     0.237 C 
ATOM     12  H34 <0> d          -2.108   0.936   3.726  0.00  0.00     0.280 HD
ATOM     13  C11 <0> d          -2.051  -0.003   6.169  0.00  0.00     0.053 C 
BRANCH  10  14
ATOM     14  C5  <0> d          -1.409  -0.547   2.511  0.00  0.00     0.188 C 
ATOM     15  C4  <0> d          -2.149  -0.040   1.272  0.00  0.00     0.033 C 
ATOM     16  C3  <0> d          -1.433  -0.534   0.013  0.00  0.00     0.006 C 
ATOM     17  C2  <0> d           0.002  -0.004   0.002  0.00  0.00    -0.019 C 
ATOM     18  C1  <0> d          -0.019   1.526   0.010  0.00  0.00     0.010 C 
ATOM     19  C7  <0> d           0.742  -0.511   1.242  0.00  0.00     0.006 C 
ATOM     20  C6  <0> d           0.026  -0.018   2.500  0.00  0.00     0.033 C 
ENDBRANCH  10  14
ENDBRANCH   1   7
BRANCH   5  21
ATOM     21  C15 <0> d          -5.900  -0.992  10.431  0.00  0.00     0.213 C 
BRANCH  21  22
ATOM     22  C16 <0> d          -6.517  -0.141  11.511  0.00  0.00     0.190 A 
ATOM     23  O2  <0> d          -5.894   0.304  12.610  0.00  0.00    -0.194 OA
ATOM     24  N5  <0> d          -6.856   1.060  13.331  0.00  0.00    -0.111 NA
ATOM     25  C17 <0> d          -7.959   1.012  12.642  0.00  0.00     0.160 A 
ATOM     26  N4  <0> d          -7.750   0.283  11.540  0.00  0.00    -0.207 NA
BRANCH  25  27
ATOM     27  C18 <0> d          -9.260   1.670  13.023  0.00  0.00     0.060 A 
ATOM     28  C20 <0> d          -9.902   1.251  14.347  0.00  0.00     0.013 A 
ATOM     29  C19 <0> d          -9.245   2.626  14.217  0.00  0.00     0.013 A 
ENDBRANCH  25  27
ENDBRANCH  21  22
ENDBRANCH   5  21
TORSDOF 5
