REMARK  5 active torsions:
REMARK  status: ('A' for Active; 'I' for Inactive)
REMARK    1  A    between atoms: C5_6  and  C15_21 
REMARK    2  A    between atoms: C8_9  and  C9_10 
REMARK    3  A    between atoms: C8_9  and  N3_27 
REMARK       I    between atoms: C9_10  and  N1_12 
REMARK    4  A    between atoms: N1_12  and  C10_13 
REMARK    5  A    between atoms: C11_14  and  C14_18 
REMARK       I    between atoms: C14_18  and  N2_20 
ROOT
ATOM      1  C8  <0> d          -0.334   1.818  -0.183  0.00  0.00     0.338 C 
ENDROOT
BRANCH   1   2
ATOM      2  C9  <0> d          -0.584   0.337  -0.310  0.00  0.00     0.248 C 
ATOM      3  O1  <0> d           0.350  -0.436  -0.340  0.00  0.00    -0.271 OA
ATOM      4  N1  <0> d          -1.847  -0.128  -0.390  0.00  0.00    -0.319 N 
ATOM      5  H10 <0> d          -2.594   0.490  -0.365  0.00  0.00     0.169 HD
BRANCH   4   6
ATOM      6  C10 <0> d          -2.077  -1.491  -0.506  0.00  0.00     0.092 A 
ATOM      7  S2  <0> d          -0.919  -2.776  -0.570  0.00  0.00    -0.083 SA
ATOM      8  C13 <0> d          -2.023  -4.165  -0.719  0.00  0.00     0.053 A 
ATOM      9  C12 <0> d          -3.241  -3.594  -0.715  0.00  0.00     0.027 A 
ATOM     10  C11 <0> d          -3.294  -2.156  -0.595  0.00  0.00     0.066 A 
BRANCH  10  11
ATOM     11  C14 <0> d          -4.569  -1.433  -0.573  0.00  0.00     0.252 C 
ATOM     12  O2  <0> d          -4.579  -0.220  -0.474  0.00  0.00    -0.268 OA
ATOM     13  N2  <0> d          -5.731  -2.111  -0.661  0.00  0.00    -0.366 N 
ATOM     14  H13 <0> d          -5.723  -3.078  -0.739  0.00  0.00     0.159 HD
ATOM     15  H14 <0> d          -6.574  -1.633  -0.646  0.00  0.00     0.159 HD
ENDBRANCH  10  11
ENDBRANCH   4   6
ENDBRANCH   1   2
BRANCH   1  16
ATOM     16  N3  <0> d           1.122   2.042  -0.088  0.00  0.00    -0.054 N 
ATOM     17  C5  <0> d           1.391   3.453   0.278  0.00  0.00     0.226 C 
ATOM     18  C4  <0> d           2.903   3.656   0.309  0.00  0.00    -0.013 A 
ATOM     19  C1  <0> d           3.532   4.702   0.981  0.00  0.00     0.017 A 
ATOM     20  C3  <0> d           3.713   2.780  -0.347  0.00  0.00    -0.008 A 
ATOM     21  C2  <0> d           4.881   4.805   0.960  0.00  0.00     0.051 A 
ATOM     22  S1  <0> d           5.344   3.396  -0.037  0.00  0.00    -0.106 SA
ATOM     23  C7  <0> d           3.283   1.586  -1.136  0.00  0.00     0.074 C 
ATOM     24  C6  <0> d           1.769   1.707  -1.380  0.00  0.00     0.241 C 
ATOM     25  H20 <0> d           1.506   1.431   0.642  0.00  0.00     0.281 HD
BRANCH  17  26
ATOM     26  C15 <0> d           0.808   3.720   1.667  0.00  0.00     0.021 A 
ATOM     27  C17 <0> d           0.861   5.157   2.190  0.00  0.00     0.007 A 
ATOM     28  C16 <0> d          -0.474   4.552   1.747  0.00  0.00     0.007 A 
ENDBRANCH  17  26
ENDBRANCH   1  16
TORSDOF 5
