REMARK  3 active torsions:
REMARK  status: ('A' for Active; 'I' for Inactive)
REMARK    1  A    between atoms: N1_12  and  C11_15 
REMARK    2  A    between atoms: C11_15  and  C12_16 
REMARK    3  A    between atoms: C12_16  and  C13_18 
ROOT
ATOM      1  C1  <0> d          -0.013   1.076   0.008  0.00  0.00     0.001 A 
ATOM      2  C2  <0> d          -1.224   1.751   0.017  0.00  0.00     0.003 A 
ATOM      3  C3  <0> d          -1.261   3.128   0.031  0.00  0.00     0.038 A 
ATOM      4  C4  <0> d          -0.077   3.857   0.024  0.00  0.00     0.089 A 
ATOM      5  C5  <0> d           1.149   3.172   0.008  0.00  0.00     0.030 A 
ATOM      6  C6  <0> d           1.172   1.778   0.000  0.00  0.00     0.017 A 
ATOM      7  C7  <0> d           2.187   4.213   0.004  0.00  0.00     0.110 A 
ATOM      8  C8  <0> d           1.506   5.426   0.017  0.00  0.00     0.173 A 
ATOM      9  O1  <0> d           0.179   5.182   0.028  0.00  0.00    -0.302 OA
ATOM     10  C9  <0> d           2.266   6.617   0.015  0.00  0.00     0.285 A 
ATOM     11  O2  <0> d           1.718   7.707   0.026  0.00  0.00    -0.265 OA
ATOM     12  N1  <0> d           3.613   6.521   0.002  0.00  0.00    -0.299 N 
ATOM     13  C10 <0> d           4.216   5.307  -0.011  0.00  0.00     0.213 A 
ATOM     14  N2  <0> d           3.530   4.199  -0.009  0.00  0.00    -0.240 NA
ENDROOT
BRANCH  12  15
ATOM     15  C11 <0> d           4.428   7.738   0.000  0.00  0.00     0.218 C 
BRANCH  15  16
ATOM     16  C12 <0> d           4.694   8.163  -1.421  0.00  0.00     0.194 C 
ATOM     17  O3  <0> d           4.246   7.512  -2.343  0.00  0.00    -0.289 OA
BRANCH  16  18
ATOM     18  C13 <0> d           5.465   9.319  -1.681  0.00  0.00     0.080 A 
ATOM     19  N3  <0> d           5.787   9.824  -2.923  0.00  0.00    -0.363 N 
ATOM     20  C16 <0> d           6.533  10.935  -2.759  0.00  0.00     0.088 A 
ATOM     21  H1  <0> d           5.520   9.443  -3.775  0.00  0.00     0.165 HD
ATOM     22  C15 <0> d           6.703  11.162  -1.432  0.00  0.00     0.019 A 
ATOM     23  C14 <0> d           6.031  10.156  -0.735  0.00  0.00     0.034 A 
ENDBRANCH  16  18
ENDBRANCH  15  16
ENDBRANCH  12  15
TORSDOF 3
