REMARK  7 active torsions:
REMARK  status: ('A' for Active; 'I' for Inactive)
REMARK    1  A    between atoms: C2_2  and  N1_3 
REMARK    2  A    between atoms: C3_4  and  C11_19 
REMARK    3  A    between atoms: N3_6  and  C5_9 
REMARK    4  A    between atoms: C5_9  and  C6_10 
REMARK    5  A    between atoms: C7_12  and  C8_15 
REMARK    6  A    between atoms: C8_15  and  C9_16 
REMARK    7  A    between atoms: C9_16  and  O3_17 
ROOT
ATOM      1  N1  <0> d          -1.372  -0.511   0.012  0.00  0.00    -0.285 N 
ATOM      2  C3  <0> d          -2.118  -0.790   1.132  0.00  0.00     0.135 A 
ATOM      3  N2  <0> d          -3.282  -1.218   0.762  0.00  0.00    -0.154 NA
ATOM      4  N3  <0> d          -3.319  -1.227  -0.639  0.00  0.00    -0.210 N 
ATOM      5  C4  <0> d          -2.123  -0.778  -1.075  0.00  0.00     0.346 A 
ATOM      6  O1  <0> d          -1.784  -0.642  -2.237  0.00  0.00    -0.245 OA
ENDROOT
BRANCH   4   7
ATOM      7  C5  <0> d          -4.449  -1.641  -1.475  0.00  0.00     0.245 C 
BRANCH   7   8
ATOM      8  C6  <0> d          -4.344  -3.116  -1.766  0.00  0.00     0.192 A 
ATOM      9  O2  <0> d          -3.711  -3.667  -2.809  0.00  0.00    -0.194 OA
ATOM     10  N5  <0> d          -3.870  -5.071  -2.674  0.00  0.00    -0.111 NA
ATOM     11  C7  <0> d          -4.576  -5.262  -1.596  0.00  0.00     0.158 A 
ATOM     12  N4  <0> d          -4.861  -4.074  -1.049  0.00  0.00    -0.207 NA
BRANCH  11  13
ATOM     13  C8  <0> d          -5.001  -6.601  -1.052  0.00  0.00     0.109 C 
BRANCH  13  14
ATOM     14  C9  <0> d          -6.357  -6.986  -1.649  0.00  0.00     0.174 C 
BRANCH  14  15
ATOM     15  O3  <0> d          -6.760  -8.257  -1.134  0.00  0.00    -0.396 OA
ATOM     16  C10 <0> d          -8.021  -8.712  -1.630  0.00  0.00     0.201 C 
ENDBRANCH  14  15
ENDBRANCH  13  14
ENDBRANCH  11  13
ENDBRANCH   7   8
ENDBRANCH   4   7
BRANCH   2  17
ATOM     17  C11 <0> d          -1.656  -0.625   2.557  0.00  0.00     0.060 C 
ATOM     18  C15 <0> d          -2.870  -0.426   3.469  0.00  0.00     0.040 C 
ATOM     19  C14 <0> d          -2.401  -0.339   4.922  0.00  0.00     0.233 C 
ATOM     20  N6  <0> d          -1.707  -1.579   5.292  0.00  0.00    -0.075 N 
ATOM     21  C13 <0> d          -0.502  -1.739   4.469  0.00  0.00     0.233 C 
ATOM     22  H20 <0> d          -2.322  -2.364   5.142  0.00  0.00     0.277 HD
ATOM     23  H25 <0> d          -1.446  -1.540   6.266  0.00  0.00     0.277 HD
ATOM     24  C12 <0> d          -0.899  -1.881   2.998  0.00  0.00     0.040 C 
ENDBRANCH   2  17
BRANCH   1  25
ATOM     25  C2  <0> d           0.002  -0.004   0.002  0.00  0.00     0.131 C 
ATOM     26  C1  <0> d          -0.019   1.526   0.010  0.00  0.00     0.027 C 
ENDBRANCH   1  25
TORSDOF 7
