REMARK  5 active torsions:
REMARK  status: ('A' for Active; 'I' for Inactive)
REMARK    1  A    between atoms: C2_2  and  N1_3 
REMARK    2  A    between atoms: N1_3  and  C3_4 
REMARK    3  A    between atoms: N1_3  and  S1_7 
REMARK    4  A    between atoms: S1_7  and  C6_10 
REMARK    5  A    between atoms: C9_13  and  N2_16 
ROOT
ATOM      1  C6  <0> d          -2.893   1.021   1.625  0.00  0.00     0.079 A 
ATOM      2  C7  <0> d          -2.151   1.860   2.436  0.00  0.00     0.027 A 
ATOM      3  C8  <0> d          -2.611   3.131   2.722  0.00  0.00     0.030 A 
ATOM      4  C9  <0> d          -3.820   3.565   2.194  0.00  0.00     0.025 A 
ATOM      5  C10 <0> d          -4.563   2.720   1.380  0.00  0.00     0.030 A 
ATOM      6  C11 <0> d          -4.095   1.453   1.093  0.00  0.00     0.027 A 
ENDROOT
BRANCH   1   7
ATOM      7  S1  <0> d          -2.303  -0.599   1.262  0.00  0.00     0.261 S 
ATOM      8  O1  <0> d          -3.441  -1.379   0.920  0.00  0.00    -0.200 OA
ATOM      9  O2  <0> d          -1.424  -0.957   2.320  0.00  0.00    -0.200 OA
BRANCH   7  10
ATOM     10  N1  <0> d          -1.377  -0.488  -0.106  0.00  0.00    -0.302 N 
BRANCH  10  11
ATOM     11  C2  <0> d           0.060  -0.224   0.002  0.00  0.00     0.131 C 
ATOM     12  C1  <0> d           0.828  -1.545  -0.070  0.00  0.00     0.027 C 
ENDBRANCH  10  11
BRANCH  10  13
ATOM     13  C3  <0> d          -1.994  -0.653  -1.424  0.00  0.00     0.096 A 
ATOM     14  C5  <0> d          -2.006   0.560  -2.356  0.00  0.00     0.028 A 
ATOM     15  C4  <0> d          -1.073  -0.617  -2.645  0.00  0.00     0.028 A 
ENDBRANCH  10  13
ENDBRANCH   7  10
ENDBRANCH   1   7
BRANCH   4  16
ATOM     16  N2  <0> d          -4.289   4.849   2.482  0.00  0.00    -0.399 N 
ATOM     17  H15 <0> d          -3.769   5.439   3.051  0.00  0.00     0.156 HD
ATOM     18  H16 <0> d          -5.133   5.152   2.113  0.00  0.00     0.156 HD
ENDBRANCH   4  16
TORSDOF 5
