REMARK  6 active torsions:
REMARK  status: ('A' for Active; 'I' for Inactive)
REMARK    1  A    between atoms: O1_2  and  C2_3 
REMARK    2  A    between atoms: C2_3  and  C3_4 
REMARK    3  A    between atoms: C3_4  and  N1_5 
REMARK    4  A    between atoms: N1_5  and  C4_6 
REMARK       I    between atoms: N1_5  and  C8_13 
REMARK    5  A    between atoms: C8_13  and  C9_15 
REMARK    6  A    between atoms: C9_15  and  N2_16 
ROOT
ATOM      1  N2  <0> d           2.812  -1.001   1.081  0.00  0.00    -0.259 N 
ATOM      2  C10 <0> d           2.791   0.330   1.304  0.00  0.00     0.261 A 
ATOM      3  O5  <0> d           2.947   0.898   2.364  0.00  0.00    -0.270 OA
ATOM      4  C11 <0> d           2.530   0.961  -0.043  0.00  0.00     0.148 A 
ATOM      5  C12 <0> d           3.696   1.859  -0.445  0.00  0.00     0.073 C 
ATOM      6  C13 <0> d           3.608   3.158   0.369  0.00  0.00     0.179 C 
ATOM      7  O6  <0> d           2.403   3.835   0.012  0.00  0.00    -0.350 OA
ATOM      8  C14 <0> d           1.246   3.124   0.014  0.00  0.00     0.078 A 
ATOM      9  C15 <0> d           1.244   1.739  -0.018  0.00  0.00     0.013 A 
ATOM     10  C16 <0> d           0.042   1.053  -0.024  0.00  0.00     0.013 A 
ATOM     11  C17 <0> d          -1.155   1.742  -0.001  0.00  0.00     0.001 A 
ATOM     12  C18 <0> d          -1.156   3.124   0.040  0.00  0.00     0.003 A 
ATOM     13  C19 <0> d           0.039   3.814   0.045  0.00  0.00     0.037 A 
ATOM     14  N3  <0> d           2.423  -0.181  -0.959  0.00  0.00    -0.320 N 
ATOM     15  C20 <0> d           2.602  -1.287  -0.210  0.00  0.00     0.326 A 
ATOM     16  O7  <0> d           2.576  -2.417  -0.656  0.00  0.00    -0.247 OA
ATOM     17  H25 <0> d           2.256  -0.147  -1.914  0.00  0.00     0.165 HD
ENDROOT
BRANCH   1  18
ATOM     18  C9  <0> d           3.038  -2.007   2.121  0.00  0.00     0.239 C 
BRANCH  18  19
ATOM     19  C8  <0> d           1.716  -2.416   2.719  0.00  0.00     0.238 C 
ATOM     20  N1  <0> d           1.682  -3.289   3.745  0.00  0.00    -0.343 N 
ATOM     21  O4  <0> d           0.683  -1.959   2.277  0.00  0.00    -0.272 OA
BRANCH  20  22
ATOM     22  C3  <0> d           2.931  -3.755   4.352  0.00  0.00     0.152 C 
BRANCH  22  23
ATOM     23  C2  <0> d           3.324  -2.819   5.496  0.00  0.00     0.187 C 
BRANCH  23  24
ATOM     24  O1  <0> d           2.345  -2.900   6.535  0.00  0.00    -0.394 OA
ATOM     25  C1  <0> d           2.619  -2.060   7.658  0.00  0.00     0.201 C 
ENDBRANCH  23  24
ENDBRANCH  22  23
ENDBRANCH  20  22
BRANCH  20  26
ATOM     26  C4  <0> d           0.396  -3.771   4.254  0.00  0.00     0.102 C 
ATOM     27  C7  <0> d          -0.388  -4.453   3.107  0.00  0.00     0.165 C 
ATOM     28  S1  <0> d          -2.138  -4.099   3.547  0.00  0.00     0.146 S 
ATOM     29  C6  <0> d          -1.872  -3.063   5.047  0.00  0.00     0.142 C 
ATOM     30  O2  <0> d          -2.717  -3.297   2.527  0.00  0.00    -0.228 OA
ATOM     31  O3  <0> d          -2.773  -5.312   3.929  0.00  0.00    -0.228 OA
ATOM     32  C5  <0> d          -0.411  -2.585   4.807  0.00  0.00     0.041 C 
ENDBRANCH  20  26
ENDBRANCH  18  19
ENDBRANCH   1  18
TORSDOF 6
