REMARK  6 active torsions:
REMARK  status: ('A' for Active; 'I' for Inactive)
REMARK    1  A    between atoms: C4_4  and  O1_7 
REMARK    2  A    between atoms: O1_7  and  C7_8 
REMARK    3  A    between atoms: C10_11  and  N1_14 
REMARK    4  A    between atoms: N1_14  and  S1_15 
REMARK    5  A    between atoms: S1_15  and  C13_18 
REMARK    6  A    between atoms: C15_20  and  C19_25 
ROOT
ATOM      1  S1  <0> d           5.055  -6.935  -0.791  0.00  0.00     0.264 S 
ATOM      2  O2  <0> d           6.320  -6.318  -0.596  0.00  0.00    -0.200 OA
ATOM      3  O3  <0> d           4.813  -8.296  -0.463  0.00  0.00    -0.200 OA
ENDROOT
BRANCH   1   4
ATOM      4  N1  <0> d           3.955  -6.039   0.064  0.00  0.00    -0.281 N 
ATOM      5  H10 <0> d           3.338  -6.478   0.670  0.00  0.00     0.179 HD
BRANCH   4   6
ATOM      6  C10 <0> d           3.916  -4.649  -0.088  0.00  0.00     0.042 A 
ATOM      7  C9  <0> d           2.698  -4.001  -0.244  0.00  0.00     0.033 A 
ATOM      8  C8  <0> d           2.660  -2.628  -0.394  0.00  0.00     0.039 A 
ATOM      9  C7  <0> d           3.839  -1.897  -0.388  0.00  0.00     0.076 A 
ATOM     10  C12 <0> d           5.057  -2.544  -0.237  0.00  0.00     0.039 A 
ATOM     11  C11 <0> d           5.096  -3.916  -0.082  0.00  0.00     0.033 A 
BRANCH   9  12
ATOM     12  O1  <0> d           3.801  -0.546  -0.534  0.00  0.00    -0.311 OA
BRANCH  12  13
ATOM     13  C4  <0> d           3.425   0.202   0.536  0.00  0.00     0.076 A 
ATOM     14  C3  <0> d           3.005  -0.418   1.704  0.00  0.00     0.037 A 
ATOM     15  C2  <0> d           2.624   0.344   2.791  0.00  0.00     0.003 A 
ATOM     16  C1  <0> d           2.660   1.724   2.716  0.00  0.00     0.000 A 
ATOM     17  C6  <0> d           3.078   2.345   1.553  0.00  0.00     0.003 A 
ATOM     18  C5  <0> d           3.461   1.587   0.463  0.00  0.00     0.037 A 
ENDBRANCH  12  13
ENDBRANCH   9  12
ENDBRANCH   4   6
ENDBRANCH   1   4
BRANCH   1  19
ATOM     19  C13 <0> d           4.662  -6.751  -2.498  0.00  0.00     0.102 A 
ATOM     20  C18 <0> d           3.462  -7.237  -2.988  0.00  0.00     0.057 A 
ATOM     21  C17 <0> d           3.146  -7.091  -4.328  0.00  0.00     0.026 A 
ATOM     22 Cl1  <0> d           2.348  -8.028  -1.917  0.00  0.00    -0.083 Cl
ATOM     23  C16 <0> d           4.030  -6.469  -5.184  0.00  0.00     0.015 A 
ATOM     24  C15 <0> d           5.242  -5.982  -4.697  0.00  0.00    -0.004 A 
ATOM     25  C14 <0> d           5.554  -6.126  -3.347  0.00  0.00     0.041 A 
BRANCH  24  26
ATOM     26  C19 <0> d           6.197  -5.311  -5.614  0.00  0.00     0.087 A 
ATOM     27  C20 <0> d           5.875  -5.167  -6.984  0.00  0.00     0.040 A 
ATOM     28  C21 <0> d           6.777  -4.545  -7.796  0.00  0.00     0.078 A 
ATOM     29  C22 <0> d           7.979  -4.082  -7.217  0.00  0.00     0.261 A 
ATOM     30  O4  <0> d           8.816  -3.519  -7.905  0.00  0.00    -0.267 OA
ATOM     31  N2  <0> d           8.195  -4.266  -5.901  0.00  0.00    -0.243 N 
ATOM     32  N3  <0> d           7.334  -4.849  -5.149  0.00  0.00    -0.171 NA
ATOM     33  H16 <0> d           9.023  -3.946  -5.510  0.00  0.00     0.192 HD
ENDBRANCH  24  26
ENDBRANCH   1  19
TORSDOF 6
