REMARK  3 active torsions:
REMARK  status: ('A' for Active; 'I' for Inactive)
REMARK    1  A    between atoms: C6_6  and  C7_8 
REMARK    2  A    between atoms: N3_21  and  C18_22 
REMARK    3  A    between atoms: C18_22  and  C19_23 
ROOT
ATOM      1  C7  <0> d           0.050  -2.683   2.519  0.00  0.00     0.325 C 
ATOM      2  C8  <0> d          -1.361  -3.040   2.921  0.00  0.00     0.056 A 
ATOM      3  C9  <0> d          -1.837  -2.864   4.175  0.00  0.00    -0.019 A 
ATOM      4  C10 <0> d          -3.211  -3.312   4.177  0.00  0.00    -0.001 A 
ATOM      5  C11 <0> d          -4.192  -3.368   5.172  0.00  0.00     0.014 A 
ATOM      6  C12 <0> d          -5.420  -3.864   4.808  0.00  0.00     0.001 A 
ATOM      7  C13 <0> d          -5.687  -4.292   3.518  0.00  0.00     0.002 A 
ATOM      8  C14 <0> d          -4.736  -4.249   2.513  0.00  0.00     0.030 A 
ATOM      9  C15 <0> d          -3.481  -3.750   2.854  0.00  0.00     0.043 A 
ATOM     10  N2  <0> d          -2.339  -3.571   2.125  0.00  0.00    -0.356 N 
ATOM     11  H2  <0> d          -2.237  -3.788   1.185  0.00  0.00     0.166 HD
ATOM     12  C16 <0> d          -1.013  -2.299   5.305  0.00  0.00     0.072 C 
ATOM     13  C17 <0> d           0.463  -2.356   4.891  0.00  0.00     0.279 C 
ATOM     14  N3  <0> d           0.620  -1.792   3.542  0.00  0.00     0.112 N 
ENDROOT
BRANCH  14  15
ATOM     15  C18 <0> d           2.029  -1.491   3.252  0.00  0.00     0.350 C 
BRANCH  15  16
ATOM     16  C19 <0> d           2.506  -0.394   4.169  0.00  0.00     0.110 A 
ATOM     17  N5  <0> d           3.796  -0.119   4.462  0.00  0.00    -0.347 N 
ATOM     18  C21 <0> d           3.797   0.946   5.322  0.00  0.00     0.022 A 
ATOM     19  H23 <0> d           4.575  -0.587   4.125  0.00  0.00     0.167 HD
ATOM     20  C20 <0> d           2.509   1.280   5.531  0.00  0.00     0.114 A 
ATOM     21  C22 <0> d           5.007   1.613   5.924  0.00  0.00     0.069 C 
ATOM     22  N4  <0> d           1.742   0.445   4.814  0.00  0.00    -0.352 N 
ATOM     23  H24 <0> d           0.773   0.462   4.780  0.00  0.00     0.166 HD
ENDBRANCH  15  16
ENDBRANCH  14  15
BRANCH   1  24
ATOM     24  C6  <0> d           0.035  -1.980   1.186  0.00  0.00     0.074 A 
ATOM     25  C5  <0> d           0.039  -2.724   0.021  0.00  0.00     0.030 A 
ATOM     26  C4  <0> d           0.024  -2.067  -1.200  0.00  0.00     0.004 A 
ATOM     27  C3  <0> d           0.005  -0.681  -1.203  0.00  0.00     0.027 A 
ATOM     28  C2  <0> d           0.002  -0.004   0.002  0.00  0.00     0.031 A 
ATOM     29  C1  <0> d          -0.018   1.503   0.010  0.00  0.00     0.070 C 
ATOM     30  N1  <0> d           0.022  -0.662   1.145  0.00  0.00    -0.256 NA
ENDBRANCH   1  24
TORSDOF 3
