REMARK  4 active torsions:
REMARK  status: ('A' for Active; 'I' for Inactive)
REMARK    1  A    between atoms: C5_5  and  N3_9 
REMARK    2  A    between atoms: N3_9  and  C7_10 
REMARK    3  A    between atoms: C11_14  and  C13_16 
REMARK    4  A    between atoms: C13_16  and  N4_17 
ROOT
ATOM      1  N3  <0> d           0.059  -4.507  -1.279  0.00  0.00    -0.339 N 
ATOM      2  H6  <0> d           0.540  -4.634  -0.447  0.00  0.00     0.167 HD
ENDROOT
BRANCH   1   3
ATOM      3  C5  <0> d          -0.549  -3.292  -1.550  0.00  0.00     0.160 A 
ATOM      4  C4  <0> d          -0.378  -2.199  -0.690  0.00  0.00     0.127 A 
ATOM      5  C3  <0> d          -1.018  -0.988  -1.013  0.00  0.00     0.116 A 
ATOM      6  N6  <0> d           0.304  -1.985   0.477  0.00  0.00    -0.272 N 
ATOM      7  C2  <0> d          -0.686  -0.066   0.002  0.00  0.00     0.082 A 
ATOM      8  N2  <0> d          -1.762  -0.929  -2.125  0.00  0.00    -0.237 NA
ATOM      9  C1  <0> d          -1.148   1.367   0.073  0.00  0.00     0.075 C 
ATOM     10  N7  <0> d           0.092  -0.656   0.866  0.00  0.00    -0.177 NA
ATOM     11  C6  <0> d          -1.891  -1.983  -2.898  0.00  0.00     0.236 A 
ATOM     12  N1  <0> d          -1.306  -3.138  -2.630  0.00  0.00    -0.222 NA
ATOM     13  H1  <0> d           0.844  -2.639   0.949  0.00  0.00     0.189 HD
ENDBRANCH   1   3
BRANCH   1  14
ATOM     14  C7  <0> d          -0.021  -5.550  -2.206  0.00  0.00     0.034 A 
ATOM     15  C12 <0> d          -0.096  -6.866  -1.768  0.00  0.00     0.038 A 
ATOM     16  C11 <0> d          -0.180  -7.894  -2.686  0.00  0.00    -0.038 A 
ATOM     17  C10 <0> d          -0.179  -7.616  -4.041  0.00  0.00     0.009 A 
ATOM     18  C9  <0> d          -0.099  -6.307  -4.480  0.00  0.00     0.003 A 
ATOM     19  C8  <0> d          -0.020  -5.274  -3.568  0.00  0.00     0.029 A 
BRANCH  16  20
ATOM     20  C13 <0> d          -0.268  -9.322  -2.212  0.00  0.00     0.167 C 
BRANCH  20  21
ATOM     21  N4  <0> d           1.082  -9.875  -2.076  0.00  0.00    -0.346 N 
ATOM     22  C16 <0> d           1.856  -9.836  -0.970  0.00  0.00     0.209 A 
ATOM     23  N5  <0> d           2.987 -10.432  -1.230  0.00  0.00    -0.255 NA
ATOM     24  C15 <0> d           2.980 -10.861  -2.501  0.00  0.00     0.135 A 
ATOM     25  C14 <0> d           1.797 -10.522  -3.047  0.00  0.00     0.111 A 
ENDBRANCH  20  21
ENDBRANCH  16  20
ENDBRANCH   1  14
TORSDOF 4
