REMARK  6 active torsions:
REMARK  status: ('A' for Active; 'I' for Inactive)
REMARK    1  A    between atoms: C3_5  and  O2_26 
REMARK    2  A    between atoms: C4_6  and  C5_8 
REMARK    3  A    between atoms: C5_8  and  C6_9 
REMARK    4  A    between atoms: C5_8  and  C14_19 
REMARK    5  A    between atoms: C9_12  and  N3_16 
REMARK    6  A    between atoms: C16_23  and  O1_24 
ROOT
ATOM      1  C5  <0> d          -0.014  -0.328  -2.519  0.00  0.00     0.093 C 
ENDROOT
BRANCH   1   2
ATOM      2  C4  <0> d           0.041  -0.873  -1.115  0.00  0.00     0.033 A 
ATOM      3  C2  <0> d           1.162  -1.110  -0.397  0.00  0.00     0.035 A 
ATOM      4  C1  <0> d           2.578  -0.876  -0.857  0.00  0.00     0.070 C 
ATOM      5  N1  <0> d           0.787  -1.587   0.809  0.00  0.00    -0.280 N 
ATOM      6  N2  <0> d          -0.612  -1.652   0.833  0.00  0.00    -0.149 NA
ATOM      7  H20 <0> d           1.382  -1.841   1.532  0.00  0.00     0.189 HD
ATOM      8  C3  <0> d          -1.062  -1.226  -0.323  0.00  0.00     0.190 A 
BRANCH   8   9
ATOM      9  O2  <0> d          -2.369  -1.139  -0.688  0.00  0.00    -0.343 OA
ATOM     10  H1  <0> d          -2.801  -0.320  -0.410  0.00  0.00     0.219 HD
ENDBRANCH   8   9
ENDBRANCH   1   2
BRANCH   1  11
ATOM     11  C6  <0> d          -1.304  -0.754  -3.173  0.00  0.00    -0.044 A 
ATOM     12  C11 <0> d          -2.115   0.188  -3.778  0.00  0.00     0.029 A 
ATOM     13  C10 <0> d          -3.295  -0.200  -4.383  0.00  0.00     0.038 A 
ATOM     14  C9  <0> d          -3.672  -1.538  -4.372  0.00  0.00     0.047 A 
ATOM     15 Br1  <0> d          -4.400   1.088  -5.217  0.00  0.00    -0.049 Br
ATOM     16  C8  <0> d          -2.857  -2.481  -3.759  0.00  0.00     0.031 A 
ATOM     17  C7  <0> d          -1.676  -2.086  -3.161  0.00  0.00     0.010 A 
BRANCH  14  18
ATOM     18  N3  <0> d          -4.867  -1.933  -4.978  0.00  0.00    -0.388 N 
ATOM     19  C12 <0> d          -6.109  -1.959  -4.201  0.00  0.00     0.149 C 
ATOM     20  C13 <0> d          -4.879  -2.322  -6.391  0.00  0.00     0.149 C 
ENDBRANCH  14  18
ENDBRANCH   1  11
BRANCH   1  21
ATOM     21  C14 <0> d           1.151  -0.863  -3.312  0.00  0.00     0.010 A 
ATOM     22  C16 <0> d           1.489  -2.312  -3.616  0.00  0.00     0.296 A 
ATOM     23  N5  <0> d           2.720  -2.203  -4.418  0.00  0.00    -0.155 NA
ATOM     24  N4  <0> d           2.997  -1.005  -4.521  0.00  0.00    -0.157 NA
ATOM     25  C15 <0> d           2.128  -0.173  -3.904  0.00  0.00     0.060 A 
ATOM     26  C17 <0> d           2.248   1.329  -3.886  0.00  0.00     0.072 C 
BRANCH  22  27
ATOM     27  O1  <0> d           0.447  -2.925  -4.376  0.00  0.00    -0.369 OA
ATOM     28  H16 <0> d           0.614  -3.852  -4.597  0.00  0.00     0.212 HD
ENDBRANCH  22  27
ENDBRANCH   1  21
TORSDOF 6
