REMARK  6 active torsions:
REMARK  status: ('A' for Active; 'I' for Inactive)
REMARK    1  A    between atoms: C6_6  and  S1_7 
REMARK    2  A    between atoms: S1_7  and  N1_10 
REMARK    3  A    between atoms: N1_10  and  C7_11 
REMARK    4  A    between atoms: N1_10  and  C10_16 
REMARK    5  A    between atoms: C7_11  and  C8_12 
REMARK    6  A    between atoms: C8_12  and  C9_13 
ROOT
ATOM      1  S1  <0> d          -1.511  -0.907   0.012  0.00  0.00     0.261 S 
ATOM      2  O1  <0> d          -1.217  -2.187   0.553  0.00  0.00    -0.200 OA
ATOM      3  O2  <0> d          -2.492  -0.048   0.578  0.00  0.00    -0.200 OA
ENDROOT
BRANCH   1   4
ATOM      4  C6  <0> d           0.002  -0.004   0.002  0.00  0.00     0.080 A 
ATOM      5  C1  <0> d          -0.017   1.378   0.010  0.00  0.00     0.026 A 
ATOM      6  C2  <0> d           1.171   2.083   0.002  0.00  0.00     0.009 A 
ATOM      7  C3  <0> d           2.381   1.411  -0.014  0.00  0.00    -0.052 A 
ATOM      8  C15 <0> d           3.799   1.942  -0.025  0.00  0.00     0.039 C 
ATOM      9  C4  <0> d           2.400   0.028  -0.021  0.00  0.00    -0.050 A 
ATOM     10  C14 <0> d           4.671   0.753  -0.480  0.00  0.00     0.009 C 
ATOM     11  C13 <0> d           3.831  -0.464  -0.038  0.00  0.00     0.039 C 
ATOM     12  C5  <0> d           1.208  -0.677  -0.014  0.00  0.00     0.033 A 
ENDBRANCH   1   4
BRANCH   1  13
ATOM     13  N1  <0> d          -1.947  -1.149  -1.567  0.00  0.00    -0.302 N 
BRANCH  13  14
ATOM     14  C7  <0> d          -1.491  -2.346  -2.278  0.00  0.00     0.142 C 
BRANCH  14  15
ATOM     15  C8  <0> d          -2.567  -3.430  -2.195  0.00  0.00     0.089 C 
BRANCH  15  16
ATOM     16  C9  <0> d          -2.097  -4.661  -2.926  0.00  0.00     0.072 C 
ATOM     17  S2  <0> d          -0.662  -4.673  -3.631  0.00  0.00    -0.066 SA
ATOM     18  N2  <0> d          -2.887  -5.751  -2.987  0.00  0.00    -0.393 N 
ATOM     19  H8  <0> d          -3.758  -5.744  -2.559  0.00  0.00     0.156 HD
ATOM     20  H9  <0> d          -2.584  -6.544  -3.457  0.00  0.00     0.156 HD
ENDBRANCH  15  16
ENDBRANCH  14  15
ENDBRANCH  13  14
BRANCH  13  21
ATOM     21  C10 <0> d          -2.790  -0.167  -2.253  0.00  0.00     0.096 A 
ATOM     22  C12 <0> d          -2.217   0.507  -3.501  0.00  0.00     0.028 A 
ATOM     23  C11 <0> d          -3.325  -0.539  -3.637  0.00  0.00     0.028 A 
ENDBRANCH  13  21
ENDBRANCH   1  13
TORSDOF 6
