REMARK  4 active torsions:
REMARK  status: ('A' for Active; 'I' for Inactive)
REMARK    1  A    between atoms: C6_6  and  N1_7 
REMARK       I    between atoms: N1_7  and  C7_8 
REMARK    2  A    between atoms: C7_8  and  C8_10 
REMARK    3  A    between atoms: C8_10  and  N2_11 
REMARK    4  A    between atoms: C13_20  and  C14_21 
ROOT
ATOM      1  N2  <0> d          -2.194  -4.261  -0.311  0.00  0.00    -0.299 N 
ATOM      2  C9  <0> d          -2.017  -4.832  -1.532  0.00  0.00     0.213 A 
ATOM      3  N3  <0> d          -1.762  -6.094  -1.694  0.00  0.00    -0.240 NA
ATOM      4  C10 <0> d          -1.654  -6.942  -0.631  0.00  0.00     0.112 A 
ATOM      5  C11 <0> d          -1.831  -6.388   0.647  0.00  0.00     0.122 A 
ATOM      6  C12 <0> d          -2.099  -5.022   0.806  0.00  0.00     0.270 A 
ATOM      7  O2  <0> d          -2.248  -4.536   1.914  0.00  0.00    -0.266 OA
ATOM      8  S1  <0> d          -1.616  -7.780   1.716  0.00  0.00     0.020 SA
ATOM      9  N4  <0> d          -1.332  -8.937   0.622  0.00  0.00    -0.208 NA
ATOM     10  C13 <0> d          -1.381  -8.365  -0.554  0.00  0.00     0.106 A 
ENDROOT
BRANCH   1  11
ATOM     11  C8  <0> d          -2.479  -2.828  -0.204  0.00  0.00     0.236 C 
BRANCH  11  12
ATOM     12  C7  <0> d          -1.183  -2.065  -0.099  0.00  0.00     0.240 C 
ATOM     13  N1  <0> d          -1.200  -0.722   0.010  0.00  0.00    -0.326 N 
ATOM     14  H5  <0> d          -2.044  -0.252   0.098  0.00  0.00     0.169 HD
ATOM     15  O1  <0> d          -0.126  -2.659  -0.113  0.00  0.00    -0.271 OA
BRANCH  13  16
ATOM     16  C6  <0> d           0.002  -0.004  -0.004  0.00  0.00     0.034 A 
ATOM     17  C1  <0> d           1.072  -0.453  -0.766  0.00  0.00     0.031 A 
ATOM     18  C2  <0> d           2.256   0.257  -0.778  0.00  0.00     0.026 A 
ATOM     19  C3  <0> d           2.377   1.416  -0.032  0.00  0.00     0.034 A 
ATOM     20  C4  <0> d           1.312   1.866   0.729  0.00  0.00     0.026 A 
ATOM     21 Cl1  <0> d           3.867   2.306  -0.048  0.00  0.00    -0.084 Cl
ATOM     22  C5  <0> d           0.126   1.159   0.745  0.00  0.00     0.031 A 
ENDBRANCH  13  16
ENDBRANCH  11  12
ENDBRANCH   1  11
BRANCH  10  23
ATOM     23  C14 <0> d          -1.161  -9.157  -1.786  0.00  0.00    -0.002 A 
ATOM     24  C18 <0> d          -0.250 -10.219  -1.805  0.00  0.00     0.033 A 
ATOM     25  C17 <0> d          -0.080 -10.933  -2.973  0.00  0.00     0.117 A 
ATOM     26  N5  <0> d          -0.754 -10.620  -4.063  0.00  0.00    -0.273 NA
ATOM     27  C16 <0> d          -1.618  -9.623  -4.089  0.00  0.00     0.117 A 
ATOM     28  C15 <0> d          -1.853  -8.860  -2.965  0.00  0.00     0.033 A 
ENDBRANCH  10  23
TORSDOF 4
