REMARK  6 active torsions:
REMARK  status: ('A' for Active; 'I' for Inactive)
REMARK    1  A    between atoms: O1_2  and  C2_3 
REMARK    2  A    between atoms: C5_6  and  N1_11 
REMARK    3  A    between atoms: C6_7  and  O2_9 
REMARK       I    between atoms: N1_11  and  C9_12 
REMARK    4  A    between atoms: C9_12  and  C10_14 
REMARK       I    between atoms: C10_14  and  N2_16 
REMARK    5  A    between atoms: N2_16  and  C11_17 
REMARK    6  A    between atoms: C11_17  and  C12_18 
ROOT
ATOM      1  N1  <0> d          -4.897  -2.573   0.037  0.00  0.00    -0.317 N 
ATOM      2  C9  <0> d          -5.988  -1.948  -0.446  0.00  0.00     0.314 C 
ATOM      3  O3  <0> d          -5.881  -0.860  -0.973  0.00  0.00    -0.262 OA
ATOM      4  H10 <0> d          -4.969  -3.476   0.385  0.00  0.00     0.169 HD
ENDROOT
BRANCH   1   5
ATOM      5  C5  <0> d          -3.659  -1.920   0.038  0.00  0.00     0.069 A 
ATOM      6  C4  <0> d          -3.605  -0.533   0.045  0.00  0.00     0.035 A 
ATOM      7  C3  <0> d          -2.383   0.112   0.047  0.00  0.00     0.039 A 
ATOM      8  C2  <0> d          -1.207  -0.625   0.041  0.00  0.00     0.070 A 
ATOM      9  C7  <0> d          -1.255  -2.011   0.026  0.00  0.00     0.075 A 
ATOM     10  C6  <0> d          -2.478  -2.661   0.031  0.00  0.00     0.097 A 
BRANCH   8  11
ATOM     11  O1  <0> d          -0.006   0.012   0.042  0.00  0.00    -0.356 OA
ATOM     12  C1  <0> d          -0.031   1.441   0.057  0.00  0.00     0.210 C 
ENDBRANCH   8  11
BRANCH  10  13
ATOM     13  O2  <0> d          -2.528  -4.020   0.023  0.00  0.00    -0.354 OA
ATOM     14  C8  <0> d          -1.279  -4.714   0.017  0.00  0.00     0.210 C 
ENDBRANCH  10  13
ENDBRANCH   1   5
BRANCH   2  15
ATOM     15  C10 <0> d          -7.330  -2.595  -0.335  0.00  0.00     0.309 C 
ATOM     16  O4  <0> d          -7.437  -3.683   0.192  0.00  0.00    -0.262 OA
ATOM     17  N2  <0> d          -8.421  -1.969  -0.819  0.00  0.00    -0.348 N 
ATOM     18  H11 <0> d          -8.336  -1.100  -1.239  0.00  0.00     0.163 HD
BRANCH  17  19
ATOM     19  C11 <0> d          -9.738  -2.604  -0.709  0.00  0.00     0.168 C 
BRANCH  19  20
ATOM     20  C12 <0> d         -10.781  -1.705  -1.321  0.00  0.00    -0.003 C 
ATOM     21  C13 <0> d         -11.431  -2.091  -2.393  0.00  0.00     0.028 C 
ATOM     22 Br1  <0> d         -11.152  -0.021  -0.545  0.00  0.00    -0.055 Br
ENDBRANCH  19  20
ENDBRANCH  17  19
ENDBRANCH   2  15
TORSDOF 6
