REMARK  11 active torsions:
REMARK  status: ('A' for Active; 'I' for Inactive)
REMARK    1  A    between atoms: C2_2  and  N3_30 
REMARK    2  A    between atoms: C3_3  and  N3_30 
REMARK    3  A    between atoms: C5_5  and  C6_6 
REMARK    4  A    between atoms: C5_5  and  N3_30 
REMARK    5  A    between atoms: C6_6  and  N1_7 
REMARK    6  A    between atoms: N2_14  and  C14_16 
REMARK    7  A    between atoms: C14_16  and  C15_17 
REMARK    8  A    between atoms: C15_17  and  C16_18 
REMARK    9  A    between atoms: C15_17  and  O2_27 
REMARK   10  A    between atoms: C16_18  and  O1_19 
REMARK   11  A    between atoms: O1_19  and  C17_20 
ROOT
ATOM      1  N1  <0> d           0.491  -2.514   0.463  0.00  0.00    -0.180 N 
ATOM      2  C7  <0> d           1.705  -2.457   1.145  0.00  0.00     0.079 A 
ATOM      3  C8  <0> d           2.611  -3.432   1.538  0.00  0.00     0.032 A 
ATOM      4  C9  <0> d           3.759  -3.072   2.218  0.00  0.00     0.002 A 
ATOM      5  C10 <0> d           4.008  -1.743   2.510  0.00  0.00     0.002 A 
ATOM      6  C11 <0> d           3.113  -0.765   2.123  0.00  0.00     0.032 A 
ATOM      7  C12 <0> d           1.960  -1.116   1.435  0.00  0.00     0.079 A 
ATOM      8  N2  <0> d           0.894  -0.371   0.934  0.00  0.00    -0.179 N 
ATOM      9  C13 <0> d           0.008  -1.235   0.341  0.00  0.00     0.681 A 
ATOM     10  H20 <0> d          -1.744  -1.505  -0.666  0.00  0.00     0.174 HD
ATOM     11  N4  <0> d          -1.115  -0.826  -0.238  0.00  0.00    -0.234 N 
ATOM     12  H31 <0> d          -1.350   0.173  -0.254  0.00  0.00     0.174 HD
ENDROOT
BRANCH   8  13
ATOM     13  C14 <0> d           0.747   1.084   1.020  0.00  0.00     0.181 C 
BRANCH  13  14
ATOM     14  C15 <0> d          -0.002   1.446   2.304  0.00  0.00     0.161 C 
BRANCH  14  15
ATOM     15  C16 <0> d          -0.265   2.954   2.333  0.00  0.00     0.209 C 
BRANCH  15  16
ATOM     16  O1  <0> d          -1.065   3.275   3.473  0.00  0.00    -0.349 OA
BRANCH  16  17
ATOM     17  C17 <0> d          -1.391   4.583   3.648  0.00  0.00     0.069 A 
ATOM     18  C22 <0> d          -2.165   4.966   4.734  0.00  0.00     0.038 A 
ATOM     19  C21 <0> d          -2.495   6.296   4.911  0.00  0.00     0.026 A 
ATOM     20  C20 <0> d          -2.055   7.245   4.006  0.00  0.00     0.034 A 
ATOM     21  C19 <0> d          -1.283   6.865   2.922  0.00  0.00     0.026 A 
ATOM     22 Cl1  <0> d          -2.472   8.916   4.229  0.00  0.00    -0.084 Cl
ATOM     23  C18 <0> d          -0.946   5.537   2.745  0.00  0.00     0.038 A 
ENDBRANCH  16  17
ENDBRANCH  15  16
ENDBRANCH  14  15
BRANCH  14  24
ATOM     24  O2  <0> d           0.788   1.079   3.436  0.00  0.00    -0.392 OA
ATOM     25  H29 <0> d           1.649   1.518   3.474  0.00  0.00     0.210 HD
ENDBRANCH  14  24
ENDBRANCH  13  14
ENDBRANCH   8  13
BRANCH   1  26
ATOM     26  C6  <0> d          -0.157  -3.728  -0.038  0.00  0.00     0.175 C 
BRANCH  26  27
ATOM     27  C5  <0> d           0.315  -4.006  -1.467  0.00  0.00     0.255 C 
BRANCH  27  28
ATOM     28  N3  <0> d          -0.331  -5.245  -1.950  0.00  0.00    -0.070 N 
ATOM     29  H30 <0> d          -0.181  -5.990  -1.260  0.00  0.00     0.279 HD
BRANCH  28  30
ATOM     30  C2  <0> d          -1.784  -5.026  -2.112  0.00  0.00     0.230 C 
ATOM     31  C1  <0> d          -2.049  -3.906  -3.120  0.00  0.00     0.034 C 
ENDBRANCH  28  30
BRANCH  28  32
ATOM     32  C3  <0> d           0.265  -5.656  -3.239  0.00  0.00     0.230 C 
ATOM     33  C4  <0> d          -0.146  -7.100  -3.531  0.00  0.00     0.034 C 
ENDBRANCH  28  32
ENDBRANCH  27  28
ENDBRANCH  26  27
ENDBRANCH   1  26
TORSDOF 11
