REMARK  1 active torsions:
REMARK  status: ('A' for Active; 'I' for Inactive)
REMARK    1  A    between atoms: C6_6  and  C7_8 
ROOT
ATOM      1  C7  <0> d          -2.107   3.168  -0.098  0.00  0.00     0.289 C 
ATOM      2  C8  <0> d          -1.634   2.473   1.157  0.00  0.00     0.054 A 
ATOM      3  C9  <0> d          -0.612   1.585   1.167  0.00  0.00    -0.019 A 
ATOM      4  C10 <0> d          -0.448   1.136   2.532  0.00  0.00    -0.001 A 
ATOM      5  C11 <0> d           0.434   0.236   3.138  0.00  0.00     0.014 A 
ATOM      6  C12 <0> d           0.297   0.048   4.491  0.00  0.00     0.001 A 
ATOM      7  C13 <0> d          -0.664   0.713   5.233  0.00  0.00     0.002 A 
ATOM      8  C14 <0> d          -1.550   1.610   4.661  0.00  0.00     0.030 A 
ATOM      9  C15 <0> d          -1.435   1.821   3.288  0.00  0.00     0.043 A 
ATOM     10  N2  <0> d          -2.133   2.617   2.422  0.00  0.00    -0.356 N 
ATOM     11  H2  <0> d          -2.869   3.200   2.669  0.00  0.00     0.166 HD
ATOM     12  C16 <0> d           0.159   1.192  -0.068  0.00  0.00     0.069 C 
ATOM     13  C17 <0> d          -0.650   1.635  -1.294  0.00  0.00     0.240 C 
ATOM     14  C18 <0> d          -1.509   3.608  -2.405  0.00  0.00     0.271 C 
ATOM     15  N3  <0> d          -1.039   3.052  -1.119  0.00  0.00    -0.059 N 
ATOM     16  H20 <0> d          -0.219   3.585  -0.805  0.00  0.00     0.280 HD
ENDROOT
BRANCH   1  17
ATOM     17  C6  <0> d          -2.349   4.627   0.193  0.00  0.00     0.071 A 
ATOM     18  C5  <0> d          -3.595   5.173  -0.047  0.00  0.00     0.030 A 
ATOM     19  C4  <0> d          -3.807   6.517   0.224  0.00  0.00     0.004 A 
ATOM     20  C3  <0> d          -2.752   7.263   0.727  0.00  0.00     0.027 A 
ATOM     21  C2  <0> d          -1.534   6.647   0.941  0.00  0.00     0.031 A 
ATOM     22  C1  <0> d          -0.380   7.449   1.487  0.00  0.00     0.070 C 
ATOM     23  N1  <0> d          -1.370   5.366   0.677  0.00  0.00    -0.256 NA
ENDBRANCH   1  17
TORSDOF 1
