REMARK  3 active torsions:
REMARK  status: ('A' for Active; 'I' for Inactive)
REMARK    1  A    between atoms: C3_3  and  C6_8 
REMARK       I    between atoms: C6_8  and  N2_10 
REMARK    2  A    between atoms: N2_10  and  C7_11 
REMARK    3  A    between atoms: C10_14  and  N4_17 
ROOT
ATOM      1  C7  <0> d           0.076  -0.630  -4.880  0.00  0.00     0.052 A 
ATOM      2  C8  <0> d           0.071  -1.496  -5.973  0.00  0.00     0.035 A 
ATOM      3  C9  <0> d           0.148  -0.953  -7.243  0.00  0.00     0.054 A 
ATOM      4  C10 <0> d           0.227   0.427  -7.386  0.00  0.00     0.150 A 
ATOM      5  N3  <0> d           0.229   1.219  -6.326  0.00  0.00    -0.239 NA
ATOM      6  C11 <0> d           0.152   0.738  -5.101  0.00  0.00     0.148 A 
ENDROOT
BRANCH   1   7
ATOM      7  N2  <0> d          -0.001  -1.135  -3.577  0.00  0.00    -0.321 N 
ATOM      8  C6  <0> d           0.600  -2.301  -3.269  0.00  0.00     0.265 C 
ATOM      9  O1  <0> d           1.136  -2.958  -4.142  0.00  0.00    -0.267 OA
ATOM     10  H7  <0> d          -0.486  -0.644  -2.895  0.00  0.00     0.169 HD
BRANCH   8  11
ATOM     11  C3  <0> d           0.608  -2.779  -1.882  0.00  0.00     0.099 A 
ATOM     12  C2  <0> d           1.154  -3.925  -1.349  0.00  0.00     0.054 A 
ATOM     13  C1  <0> d           1.882  -4.929  -2.205  0.00  0.00     0.072 C 
ATOM     14  N1  <0> d           1.004  -4.101  -0.059  0.00  0.00    -0.250 NA
ATOM     15  C4  <0> d           0.373  -3.222   0.686  0.00  0.00     0.072 A 
ATOM     16  S1  <0> d          -0.089  -2.036  -0.415  0.00  0.00    -0.068 SA
ATOM     17  C5  <0> d           0.120  -3.267   2.171  0.00  0.00     0.078 C 
ENDBRANCH   8  11
ENDBRANCH   1   7
BRANCH   4  18
ATOM     18  N4  <0> d           0.306   0.986  -8.666  0.00  0.00    -0.227 N 
ATOM     19  N5  <0> d           0.315   0.280  -9.876  0.00  0.00    -0.179 NA
ATOM     20  C14 <0> d           0.394   1.144 -10.855  0.00  0.00     0.141 A 
ATOM     21  C13 <0> d           0.449   2.430 -10.304  0.00  0.00     0.040 A 
ATOM     22  C12 <0> d           0.393   2.310  -8.958  0.00  0.00     0.122 A 
ENDBRANCH   4  18
TORSDOF 3
