REMARK  15 active torsions:
REMARK  status: ('A' for Active; 'I' for Inactive)
REMARK    1  A    between atoms: C2_2  and  C3_3 
REMARK    2  A    between atoms: C4_4  and  C5_5 
REMARK    3  A    between atoms: C5_5  and  C6_6 
REMARK    4  A    between atoms: C6_6  and  C7_7 
REMARK    5  A    between atoms: C6_6  and  O6_26 
REMARK    6  A    between atoms: C8_8  and  C9_9 
REMARK    7  A    between atoms: C10_10  and  O5_25 
REMARK    8  A    between atoms: C12_12  and  O4_24 
REMARK    9  A    between atoms: C13_13  and  C14_14 
REMARK   10  A    between atoms: C14_14  and  C15_15 
REMARK   11  A    between atoms: C15_15  and  C16_17 
REMARK   12  A    between atoms: C16_17  and  C17_18 
REMARK   13  A    between atoms: C17_18  and  C18_19 
REMARK   14  A    between atoms: C18_19  and  C19_20 
REMARK   15  A    between atoms: C19_20  and  C20_21 
ROOT
ATOM      1  C9  <0> d           3.101  -5.027   3.517  0.00  0.00     0.043 C 
ATOM      2  C10 <0> d           2.054  -4.866   4.639  0.00  0.00     0.128 C 
ATOM      3  C11 <0> d           1.413  -6.271   4.765  0.00  0.00     0.064 C 
ATOM      4  C12 <0> d           2.621  -7.218   4.554  0.00  0.00     0.125 C 
ATOM      5  C13 <0> d           3.462  -6.522   3.463  0.00  0.00     0.031 C 
ENDROOT
BRANCH   1   6
ATOM      6  C8  <0> d           2.516  -4.589   2.199  0.00  0.00    -0.021 C 
ATOM      7  C7  <0> d           3.092  -3.634   1.512  0.00  0.00     0.001 C 
BRANCH   7   8
ATOM      8  C6  <0> d           2.507  -3.196   0.194  0.00  0.00     0.144 C 
BRANCH   8   9
ATOM      9  C5  <0> d           2.252  -1.688   0.225  0.00  0.00     0.062 C 
BRANCH   9  10
ATOM     10  C4  <0> d           1.784  -1.229  -1.132  0.00  0.00    -0.028 C 
ATOM     11  C3  <0> d           0.669  -0.551  -1.245  0.00  0.00    -0.031 C 
BRANCH  11  12
ATOM     12  C2  <0> d          -0.057  -0.082  -0.010  0.00  0.00     0.022 C 
ATOM     13  C1  <0> d          -0.327   1.420  -0.117  0.00  0.00     0.009 C 
ENDBRANCH  11  12
ENDBRANCH   9  10
ENDBRANCH   8   9
BRANCH   8  14
ATOM     14  O6  <0> d           1.275  -3.883  -0.032  0.00  0.00    -0.391 OA
ATOM     15  H31 <0> d           0.604  -3.721   0.645  0.00  0.00     0.210 HD
ENDBRANCH   8  14
ENDBRANCH   7   8
ENDBRANCH   1   6
BRANCH   5  16
ATOM     16  C14 <0> d           4.953  -6.711   3.749  0.00  0.00     0.086 C 
BRANCH  16  17
ATOM     17  C15 <0> d           5.318  -8.163   3.572  0.00  0.00     0.127 C 
ATOM     18  O1  <0> d           4.473  -8.963   3.251  0.00  0.00    -0.298 OA
BRANCH  17  19
ATOM     19  C16 <0> d           6.738  -8.615   3.797  0.00  0.00     0.078 C 
BRANCH  19  20
ATOM     20  C17 <0> d           6.838 -10.122   3.553  0.00  0.00     0.008 C 
BRANCH  20  21
ATOM     21  C18 <0> d           8.279 -10.582   3.781  0.00  0.00     0.011 C 
BRANCH  21  22
ATOM     22  C19 <0> d           8.378 -12.089   3.538  0.00  0.00     0.113 C 
BRANCH  22  23
ATOM     23  C20 <0> d           9.798 -12.542   3.763  0.00  0.00     0.172 C 
ATOM     24  O2  <0> d          10.651 -11.734   4.087  0.00  0.00    -0.648 OA
ATOM     25  O3  <0> d          10.094 -13.716   3.619  0.00  0.00    -0.648 OA
ENDBRANCH  22  23
ENDBRANCH  21  22
ENDBRANCH  20  21
ENDBRANCH  19  20
ENDBRANCH  17  19
ENDBRANCH  16  17
ENDBRANCH   5  16
BRANCH   2  26
ATOM     26  O5  <0> d           1.071  -3.896   4.271  0.00  0.00    -0.395 OA
ATOM     27  H30 <0> d           0.388  -3.755   4.940  0.00  0.00     0.210 HD
ENDBRANCH   2  26
BRANCH   4  28
ATOM     28  O4  <0> d           3.373  -7.346   5.763  0.00  0.00    -0.395 OA
ATOM     29  H29 <0> d           2.873  -7.725   6.498  0.00  0.00     0.210 HD
ENDBRANCH   4  28
TORSDOF 15
