REMARK  6 active torsions:
REMARK  status: ('A' for Active; 'I' for Inactive)
REMARK    1  A    between atoms: C2_2  and  C3_3 
REMARK    2  A    between atoms: C3_3  and  C4_4 
REMARK    3  A    between atoms: C4_4  and  S1_5 
REMARK    4  A    between atoms: S1_5  and  C5_6 
REMARK    5  A    between atoms: C8_11  and  C12_18 
REMARK       I    between atoms: C12_18  and  N4_20 
REMARK    6  A    between atoms: N4_20  and  C13_21 
ROOT
ATOM      1  C5  <0> d           1.585  -4.397   2.559  0.00  0.00     0.193 A 
ATOM      2  N1  <0> d           0.966  -4.897   1.504  0.00  0.00    -0.187 NA
ATOM      3  C6  <0> d           0.809  -6.211   1.330  0.00  0.00     0.258 A 
ATOM      4  O1  <0> d           0.263  -6.664   0.343  0.00  0.00    -0.270 OA
ATOM      5  C7  <0> d           1.345  -7.111   2.424  0.00  0.00     0.163 A 
ATOM      6  C8  <0> d           2.307  -8.117   1.789  0.00  0.00     0.107 C 
ATOM      7  C9  <0> d           2.720  -9.137   2.853  0.00  0.00     0.118 C 
ATOM      8  C10 <0> d           3.158  -8.451   4.115  0.00  0.00     0.223 C 
ATOM      9  O2  <0> d           3.831  -9.073   4.908  0.00  0.00    -0.273 OA
ATOM     10  N2  <0> d           2.838  -7.179   4.403  0.00  0.00    -0.314 N 
ATOM     11  C11 <0> d           2.124  -6.419   3.527  0.00  0.00     0.123 A 
ATOM     12  N3  <0> d           2.174  -5.117   3.521  0.00  0.00    -0.208 NA
ATOM     13  H14 <0> d           3.106  -6.797   5.254  0.00  0.00     0.170 HD
ENDROOT
BRANCH   6  14
ATOM     14  C12 <0> d           3.526  -7.396   1.274  0.00  0.00     0.228 C 
ATOM     15  O3  <0> d           3.618  -6.194   1.401  0.00  0.00    -0.273 OA
ATOM     16  N4  <0> d           4.513  -8.088   0.671  0.00  0.00    -0.326 N 
ATOM     17  H15 <0> d           4.470  -9.056   0.627  0.00  0.00     0.169 HD
BRANCH  16  18
ATOM     18  C13 <0> d           5.601  -7.410   0.109  0.00  0.00     0.052 A 
ATOM     19  C18 <0> d           6.204  -7.895  -1.044  0.00  0.00     0.037 A 
ATOM     20  C17 <0> d           7.274  -7.219  -1.600  0.00  0.00     0.021 A 
ATOM     21 Br1  <0> d           5.556  -9.475  -1.858  0.00  0.00    -0.049 Br
ATOM     22  C16 <0> d           7.751  -6.068  -1.002  0.00  0.00     0.002 A 
ATOM     23  C15 <0> d           7.156  -5.585   0.150  0.00  0.00     0.002 A 
ATOM     24  C14 <0> d           6.083  -6.252   0.706  0.00  0.00     0.031 A 
ENDBRANCH  16  18
ENDBRANCH   6  14
BRANCH   1  25
ATOM     25  S1  <0> d           1.644  -2.642   2.708  0.00  0.00    -0.090 SA
BRANCH  25  26
ATOM     26  C4  <0> d           0.755  -2.047   1.243  0.00  0.00     0.082 C 
BRANCH  26  27
ATOM     27  C3  <0> d           0.731  -0.517   1.248  0.00  0.00     0.010 C 
BRANCH  27  28
ATOM     28  C2  <0> d          -0.018  -0.015   0.012  0.00  0.00    -0.004 C 
ATOM     29  C1  <0> d          -0.042   1.515   0.017  0.00  0.00     0.005 C 
ENDBRANCH  27  28
ENDBRANCH  26  27
ENDBRANCH  25  26
ENDBRANCH   1  25
TORSDOF 6
