REMARK  5 active torsions:
REMARK  status: ('A' for Active; 'I' for Inactive)
REMARK    1  A    between atoms: N2_5  and  C6_8 
REMARK    2  A    between atoms: C6_8  and  C7_9 
REMARK    3  A    between atoms: C7_9  and  N3_10 
REMARK    4  A    between atoms: N3_10  and  C8_11 
REMARK    5  A    between atoms: C11_14  and  N5_21 
ROOT
ATOM      1  C8  <0> d           2.793  -6.745   2.028  0.00  0.00     0.039 A 
ATOM      2  C9  <0> d           3.531  -6.082   2.986  0.00  0.00     0.032 A 
ATOM      3  C10 <0> d           4.250  -6.785   3.947  0.00  0.00     0.032 A 
ATOM      4  C11 <0> d           4.245  -8.164   3.968  0.00  0.00     0.038 A 
ATOM      5  C12 <0> d           3.501  -8.871   3.003  0.00  0.00     0.018 A 
ATOM      6  C13 <0> d           2.762  -8.152   2.027  0.00  0.00     0.005 A 
ATOM      7  C14 <0> d           2.024  -8.883   1.080  0.00  0.00     0.031 A 
ATOM      8  C15 <0> d           2.045 -10.243   1.144  0.00  0.00     0.088 A 
ATOM      9  N4  <0> d           2.739 -10.890   2.071  0.00  0.00    -0.374 N 
ATOM     10  C16 <0> d           3.460 -10.272   2.978  0.00  0.00     0.102 A 
ATOM     11  H24 <0> d           2.720 -11.860   2.073  0.00  0.00     0.164 HD
ENDROOT
BRANCH   1  12
ATOM     12  N3  <0> d           2.075  -6.025   1.069  0.00  0.00    -0.388 N 
ATOM     13  H16 <0> d           1.554  -6.495   0.399  0.00  0.00     0.159 HD
BRANCH  12  14
ATOM     14  C7  <0> d           2.110  -4.561   1.075  0.00  0.00     0.147 C 
BRANCH  14  15
ATOM     15  C6  <0> d           1.247  -4.025  -0.070  0.00  0.00     0.254 C 
BRANCH  15  16
ATOM     16  N2  <0> d           1.282  -2.557  -0.064  0.00  0.00    -0.066 N 
ATOM     17  C3  <0> d           0.553  -2.045  -1.232  0.00  0.00     0.265 C 
ATOM     18  C2  <0> d           0.605  -0.516  -1.237  0.00  0.00     0.299 C 
ATOM     19  N1  <0> d           0.002  -0.004   0.002  0.00  0.00     0.087 N 
ATOM     20  C1  <0> d          -0.018   1.465   0.010  0.00  0.00     0.310 C 
ATOM     21  C5  <0> d           0.707  -0.528   1.181  0.00  0.00     0.299 C 
ATOM     22  C4  <0> d           0.653  -2.057   1.165  0.00  0.00     0.265 C 
ATOM     23  H25 <0> d           2.241  -2.244  -0.103  0.00  0.00     0.280 HD
ENDBRANCH  15  16
ENDBRANCH  14  15
ENDBRANCH  12  14
ENDBRANCH   1  12
BRANCH   4  24
ATOM     24  N5  <0> d           4.973  -8.854   4.939  0.00  0.00    -0.398 N 
ATOM     25  H22 <0> d           5.484  -8.364   5.602  0.00  0.00     0.156 HD
ATOM     26  H23 <0> d           4.967  -9.824   4.951  0.00  0.00     0.156 HD
ENDBRANCH   4  24
TORSDOF 5
