REMARK  7 active torsions:
REMARK  status: ('A' for Active; 'I' for Inactive)
REMARK    1  A    between atoms: C6_6  and  C8_8 
REMARK    2  A    between atoms: C6_6  and  N1_10 
REMARK    3  A    between atoms: C8_8  and  O1_9 
REMARK    4  A    between atoms: N1_10  and  S1_11 
REMARK    5  A    between atoms: S1_11  and  C9_14 
REMARK    6  A    between atoms: C12_17  and  O4_21 
REMARK    7  A    between atoms: C13_18  and  N2_20 
ROOT
ATOM      1  S1  <0> d           1.534   1.964   2.570  0.00  0.00     0.259 S 
ATOM      2  O2  <0> d           1.317   3.358   2.744  0.00  0.00    -0.201 OA
ATOM      3  O3  <0> d           0.469   1.023   2.557  0.00  0.00    -0.201 OA
ENDROOT
BRANCH   1   4
ATOM      4  N1  <0> d           2.340   1.786   1.135  0.00  0.00    -0.303 N 
ATOM      5  H16 <0> d           2.659   2.568   0.657  0.00  0.00     0.173 HD
BRANCH   4   6
ATOM      6  C6  <0> d           2.573   0.448   0.586  0.00  0.00     0.062 C 
ATOM      7  C5  <0> d           3.473   0.552  -0.646  0.00  0.00     0.034 C 
ATOM      8  C4  <0> d           2.793   1.425  -1.703  0.00  0.00     0.003 C 
ATOM      9  C3  <0> d           1.456   0.797  -2.100  0.00  0.00     0.004 C 
ATOM     10  C2  <0> d           0.555   0.693  -0.867  0.00  0.00    -0.016 C 
ATOM     11  C1  <0> d           0.312   2.091  -0.294  0.00  0.00     0.010 C 
ATOM     12  C7  <0> d           1.235  -0.180   0.189  0.00  0.00     0.038 C 
BRANCH   6  13
ATOM     13  C8  <0> d           3.253  -0.425   1.643  0.00  0.00     0.195 C 
BRANCH  13  14
ATOM     14  O1  <0> d           4.480   0.185   2.047  0.00  0.00    -0.398 OA
ATOM     15  H15 <0> d           4.966  -0.315   2.717  0.00  0.00     0.209 HD
ENDBRANCH  13  14
ENDBRANCH   6  13
ENDBRANCH   4   6
ENDBRANCH   1   4
BRANCH   1  16
ATOM     16  C9  <0> d           2.634   1.462   3.852  0.00  0.00     0.081 A 
ATOM     17  C14 <0> d           3.639   2.314   4.271  0.00  0.00     0.057 A 
ATOM     18  C13 <0> d           4.503   1.922   5.283  0.00  0.00     0.060 A 
ATOM     19  C12 <0> d           4.361   0.665   5.866  0.00  0.00     0.091 A 
ATOM     20  C11 <0> d           3.355  -0.185   5.437  0.00  0.00     0.040 A 
ATOM     21  C10 <0> d           2.494   0.215   4.431  0.00  0.00     0.028 A 
BRANCH  18  22
ATOM     22  N2  <0> d           5.517   2.785   5.713  0.00  0.00    -0.397 N 
ATOM     23  H20 <0> d           6.123   2.508   6.418  0.00  0.00     0.156 HD
ATOM     24  H21 <0> d           5.615   3.659   5.306  0.00  0.00     0.156 HD
ENDBRANCH  18  22
BRANCH  19  25
ATOM     25  O4  <0> d           5.208   0.273   6.856  0.00  0.00    -0.358 OA
ATOM     26  H22 <0> d           6.000  -0.183   6.538  0.00  0.00     0.217 HD
ENDBRANCH  19  25
ENDBRANCH   1  16
TORSDOF 7
