REMARK  2 active torsions:
REMARK  status: ('A' for Active; 'I' for Inactive)
REMARK    1  A    between atoms: C6_9  and  N3_10 
REMARK    2  A    between atoms: C10_14  and  C11_15 
ROOT
ATOM      1  C1  <0> d          -0.017   1.402   0.010  0.00  0.00     0.040 A 
ATOM      2  C2  <0> d           1.137   2.095   0.003  0.00  0.00     0.053 A 
ATOM      3  S1  <0> d           2.377   0.810  -0.016  0.00  0.00    -0.096 SA
ATOM      4  C3  <0> d           1.292  -0.591  -0.013  0.00  0.00     0.087 A 
ATOM      5  C4  <0> d           0.002  -0.004   0.002  0.00  0.00     0.079 A 
ATOM      6  N1  <0> d          -1.034  -0.873   0.007  0.00  0.00    -0.241 NA
ATOM      7  C5  <0> d          -0.835  -2.166  -0.002  0.00  0.00     0.236 A 
ATOM      8  N2  <0> d           0.365  -2.719  -0.017  0.00  0.00    -0.217 NA
ATOM      9  C6  <0> d           1.451  -1.956  -0.022  0.00  0.00     0.249 A 
ENDROOT
BRANCH   9  10
ATOM     10  N3  <0> d           2.727  -2.527  -0.038  0.00  0.00    -0.009 N 
ATOM     11  C10 <0> d           2.897  -3.362  -1.246  0.00  0.00     0.296 C 
ATOM     12  C9  <0> d           3.763  -4.570  -0.842  0.00  0.00     0.047 C 
ATOM     13  C8  <0> d           4.043  -4.380   0.666  0.00  0.00     0.031 C 
ATOM     14  C7  <0> d           2.891  -3.446   1.117  0.00  0.00     0.244 C 
ATOM     15  H11 <0> d           3.432  -1.805  -0.012  0.00  0.00     0.289 HD
BRANCH  11  16
ATOM     16  C11 <0> d           3.590  -2.571  -2.325  0.00  0.00     0.205 C 
ATOM     17  O1  <0> d           4.380  -1.692  -2.024  0.00  0.00    -0.646 OA
ATOM     18  O2  <0> d           3.362  -2.809  -3.498  0.00  0.00    -0.646 OA
ENDBRANCH  11  16
ENDBRANCH   9  10
TORSDOF 2
