REMARK  7 active torsions:
REMARK  status: ('A' for Active; 'I' for Inactive)
REMARK    1  A    between atoms: N1_2  and  C3_4 
REMARK    2  A    between atoms: C3_4  and  C4_5 
REMARK    3  A    between atoms: C3_4  and  C13_22 
REMARK    4  A    between atoms: C4_5  and  N2_6 
REMARK       I    between atoms: N2_6  and  C5_7 
REMARK       I    between atoms: C5_7  and  N3_9 
REMARK    5  A    between atoms: N3_9  and  C6_10 
REMARK    6  A    between atoms: C6_10  and  C7_11 
REMARK    7  A    between atoms: C8_15  and  C9_17 
ROOT
ATOM      1  N2  <0> d          -1.766   1.531  -1.169  0.00  0.00    -0.341 N 
ATOM      2  C5  <0> d          -2.260   2.263  -2.188  0.00  0.00     0.316 C 
ATOM      3  O1  <0> d          -2.936   1.731  -3.047  0.00  0.00    -0.247 OA
ATOM      4  N3  <0> d          -2.004   3.585  -2.254  0.00  0.00    -0.336 N 
ATOM      5  H11 <0> d          -1.227   1.956  -0.484  0.00  0.00     0.164 HD
ATOM      6  H12 <0> d          -1.465   4.009  -1.569  0.00  0.00     0.164 HD
ENDROOT
BRANCH   1   7
ATOM      7  C4  <0> d          -2.044   0.095  -1.098  0.00  0.00     0.162 C 
BRANCH   7   8
ATOM      8  C3  <0> d          -1.281  -0.514   0.081  0.00  0.00     0.238 C 
BRANCH   8   9
ATOM      9  N1  <0> d          -1.476  -1.970   0.090  0.00  0.00    -0.069 N 
ATOM     10  C1  <0> d          -0.970  -2.540  -1.166  0.00  0.00     0.270 C 
ATOM     11  C2  <0> d          -0.744  -2.555   1.222  0.00  0.00     0.270 C 
ATOM     12  H22 <0> d          -2.459  -2.178   0.182  0.00  0.00     0.279 HD
ENDBRANCH   8   9
BRANCH   8  13
ATOM     13  C13 <0> d          -1.799   0.070   1.370  0.00  0.00    -0.023 A 
ATOM     14  C18 <0> d          -1.102   1.085   1.997  0.00  0.00     0.051 A 
ATOM     15  C17 <0> d          -1.581   1.626   3.178  0.00  0.00     0.117 A 
ATOM     16  C16 <0> d          -2.752   1.141   3.736  0.00  0.00     0.042 A 
ATOM     17  F1  <0> d          -0.904   2.623   3.789  0.00  0.00    -0.206 F 
ATOM     18  C15 <0> d          -3.443   0.121   3.110  0.00  0.00     0.004 A 
ATOM     19  C14 <0> d          -2.968  -0.414   1.928  0.00  0.00     0.009 A 
ENDBRANCH   8  13
ENDBRANCH   7   8
ENDBRANCH   1   7
BRANCH   4  20
ATOM     20  C6  <0> d          -2.541   4.380  -3.361  0.00  0.00     0.206 C 
BRANCH  20  21
ATOM     21  C7  <0> d          -2.113   5.816  -3.201  0.00  0.00     0.166 A 
ATOM     22  N6  <0> d          -1.000   6.346  -3.699  0.00  0.00    -0.210 NA
ATOM     23  C8  <0> d          -0.932   7.625  -3.378  0.00  0.00     0.163 A 
ATOM     24  N5  <0> d          -2.036   7.924  -2.641  0.00  0.00    -0.258 N 
ATOM     25  N4  <0> d          -2.776   6.734  -2.546  0.00  0.00    -0.156 NA
ATOM     26  H2  <0> d          -2.266   8.784  -2.257  0.00  0.00     0.191 HD
BRANCH  23  27
ATOM     27  C9  <0> d           0.146   8.558  -3.745  0.00  0.00     0.052 A 
ATOM     28  S1  <0> d           0.318  10.291  -3.350  0.00  0.00    -0.098 SA
ATOM     29  C12 <0> d           1.872  10.585  -4.178  0.00  0.00     0.050 A 
ATOM     30  C11 <0> d           2.152   9.363  -4.703  0.00  0.00     0.009 A 
ATOM     31  C10 <0> d           1.276   8.324  -4.487  0.00  0.00     0.023 A 
ENDBRANCH  23  27
ENDBRANCH  20  21
ENDBRANCH   4  20
TORSDOF 7
