REMARK  8 active torsions:
REMARK  status: ('A' for Active; 'I' for Inactive)
REMARK    1  A    between atoms: C4_4  and  O6_38 
REMARK    2  A    between atoms: C5_5  and  C20_25 
REMARK    3  A    between atoms: C10_11  and  C11_12 
REMARK    4  A    between atoms: C13_14  and  O4_22 
REMARK    5  A    between atoms: C14_15  and  O3_20 
REMARK    6  A    between atoms: C16_17  and  O2_18 
REMARK    7  A    between atoms: C20_25  and  N1_26 
REMARK    8  A    between atoms: N2_29  and  C25_32 
ROOT
ATOM      1  C1  <0> d          -0.621   1.492   0.033  0.00  0.00     0.049 C 
ATOM      2  C2  <0> d          -0.637  -0.015   0.042  0.00  0.00    -0.042 A 
ATOM      3  C3  <0> d          -0.827  -0.704  -1.123  0.00  0.00     0.045 A 
ATOM      4  C4  <0> d          -0.843  -2.096  -1.117  0.00  0.00     0.076 A 
ATOM      5  C5  <0> d          -0.668  -2.798   0.065  0.00  0.00     0.036 A 
ATOM      6  C6  <0> d          -0.473  -2.112   1.258  0.00  0.00     0.101 A 
ATOM      7  C7  <0> d          -0.454  -0.708   1.238  0.00  0.00     0.057 A 
ATOM      8  C8  <0> d          -0.226  -0.277   2.630  0.00  0.00     0.219 A 
ATOM      9  O1  <0> d          -0.146   0.864   3.053  0.00  0.00    -0.284 OA
ATOM     10  C9  <0> d          -0.119  -1.527   3.390  0.00  0.00     0.128 A 
ATOM     11  C10 <0> d           0.093  -1.637   4.729  0.00  0.00     0.055 C 
ATOM     12  O5  <0> d          -0.282  -2.552   2.520  0.00  0.00    -0.305 OA
ENDROOT
BRANCH   5  13
ATOM     13  C20 <0> d          -0.688  -4.304   0.056  0.00  0.00     0.279 C 
BRANCH  13  14
ATOM     14  N1  <0> d           0.673  -4.812  -0.160  0.00  0.00    -0.064 N 
ATOM     15  C24 <0> d           0.672  -6.276  -0.049  0.00  0.00     0.255 C 
ATOM     16  C23 <0> d           2.108  -6.797  -0.160  0.00  0.00     0.150 C 
ATOM     17  N2  <0> d           2.695  -6.283  -1.407  0.00  0.00    -0.378 N 
ATOM     18  C22 <0> d           2.596  -4.841  -1.678  0.00  0.00     0.150 C 
ATOM     19  C21 <0> d           1.136  -4.412  -1.495  0.00  0.00     0.255 C 
ATOM     20  H33 <0> d           1.290  -4.423   0.537  0.00  0.00     0.280 HD
BRANCH  17  21
ATOM     21  C25 <0> d           3.330  -7.141  -2.309  0.00  0.00     0.030 A 
ATOM     22  C30 <0> d           3.293  -8.515  -2.107  0.00  0.00     0.029 A 
ATOM     23  C29 <0> d           3.917  -9.360  -3.003  0.00  0.00     0.002 A 
ATOM     24  C28 <0> d           4.587  -8.840  -4.095  0.00  0.00     0.000 A 
ATOM     25  C27 <0> d           4.631  -7.472  -4.296  0.00  0.00     0.002 A 
ATOM     26  C26 <0> d           4.004  -6.622  -3.407  0.00  0.00     0.029 A 
ENDBRANCH  17  21
ENDBRANCH  13  14
ENDBRANCH   5  13
BRANCH   4  27
ATOM     27  O6  <0> d          -1.033  -2.771  -2.279  0.00  0.00    -0.360 OA
ATOM     28  H32 <0> d          -0.215  -2.978  -2.752  0.00  0.00     0.217 HD
ENDBRANCH   4  27
BRANCH  11  29
ATOM     29  C11 <0> d           0.023  -2.949   5.377  0.00  0.00     0.003 A 
ATOM     30  C16 <0> d           0.571  -3.134   6.658  0.00  0.00     0.081 A 
ATOM     31  C15 <0> d           0.494  -4.375   7.266  0.00  0.00     0.077 A 
ATOM     32  C14 <0> d          -0.110  -5.436   6.609  0.00  0.00     0.104 A 
ATOM     33  C13 <0> d          -0.650  -5.260   5.334  0.00  0.00     0.102 A 
ATOM     34  C12 <0> d          -0.587  -4.027   4.719  0.00  0.00     0.054 A 
BRANCH  30  35
ATOM     35  O2  <0> d           1.168  -2.098   7.299  0.00  0.00    -0.355 OA
ATOM     36  C17 <0> d           1.702  -2.360   8.598  0.00  0.00     0.210 C 
ENDBRANCH  30  35
BRANCH  32  37
ATOM     37  O3  <0> d          -0.176  -6.653   7.209  0.00  0.00    -0.353 OA
ATOM     38  C18 <0> d           0.397  -6.765   8.514  0.00  0.00     0.210 C 
ENDBRANCH  32  37
BRANCH  33  39
ATOM     39  O4  <0> d          -1.241  -6.306   4.697  0.00  0.00    -0.353 OA
ATOM     40  C19 <0> d          -1.774  -6.056   3.395  0.00  0.00     0.210 C 
ENDBRANCH  33  39
ENDBRANCH  11  29
TORSDOF 8
