REMARK  4 active torsions:
REMARK  status: ('A' for Active; 'I' for Inactive)
REMARK    1  A    between atoms: C4_4  and  O2_25 
REMARK    2  A    between atoms: C5_5  and  N1_7 
REMARK       I    between atoms: N1_7  and  C7_8 
REMARK    3  A    between atoms: C7_8  and  C8_10 
REMARK    4  A    between atoms: N2_13  and  C13_16 
ROOT
ATOM      1  C8  <0> d          -2.482   0.990   0.131  0.00  0.00     0.080 C 
ATOM      2  C9  <0> d          -2.662   0.036  -1.054  0.00  0.00     0.029 C 
ATOM      3  C10 <0> d          -4.041  -0.621  -0.968  0.00  0.00     0.098 C 
ATOM      4  N2  <0> d          -5.082   0.414  -0.985  0.00  0.00    -0.267 NA
ATOM      5  C11 <0> d          -4.957   1.312   0.170  0.00  0.00     0.098 C 
ATOM      6  C12 <0> d          -3.606   2.029   0.117  0.00  0.00     0.029 C 
ENDROOT
BRANCH   1   7
ATOM      7  C7  <0> d          -1.150   1.686   0.018  0.00  0.00     0.226 C 
ATOM      8  N1  <0> d          -0.011   0.966   0.007  0.00  0.00    -0.324 N 
ATOM      9  H5  <0> d          -0.050  -0.003  -0.011  0.00  0.00     0.169 HD
ATOM     10  O1  <0> d          -1.103   2.896  -0.063  0.00  0.00    -0.273 OA
BRANCH   8  11
ATOM     11  C5  <0> d           1.230   1.617   0.017  0.00  0.00     0.068 A 
ATOM     12  C4  <0> d           2.358   0.977  -0.492  0.00  0.00     0.092 A 
ATOM     13  C3  <0> d           3.581   1.628  -0.485  0.00  0.00     0.039 A 
ATOM     14  C2  <0> d           3.683   2.904   0.037  0.00  0.00     0.003 A 
ATOM     15  C1  <0> d           2.564   3.537   0.548  0.00  0.00     0.002 A 
ATOM     16  C6  <0> d           1.339   2.897   0.539  0.00  0.00     0.032 A 
BRANCH  12  17
ATOM     17  O2  <0> d           2.257  -0.280  -1.000  0.00  0.00    -0.358 OA
ATOM     18  H18 <0> d           2.058  -0.308  -1.945  0.00  0.00     0.217 HD
ENDBRANCH  12  17
ENDBRANCH   8  11
ENDBRANCH   1   7
BRANCH   4  19
ATOM     19  C13 <0> d          -6.345  -0.152  -1.039  0.00  0.00     0.126 A 
ATOM     20  N4  <0> d          -7.263   0.134  -0.116  0.00  0.00    -0.228 NA
ATOM     21  C18 <0> d          -8.465  -0.411  -0.187  0.00  0.00     0.235 A 
ATOM     22  N3  <0> d          -8.825  -1.248  -1.124  0.00  0.00    -0.241 NA
ATOM     23  C15 <0> d          -7.970  -1.615  -2.111  0.00  0.00     0.079 A 
ATOM     24  C14 <0> d          -6.685  -1.034  -2.050  0.00  0.00     0.074 A 
ATOM     25  C16 <0> d          -8.184  -2.493  -3.188  0.00  0.00     0.040 A 
ATOM     26  S1  <0> d          -5.858  -1.722  -3.460  0.00  0.00    -0.096 SA
ATOM     27  C17 <0> d          -7.197  -2.730  -4.074  0.00  0.00     0.053 A 
ENDBRANCH   4  19
TORSDOF 4
