REMARK  6 active torsions:
REMARK  status: ('A' for Active; 'I' for Inactive)
REMARK    1  A    between atoms: C3_3  and  N3_14 
REMARK    2  A    between atoms: N1_5  and  C5_7 
REMARK       I    between atoms: N3_14  and  C12_15 
REMARK    3  A    between atoms: C12_15  and  C13_17 
REMARK    4  A    between atoms: C13_17  and  O2_18 
REMARK    5  A    between atoms: O2_18  and  C14_19 
REMARK    6  A    between atoms: C14_19  and  C15_21 
ROOT
ATOM      1  N3  <0> d           1.817   6.948   0.857  0.00  0.00    -0.322 N 
ATOM      2  C12 <0> d           0.943   7.971   0.783  0.00  0.00     0.246 C 
ATOM      3  O1  <0> d          -0.193   7.772   0.407  0.00  0.00    -0.271 OA
ATOM      4  H12 <0> d           2.706   7.095   1.216  0.00  0.00     0.169 HD
ENDROOT
BRANCH   1   5
ATOM      5  C3  <0> d           1.441   5.668   0.411  0.00  0.00     0.085 A 
ATOM      6  C2  <0> d           1.247   5.281  -0.924  0.00  0.00     0.080 A 
ATOM      7  C1  <0> d           1.407   6.169  -2.131  0.00  0.00     0.075 C 
ATOM      8  N2  <0> d           0.904   4.019  -0.943  0.00  0.00    -0.170 NA
ATOM      9  N1  <0> d           0.866   3.552   0.378  0.00  0.00    -0.236 N 
ATOM     10  C4  <0> d           1.195   4.588   1.196  0.00  0.00     0.061 A 
ATOM     11  C11 <0> d           1.275   4.544   2.700  0.00  0.00     0.073 C 
BRANCH   9  12
ATOM     12  C5  <0> d           0.540   2.251   0.783  0.00  0.00     0.058 A 
ATOM     13  C10 <0> d           1.176   1.685   1.881  0.00  0.00     0.031 A 
ATOM     14  C9  <0> d           0.853   0.402   2.278  0.00  0.00     0.002 A 
ATOM     15  C8  <0> d          -0.101  -0.319   1.585  0.00  0.00     0.000 A 
ATOM     16  C7  <0> d          -0.736   0.242   0.492  0.00  0.00     0.002 A 
ATOM     17  C6  <0> d          -0.418   1.524   0.089  0.00  0.00     0.031 A 
ENDBRANCH   9  12
ENDBRANCH   1   5
BRANCH   2  18
ATOM     18  C13 <0> d           1.376   9.362   1.169  0.00  0.00     0.282 C 
BRANCH  18  19
ATOM     19  O2  <0> d           0.262  10.279   1.005  0.00  0.00    -0.308 OA
BRANCH  19  20
ATOM     20  C14 <0> d           0.485  11.574   1.310  0.00  0.00     0.302 C 
ATOM     21  O3  <0> d           1.580  11.926   1.703  0.00  0.00    -0.259 OA
BRANCH  20  22
ATOM     22  C15 <0> d          -0.594  12.555   1.169  0.00  0.00     0.106 A 
ATOM     23  S1  <0> d          -2.280  12.330   0.623  0.00  0.00    -0.067 SA
ATOM     24  C17 <0> d          -2.790  13.983   0.775  0.00  0.00     0.072 A 
ATOM     25  N4  <0> d          -1.700  14.580   1.211  0.00  0.00    -0.250 NA
ATOM     26  C18 <0> d          -4.141  14.584   0.482  0.00  0.00     0.078 C 
ATOM     27  C16 <0> d          -0.592  13.919   1.427  0.00  0.00     0.054 A 
ATOM     28  C19 <0> d           0.645  14.615   1.933  0.00  0.00     0.072 C 
ENDBRANCH  20  22
ENDBRANCH  19  20
ENDBRANCH  18  19
ENDBRANCH   2  18
TORSDOF 6
