REMARK  6 active torsions:
REMARK  status: ('A' for Active; 'I' for Inactive)
REMARK    1  A    between atoms: C2_2  and  C3_3 
REMARK    2  A    between atoms: C3_3  and  C4_4 
REMARK    3  A    between atoms: C3_3  and  N4_20 
REMARK    4  A    between atoms: C4_4  and  C5_5 
REMARK    5  A    between atoms: C4_4  and  S2_11 
REMARK    6  A    between atoms: S2_11  and  C9_12 
ROOT
ATOM      1  C4  <0> d          -1.367  -2.032  -0.116  0.00  0.00     0.125 C 
ENDROOT
BRANCH   1   2
ATOM      2  C3  <0> d          -1.478  -0.509  -0.225  0.00  0.00     0.202 C 
BRANCH   2   3
ATOM      3  C2  <0> d          -2.439  -0.148  -1.359  0.00  0.00     0.030 C 
ATOM      4  C1  <0> d          -2.647   1.368  -1.388  0.00  0.00     0.007 C 
ENDBRANCH   2   3
BRANCH   2   5
ATOM      5  N4  <0> d          -0.153   0.059  -0.506  0.00  0.00    -0.074 N 
ATOM      6  H14 <0> d          -0.208   1.066  -0.487  0.00  0.00     0.274 HD
ATOM      7  H15 <0> d           0.503  -0.256   0.193  0.00  0.00     0.274 HD
ATOM      8  H16 <0> d           0.156  -0.244  -1.418  0.00  0.00     0.274 HD
ENDBRANCH   2   5
ENDBRANCH   1   2
BRANCH   1   9
ATOM      9  C5  <0> d          -0.708  -2.578  -1.356  0.00  0.00     0.000 A 
ATOM     10  S1  <0> d          -1.238  -2.458  -3.056  0.00  0.00    -0.086 SA
ATOM     11  C8  <0> d           0.110  -3.359  -3.804  0.00  0.00     0.051 A 
ATOM     12  C7  <0> d           0.858  -3.692  -2.723  0.00  0.00     0.028 A 
ATOM     13 Br1  <0> d           0.412  -3.752  -5.629  0.00  0.00    -0.043 Br
ATOM     14  C6  <0> d           0.438  -3.292  -1.468  0.00  0.00     0.017 A 
ENDBRANCH   1   9
BRANCH   1  15
ATOM     15  S2  <0> d          -3.026  -2.748   0.052  0.00  0.00    -0.078 SA
BRANCH  15  16
ATOM     16  C9  <0> d          -3.550  -2.237   1.655  0.00  0.00     0.192 A 
ATOM     17  N3  <0> d          -4.798  -2.449   2.197  0.00  0.00    -0.280 N 
ATOM     18  C10 <0> d          -4.817  -1.919   3.436  0.00  0.00     0.344 A 
ATOM     19  C11 <0> d          -5.913  -3.136   1.540  0.00  0.00     0.163 C 
ATOM     20  N2  <0> d          -3.604  -1.375   3.666  0.00  0.00    -0.226 N 
ATOM     21  O1  <0> d          -5.761  -1.926   4.207  0.00  0.00    -0.245 OA
ATOM     22  N1  <0> d          -2.824  -1.591   2.522  0.00  0.00    -0.145 NA
ATOM     23  H3  <0> d          -3.324  -0.918   4.474  0.00  0.00     0.194 HD
ENDBRANCH  15  16
ENDBRANCH   1  15
TORSDOF 6
