REMARK  6 active torsions:
REMARK  status: ('A' for Active; 'I' for Inactive)
REMARK    1  A    between atoms: C3_3  and  C7_11 
REMARK    2  A    between atoms: C5_5  and  S1_7 
REMARK    3  A    between atoms: S1_7  and  N1_10 
REMARK    4  A    between atoms: C7_11  and  N2_12 
REMARK    5  A    between atoms: N2_12  and  C8_13 
REMARK    6  A    between atoms: C8_13  and  C9_14 
ROOT
ATOM      1  C7  <0> d           3.672   2.182  -0.022  0.00  0.00     0.271 C 
ENDROOT
BRANCH   1   2
ATOM      2  C3  <0> d           2.377   1.411  -0.013  0.00  0.00    -0.031 A 
ATOM      3  C2  <0> d           1.171   2.085   0.002  0.00  0.00     0.009 A 
ATOM      4  C1  <0> d          -0.017   1.378   0.010  0.00  0.00     0.002 A 
ATOM      5  C6  <0> d           0.002  -0.004   0.002  0.00  0.00     0.025 A 
ATOM      6  C5  <0> d           1.209  -0.679  -0.012  0.00  0.00     0.079 A 
ATOM      7  C4  <0> d           2.396   0.028  -0.020  0.00  0.00     0.034 A 
BRANCH   6   8
ATOM      8  S1  <0> d           1.232  -2.441  -0.022  0.00  0.00     0.256 S 
ATOM      9  O1  <0> d          -0.013  -2.861  -0.562  0.00  0.00    -0.201 OA
ATOM     10  O2  <0> d           2.477  -2.827  -0.588  0.00  0.00    -0.201 OA
BRANCH   8  11
ATOM     11  N1  <0> d           1.256  -2.939   1.557  0.00  0.00    -0.324 N 
ATOM     12  H5  <0> d           0.850  -3.785   1.805  0.00  0.00     0.169 HD
ATOM     13  H6  <0> d           1.675  -2.386   2.234  0.00  0.00     0.169 HD
ENDBRANCH   8  11
ENDBRANCH   6   8
ENDBRANCH   1   2
BRANCH   1  14
ATOM     14  N2  <0> d           4.106   2.426   1.360  0.00  0.00    -0.067 N 
ATOM     15  H9  <0> d           3.401   2.959   1.845  0.00  0.00     0.277 HD
ATOM     16  H15 <0> d           4.244   1.544   1.830  0.00  0.00     0.277 HD
BRANCH  14  17
ATOM     17  C8  <0> d           5.368   3.178   1.351  0.00  0.00     0.274 C 
BRANCH  17  18
ATOM     18  C9  <0> d           5.814   3.428   2.768  0.00  0.00     0.011 A 
ATOM     19  C14 <0> d           6.632   2.514   3.408  0.00  0.00     0.043 A 
ATOM     20  C13 <0> d           7.045   2.748   4.708  0.00  0.00     0.024 A 
ATOM     21 Cl1  <0> d           7.144   1.078   2.579  0.00  0.00    -0.084 Cl
ATOM     22  C12 <0> d           6.633   3.888   5.370  0.00  0.00     0.003 A 
ATOM     23  C11 <0> d           5.811   4.799   4.734  0.00  0.00     0.024 A 
ATOM     24  C10 <0> d           5.401   4.569   3.432  0.00  0.00     0.043 A 
ATOM     25 Cl2  <0> d           4.370   5.714   2.632  0.00  0.00    -0.084 Cl
ENDBRANCH  17  18
ENDBRANCH  14  17
ENDBRANCH   1  14
TORSDOF 6
