REMARK  6 active torsions:
REMARK  status: ('A' for Active; 'I' for Inactive)
REMARK    1  A    between atoms: C10_12  and  C11_13 
REMARK    2  A    between atoms: C11_13  and  C12_14 
REMARK       I    between atoms: C12_14  and  N1_16 
REMARK    3  A    between atoms: N1_16  and  C13_17 
REMARK    4  A    between atoms: C13_17  and  C14_18 
REMARK    5  A    between atoms: C13_17  and  C23_28 
REMARK    6  A    between atoms: C14_18  and  C15_19 
ROOT
ATOM      1  C11 <0> d           2.020   0.301   1.455  0.00  0.00     0.118 C 
ENDROOT
BRANCH   1   2
ATOM      2  C10 <0> d           0.740  -0.510   1.246  0.00  0.00     0.103 C 
ATOM      3  C2  <0> d           0.002  -0.004   0.002  0.00  0.00     0.031 C 
ATOM      4  C1  <0> d          -0.019   1.526   0.010  0.00  0.00     0.016 C 
ATOM      5  C3  <0> d           0.705  -0.489  -1.241  0.00  0.00    -0.019 A 
ATOM      6  C8  <0> d           1.565  -1.573  -1.218  0.00  0.00     0.088 A 
ATOM      7  C4  <0> d           0.472   0.176  -2.434  0.00  0.00     0.020 A 
ATOM      8  C7  <0> d           2.182  -1.988  -2.391  0.00  0.00     0.075 A 
ATOM      9  O1  <0> d           1.839  -2.247  -0.068  0.00  0.00    -0.278 OA
ATOM     10  C6  <0> d           1.947  -1.320  -3.585  0.00  0.00     0.078 A 
ATOM     11  C5  <0> d           1.087  -0.234  -3.603  0.00  0.00    -0.024 A 
ATOM     12  O6  <0> d           2.578  -1.753  -4.707  0.00  0.00    -0.340 OA
ATOM     13  C26 <0> d           0.799   0.517  -4.878  0.00  0.00     0.044 C 
ATOM     14  C25 <0> d           1.877   0.201  -5.918  0.00  0.00     0.042 C 
ATOM     15  C24 <0> d           2.066  -1.321  -5.969  0.00  0.00     0.061 C 
ATOM     16  C27 <0> d           0.721  -1.999  -6.239  0.00  0.00     0.046 C 
ATOM     17  C28 <0> d           3.057  -1.681  -7.077  0.00  0.00     0.046 C 
ATOM     18  C9  <0> d           1.084  -1.967   1.013  0.00  0.00     0.269 C 
ATOM     19  O2  <0> d           0.703  -2.836   1.761  0.00  0.00    -0.264 OA
ENDBRANCH   1   2
BRANCH   1  20
ATOM     20  C12 <0> d           2.675  -0.120   2.745  0.00  0.00     0.219 C 
ATOM     21  O3  <0> d           2.168  -0.983   3.430  0.00  0.00    -0.274 OA
ATOM     22  N1  <0> d           3.825   0.463   3.139  0.00  0.00    -0.346 N 
ATOM     23  H11 <0> d           4.231   1.153   2.591  0.00  0.00     0.163 HD
BRANCH  22  24
ATOM     24  C13 <0> d           4.462   0.054   4.393  0.00  0.00     0.189 C 
BRANCH  24  25
ATOM     25  C14 <0> d           5.962   0.351   4.324  0.00  0.00     0.073 C 
BRANCH  25  26
ATOM     26  C15 <0> d           6.594  -0.506   3.258  0.00  0.00    -0.048 A 
ATOM     27  C22 <0> d           7.091  -1.927   3.409  0.00  0.00     0.155 A 
ATOM     28  N2  <0> d           7.613  -2.312   2.093  0.00  0.00    -0.385 N 
ATOM     29  C21 <0> d           7.472  -1.299   1.274  0.00  0.00     0.038 A 
ATOM     30  H30 <0> d           8.002  -3.172   1.868  0.00  0.00     0.160 HD
ATOM     31  C16 <0> d           6.839  -0.158   1.974  0.00  0.00    -0.006 A 
ATOM     32  C20 <0> d           7.810  -1.135  -0.098  0.00  0.00     0.030 A 
ATOM     33  C17 <0> d           6.597   1.075   1.214  0.00  0.00     0.014 A 
ATOM     34  C18 <0> d           6.958   1.124  -0.088  0.00  0.00     0.001 A 
ATOM     35  C19 <0> d           7.556   0.030  -0.729  0.00  0.00     0.002 A 
ENDBRANCH  25  26
ENDBRANCH  24  25
BRANCH  24  36
ATOM     36  C23 <0> d           3.851   0.819   5.539  0.00  0.00     0.197 C 
ATOM     37  O4  <0> d           3.795   0.314   6.647  0.00  0.00    -0.646 OA
ATOM     38  O5  <0> d           3.414   1.942   5.358  0.00  0.00    -0.646 OA
ENDBRANCH  24  36
ENDBRANCH  22  24
ENDBRANCH   1  20
TORSDOF 6
