REMARK  1 active torsions:
REMARK  status: ('A' for Active; 'I' for Inactive)
REMARK    1  A    between atoms: C9_11  and  C11_14 
ROOT
ATOM      1  C1  <0> d          -0.019   1.526   0.010  0.00  0.00     0.040 C 
ATOM      2  C2  <0> d           0.002  -0.004   0.002  0.00  0.00     0.133 C 
ATOM      3  C3  <0> d           0.709  -0.492  -1.261  0.00  0.00     0.135 C 
ATOM      4  C4  <0> d           1.083  -1.945  -1.115  0.00  0.00     0.224 C 
ATOM      5  O1  <0> d           0.458  -2.798  -1.709  0.00  0.00    -0.273 OA
ATOM      6  N1  <0> d           2.119  -2.292  -0.320  0.00  0.00    -0.325 N 
ATOM      7  C5  <0> d           2.781  -1.300   0.417  0.00  0.00     0.069 A 
ATOM      8  C6  <0> d           4.163  -1.217   0.405  0.00  0.00     0.032 A 
ATOM      9  C7  <0> d           4.810  -0.235   1.139  0.00  0.00     0.003 A 
ATOM     10  C8  <0> d           4.088   0.666   1.888  0.00  0.00     0.018 A 
ATOM     11  C9  <0> d           2.688   0.597   1.911  0.00  0.00     0.045 A 
ATOM     12  C10 <0> d           2.033  -0.394   1.167  0.00  0.00     0.109 A 
ATOM     13  O2  <0> d           0.684  -0.472   1.163  0.00  0.00    -0.343 OA
ATOM     14  H7  <0> d           2.402  -3.218  -0.259  0.00  0.00     0.169 HD
ENDROOT
BRANCH  11  15
ATOM     15  C11 <0> d           1.914   1.556   2.709  0.00  0.00     0.158 C 
ATOM     16  O3  <0> d           0.703   1.492   2.725  0.00  0.00    -0.293 OA
ATOM     17  C12 <0> d           2.623   2.619   3.507  0.00  0.00     0.097 C 
ENDBRANCH  11  15
TORSDOF 1
