REMARK  12 active torsions:
REMARK  status: ('A' for Active; 'I' for Inactive)
REMARK    1  A    between atoms: O1_2  and  C2_3 
REMARK    2  A    between atoms: C2_3  and  C3_4 
REMARK    3  A    between atoms: C5_6  and  C9_11 
REMARK    4  A    between atoms: C8_9  and  O2_10 
REMARK    5  A    between atoms: C10_12  and  C17_24 
REMARK    6  A    between atoms: N1_16  and  C13_17 
REMARK    7  A    between atoms: C13_17  and  C14_18 
REMARK    8  A    between atoms: C14_18  and  O4_19 
REMARK    9  A    between atoms: O4_19  and  C15_20 
REMARK   10  A    between atoms: C15_20  and  C16_21 
REMARK   11  A    between atoms: C16_21  and  O5_22 
REMARK   12  A    between atoms: C17_24  and  C18_26 
ROOT
ATOM      1  C9  <0> d          -3.909   2.899   0.020  0.00  0.00     0.161 A 
ATOM      2  C10 <0> d          -3.264   4.262   0.104  0.00  0.00     0.064 A 
ATOM      3  C11 <0> d          -4.259   5.172  -0.001  0.00  0.00     0.187 A 
ATOM      4  C12 <0> d          -5.548   4.468  -0.148  0.00  0.00     0.281 A 
ATOM      5  O3  <0> d          -6.630   5.009  -0.265  0.00  0.00    -0.265 OA
ATOM      6  N1  <0> d          -5.349   3.137  -0.133  0.00  0.00    -0.331 N 
ATOM      7  O6  <0> d          -4.099   6.516   0.024  0.00  0.00    -0.185 OA
ENDROOT
BRANCH   1   8
ATOM      8  C5  <0> d          -3.646   2.122   1.284  0.00  0.00    -0.030 A 
ATOM      9  C4  <0> d          -2.709   1.106   1.287  0.00  0.00     0.021 A 
ATOM     10  C3  <0> d          -2.462   0.396   2.447  0.00  0.00    -0.001 A 
ATOM     11  C8  <0> d          -3.164   0.695   3.605  0.00  0.00     0.074 A 
ATOM     12  C7  <0> d          -4.109   1.712   3.597  0.00  0.00     0.038 A 
ATOM     13  C6  <0> d          -4.347   2.423   2.438  0.00  0.00     0.012 A 
BRANCH  10  14
ATOM     14  C2  <0> d          -1.435  -0.708   2.451  0.00  0.00     0.208 C 
BRANCH  14  15
ATOM     15  O1  <0> d          -0.950  -0.912   1.123  0.00  0.00    -0.391 OA
ATOM     16  C1  <0> d           0.034  -1.942   1.016  0.00  0.00     0.201 C 
ENDBRANCH  14  15
ENDBRANCH  10  14
BRANCH  11  17
ATOM     17  O2  <0> d          -2.928  -0.006   4.745  0.00  0.00    -0.360 OA
ATOM     18  H10 <0> d          -3.485   0.232   5.663  0.00  0.00     0.217 HD
ENDBRANCH  11  17
ENDBRANCH   1   8
BRANCH   6  19
ATOM     19  C13 <0> d          -6.386   2.108  -0.253  0.00  0.00     0.153 C 
BRANCH  19  20
ATOM     20  C14 <0> d          -6.587   1.758  -1.728  0.00  0.00     0.187 C 
BRANCH  20  21
ATOM     21  O4  <0> d          -5.397   1.157  -2.242  0.00  0.00    -0.387 OA
BRANCH  21  22
ATOM     22  C15 <0> d          -5.479   0.788  -3.620  0.00  0.00     0.193 C 
BRANCH  22  23
ATOM     23  C16 <0> d          -4.156   0.159  -4.060  0.00  0.00     0.190 C 
BRANCH  23  24
ATOM     24  O5  <0> d          -3.954  -1.067  -3.353  0.00  0.00    -0.399 OA
ATOM     25  H19 <0> d          -3.050  -1.666  -3.538  0.00  0.00     0.209 HD
ENDBRANCH  23  24
ENDBRANCH  22  23
ENDBRANCH  21  22
ENDBRANCH  20  21
ENDBRANCH  19  20
ENDBRANCH   6  19
BRANCH   2  26
ATOM     26  C17 <0> d          -1.833   4.545   0.264  0.00  0.00     0.217 C 
ATOM     27  O7  <0> d          -1.425   5.068   1.286  0.00  0.00    -0.285 OA
BRANCH  26  28
ATOM     28  C18 <0> d          -0.893   4.198  -0.807  0.00  0.00     0.125 A 
ATOM     29  O8  <0> d          -1.194   3.539  -1.945  0.00  0.00    -0.319 OA
ATOM     30  C21 <0> d          -0.086   3.398  -2.685  0.00  0.00     0.142 A 
ATOM     31  C20 <0> d           0.952   3.975  -2.037  0.00  0.00     0.027 A 
ATOM     32  C19 <0> d           0.453   4.492  -0.833  0.00  0.00     0.043 A 
ENDBRANCH  26  28
ENDBRANCH   2  26
TORSDOF 12
