REMARK  8 active torsions:
REMARK  status: ('A' for Active; 'I' for Inactive)
REMARK    1  A    between atoms: C3_3  and  C16_22 
REMARK    2  A    between atoms: C4_4  and  C10_15 
REMARK    3  A    between atoms: C6_8  and  C7_10 
REMARK    4  A    between atoms: C7_10  and  C8_11 
REMARK    5  A    between atoms: C8_11  and  C9_12 
REMARK    6  A    between atoms: C9_12  and  O1_13 
REMARK       I    between atoms: C16_22  and  N5_24 
REMARK    7  A    between atoms: N5_24  and  C17_25 
REMARK    8  A    between atoms: C22_30  and  O3_31 
ROOT
ATOM      1  C1  <0> d          -0.019   1.504  -0.008  0.00  0.00     0.070 C 
ATOM      2  C2  <0> d           0.002  -0.002  -0.022  0.00  0.00     0.037 C 
ATOM      3  C3  <0> d          -1.163  -0.667  -0.015  0.00  0.00     0.062 C 
ATOM      4  C4  <0> d          -1.253  -2.169  -0.040  0.00  0.00     0.202 C 
ATOM      5  N1  <0> d           0.067  -2.739   0.218  0.00  0.00    -0.083 N 
ATOM      6  C5  <0> d           1.213  -2.014   0.206  0.00  0.00     0.726 A 
ATOM      7  N2  <0> d           2.204  -2.823   0.466  0.00  0.00    -0.046 NA
ATOM      8  C6  <0> d           1.734  -4.061   0.652  0.00  0.00     0.166 A 
ATOM      9  N3  <0> d           0.431  -4.053   0.510  0.00  0.00    -0.140 NA
ATOM     10  N4  <0> d           1.213  -0.649  -0.049  0.00  0.00    -0.192 N 
ATOM     11  H12 <0> d           2.036  -0.171  -0.237  0.00  0.00     0.184 HD
ENDROOT
BRANCH   3  12
ATOM     12  C16 <0> d          -2.365   0.080   0.020  0.00  0.00     0.256 C 
ATOM     13  O2  <0> d          -2.325   1.297   0.042  0.00  0.00    -0.267 OA
ATOM     14  N5  <0> d          -3.553  -0.556   0.029  0.00  0.00    -0.321 N 
ATOM     15  H17 <0> d          -3.587  -1.522  -0.053  0.00  0.00     0.169 HD
BRANCH  14  16
ATOM     16  C17 <0> d          -4.739   0.178   0.157  0.00  0.00     0.068 A 
ATOM     17  C22 <0> d          -5.820  -0.358   0.853  0.00  0.00     0.095 A 
ATOM     18  C21 <0> d          -6.989   0.375   0.981  0.00  0.00     0.039 A 
ATOM     19  C20 <0> d          -7.085   1.630   0.408  0.00  0.00     0.003 A 
ATOM     20  C19 <0> d          -6.014   2.159  -0.288  0.00  0.00     0.002 A 
ATOM     21  C18 <0> d          -4.843   1.437  -0.415  0.00  0.00     0.032 A 
BRANCH  17  22
ATOM     22  O3  <0> d          -5.727  -1.594   1.411  0.00  0.00    -0.354 OA
ATOM     23  C23 <0> d          -6.875  -2.079   2.110  0.00  0.00     0.210 C 
ENDBRANCH  17  22
ENDBRANCH  14  16
ENDBRANCH   3  12
BRANCH   4  24
ATOM     24  C10 <0> d          -1.739  -2.621  -1.393  0.00  0.00    -0.028 A 
ATOM     25  C15 <0> d          -2.912  -3.345  -1.499  0.00  0.00     0.011 A 
ATOM     26  C14 <0> d          -3.361  -3.756  -2.740  0.00  0.00     0.019 A 
ATOM     27  C13 <0> d          -2.631  -3.450  -3.875  0.00  0.00     0.011 A 
ATOM     28  C12 <0> d          -1.456  -2.729  -3.768  0.00  0.00     0.019 A 
ATOM     29 Br1  <0> d          -3.242  -4.016  -5.573  0.00  0.00    -0.051 Br
ATOM     30  C11 <0> d          -1.010  -2.315  -2.527  0.00  0.00     0.011 A 
ENDBRANCH   4  24
BRANCH   8  31
ATOM     31  C7  <0> d           2.569  -5.273   0.974  0.00  0.00     0.085 C 
BRANCH  31  32
ATOM     32  C8  <0> d           2.700  -5.414   2.492  0.00  0.00     0.034 C 
BRANCH  32  33
ATOM     33  C9  <0> d           3.549  -6.644   2.818  0.00  0.00     0.164 C 
BRANCH  33  34
ATOM     34  O1  <0> d           3.671  -6.776   4.236  0.00  0.00    -0.401 OA
ATOM     35  H11 <0> d           4.197  -7.537   4.516  0.00  0.00     0.209 HD
ENDBRANCH  33  34
ENDBRANCH  32  33
ENDBRANCH  31  32
ENDBRANCH   8  31
TORSDOF 8
