REMARK  3 active torsions:
REMARK  status: ('A' for Active; 'I' for Inactive)
REMARK    1  A    between atoms: C2_2  and  C4_4 
REMARK    2  A    between atoms: C15_20  and  O6_25 
REMARK    3  A    between atoms: C16_21  and  O5_23 
ROOT
ATOM      1  C4  <0> d           1.046  -0.048  -0.268  0.00  0.00     0.126 C 
ATOM      2  C5  <0> d           1.327   0.352  -1.701  0.00  0.00     0.266 C 
ATOM      3  O1  <0> d           2.211   1.153  -1.919  0.00  0.00    -0.265 OA
ATOM      4  O2  <0> d           0.628  -0.154  -2.720  0.00  0.00    -0.313 OA
ATOM      5  C6  <0> d           1.079  -1.344  -3.356  0.00  0.00     0.168 C 
ATOM      6  C7  <0> d           1.911  -0.999  -4.600  0.00  0.00     0.062 C 
ATOM      7  C8  <0> d           1.488  -2.021  -5.661  0.00  0.00     0.238 C 
ATOM      8  N1  <0> d           0.366  -2.804  -5.122  0.00  0.00    -0.057 N 
ATOM      9  C9  <0> d          -0.111  -2.157  -3.885  0.00  0.00     0.248 C 
ATOM     10  C10 <0> d          -0.468  -3.267  -2.932  0.00  0.00    -0.025 C 
ATOM     11  C11 <0> d           0.078  -4.387  -3.342  0.00  0.00     0.008 C 
ATOM     12  C12 <0> d           0.838  -4.099  -4.612  0.00  0.00     0.263 C 
ATOM     13  C13 <0> d          -1.323  -3.130  -1.696  0.00  0.00     0.215 C 
ATOM     14  O3  <0> d          -0.494  -2.802  -0.587  0.00  0.00    -0.315 OA
ATOM     15  C14 <0> d          -1.044  -2.416   0.566  0.00  0.00     0.296 C 
ATOM     16  O4  <0> d          -1.627  -3.239   1.244  0.00  0.00    -0.262 OA
ATOM     17  C15 <0> d          -0.968  -0.995   1.055  0.00  0.00     0.173 C 
ATOM     18  C16 <0> d          -0.444  -0.039  -0.003  0.00  0.00     0.107 C 
ATOM     19  C17 <0> d          -0.825   1.393   0.450  0.00  0.00     0.050 C 
ATOM     20  C18 <0> d          -0.189  -0.903   2.365  0.00  0.00     0.060 C 
ATOM     21  H28 <0> d          -0.375  -2.913  -5.793  0.00  0.00     0.281 HD
ENDROOT
BRANCH   1  22
ATOM     22  C2  <0> d           1.768  -1.357   0.015  0.00  0.00    -0.006 C 
ATOM     23  C1  <0> d           3.033  -1.437  -0.842  0.00  0.00     0.010 C 
ATOM     24  C3  <0> d           2.150  -1.418   1.496  0.00  0.00     0.010 C 
ENDBRANCH   1  22
BRANCH  18  25
ATOM     25  O5  <0> d          -1.170  -0.279  -1.221  0.00  0.00    -0.386 OA
ATOM     26  H23 <0> d          -2.131  -0.284  -1.112  0.00  0.00     0.210 HD
ENDBRANCH  18  25
BRANCH  17  27
ATOM     27  O6  <0> d          -2.328  -0.590   1.354  0.00  0.00    -0.377 OA
ATOM     28  H27 <0> d          -2.760  -1.130   2.030  0.00  0.00     0.211 HD
ENDBRANCH  17  27
TORSDOF 3
