REMARK  7 active torsions:
REMARK  status: ('A' for Active; 'I' for Inactive)
REMARK    1  A    between atoms: C2_2  and  N1_3 
REMARK    2  A    between atoms: C4_5  and  C7_12 
REMARK    3  A    between atoms: C7_12  and  C8_14 
REMARK    4  A    between atoms: C8_14  and  N3_15 
REMARK    5  A    between atoms: N3_15  and  C9_16 
REMARK    6  A    between atoms: N3_15  and  C14_22 
REMARK    7  A    between atoms: C9_16  and  C10_17 
ROOT
ATOM      1  C7  <0> d          -3.486  -2.915   2.611  0.00  0.00     0.194 C 
ATOM      2  O3  <0> d          -3.057  -2.976   3.745  0.00  0.00    -0.290 OA
ENDROOT
BRANCH   1   3
ATOM      3  C4  <0> d          -2.593  -2.881   1.519  0.00  0.00     0.123 A 
ATOM      4  C3  <0> d          -1.208  -3.035   1.710  0.00  0.00     0.124 A 
ATOM      5  N1  <0> d          -0.383  -2.996   0.622  0.00  0.00    -0.285 N 
ATOM      6  N4  <0> d          -0.699  -3.220   2.958  0.00  0.00    -0.384 N 
ATOM      7  C6  <0> d          -0.869  -2.809  -0.615  0.00  0.00     0.331 A 
ATOM      8  N2  <0> d          -2.181  -2.662  -0.859  0.00  0.00    -0.274 N 
ATOM      9  O2  <0> d          -0.092  -2.778  -1.550  0.00  0.00    -0.246 OA
ATOM     10  C5  <0> d          -3.079  -2.686   0.147  0.00  0.00     0.267 A 
ATOM     11  H1  <0> d          -2.487  -2.534  -1.771  0.00  0.00     0.173 HD
ATOM     12  O1  <0> d          -4.267  -2.547  -0.077  0.00  0.00    -0.267 OA
ATOM     13  H23 <0> d           0.246  -3.406   3.073  0.00  0.00     0.157 HD
ATOM     14  H24 <0> d          -1.281  -3.166   3.732  0.00  0.00     0.157 HD
BRANCH   5  15
ATOM     15  C2  <0> d           1.061  -3.154   0.811  0.00  0.00     0.131 C 
ATOM     16  C1  <0> d           1.699  -1.783   1.038  0.00  0.00     0.027 C 
ENDBRANCH   5  15
ENDBRANCH   1   3
BRANCH   1  17
ATOM     17  C8  <0> d          -4.973  -2.874   2.369  0.00  0.00     0.319 C 
BRANCH  17  18
ATOM     18  N3  <0> d          -5.677  -2.794   3.656  0.00  0.00    -0.054 N 
ATOM     19  H25 <0> d          -5.365  -3.542   4.257  0.00  0.00     0.281 HD
BRANCH  18  20
ATOM     20  C9  <0> d          -7.123  -2.916   3.431  0.00  0.00     0.300 C 
BRANCH  20  21
ATOM     21  C10 <0> d          -7.829  -3.043   4.757  0.00  0.00     0.078 A 
ATOM     22  O4  <0> d          -7.631  -4.015   5.662  0.00  0.00    -0.325 OA
ATOM     23  C13 <0> d          -8.427  -3.807   6.724  0.00  0.00     0.142 A 
ATOM     24  C12 <0> d          -9.152  -2.696   6.500  0.00  0.00     0.027 A 
ATOM     25  C11 <0> d          -8.766  -2.204   5.233  0.00  0.00     0.036 A 
ENDBRANCH  20  21
ENDBRANCH  18  20
BRANCH  18  26
ATOM     26  C14 <0> d          -5.388  -1.502   4.292  0.00  0.00     0.189 C 
ATOM     27  C18 <0> d          -6.159  -0.378   3.577  0.00  0.00     0.033 C 
ATOM     28  C17 <0> d          -7.091   0.256   4.631  0.00  0.00     0.002 C 
ATOM     29  C16 <0> d          -6.415  -0.077   5.985  0.00  0.00     0.002 C 
ATOM     30  C15 <0> d          -5.878  -1.512   5.755  0.00  0.00     0.033 C 
ENDBRANCH  18  26
ENDBRANCH  17  18
ENDBRANCH   1  17
TORSDOF 7
