REMARK  4 active torsions:
REMARK  status: ('A' for Active; 'I' for Inactive)
REMARK    1  A    between atoms: C4_6  and  C5_7 
REMARK    2  A    between atoms: C5_7  and  N3_8 
REMARK       I    between atoms: N3_8  and  C6_9 
REMARK    3  A    between atoms: C6_9  and  C7_11 
REMARK       I    between atoms: N4_13  and  C15_21 
REMARK    4  A    between atoms: C15_21  and  C16_23 
ROOT
ATOM      1  C7  <0> d           3.001   0.541   4.669  0.00  0.00     0.106 C 
ATOM      2  C8  <0> d           3.879  -0.730   4.697  0.00  0.00     0.141 C 
ATOM      3  N4  <0> d           4.763  -0.548   5.873  0.00  0.00    -0.348 N 
ATOM      4  C9  <0> d           3.887   0.065   6.901  0.00  0.00     0.136 C 
ATOM      5  C10 <0> d           3.008   1.059   6.117  0.00  0.00    -0.007 C 
ATOM      6  C11 <0> d           3.614   2.458   6.174  0.00  0.00     0.039 C 
ATOM      7  C12 <0> d           3.558   2.974   7.615  0.00  0.00     0.233 C 
ATOM      8  N5  <0> d           2.163   3.003   8.072  0.00  0.00    -0.075 N 
ATOM      9  C13 <0> d           1.617   1.641   8.102  0.00  0.00     0.233 C 
ATOM     10  C14 <0> d           1.591   1.069   6.682  0.00  0.00     0.039 C 
ATOM     11  C15 <0> d           6.068  -0.867   5.983  0.00  0.00     0.251 C 
ATOM     12  O2  <0> d           6.674  -1.280   5.018  0.00  0.00    -0.270 OA
ATOM     13  H19 <0> d           2.123   3.401   8.999  0.00  0.00     0.277 HD
ATOM     14  H30 <0> d           1.616   3.570   7.442  0.00  0.00     0.277 HD
ENDROOT
BRANCH   1  15
ATOM     15  C6  <0> d           1.597   0.198   4.241  0.00  0.00     0.224 C 
ATOM     16  N3  <0> d           0.799   1.152   3.720  0.00  0.00    -0.354 N 
ATOM     17  H10 <0> d           1.129   2.059   3.621  0.00  0.00     0.162 HD
ATOM     18  O1  <0> d           1.185  -0.935   4.366  0.00  0.00    -0.273 OA
BRANCH  16  19
ATOM     19  C5  <0> d          -0.565   0.819   3.305  0.00  0.00     0.199 C 
BRANCH  19  20
ATOM     20  C4  <0> d          -1.240   2.052   2.761  0.00  0.00     0.100 A 
ATOM     21  N1  <0> d          -1.877   2.989   3.495  0.00  0.00    -0.348 N 
ATOM     22  C1  <0> d          -2.036   2.993   4.952  0.00  0.00     0.157 C 
ATOM     23  C2  <0> d          -2.341   3.939   2.626  0.00  0.00     0.108 A 
ATOM     24  C3  <0> d          -1.976   3.547   1.390  0.00  0.00     0.106 A 
ATOM     25  N2  <0> d          -1.308   2.390   1.502  0.00  0.00    -0.353 N 
ATOM     26  H31 <0> d          -0.931   1.885   0.764  0.00  0.00     0.166 HD
ENDBRANCH  19  20
ENDBRANCH  16  19
ENDBRANCH   1  15
BRANCH  11  27
ATOM     27  C16 <0> d           6.773  -0.709   7.306  0.00  0.00     0.245 C 
ATOM     28  O4  <0> d           8.173  -0.961   7.139  0.00  0.00    -0.331 OA
ATOM     29  C23 <0> d           8.899  -1.151   8.275  0.00  0.00     0.103 A 
ATOM     30  C18 <0> d           8.272  -1.454   9.478  0.00  0.00     0.102 A 
ATOM     31  C22 <0> d          10.281  -1.047   8.224  0.00  0.00     0.040 A 
ATOM     32  O3  <0> d           6.917  -1.557   9.551  0.00  0.00    -0.345 OA
ATOM     33  C19 <0> d           9.033  -1.653  10.621  0.00  0.00     0.039 A 
ATOM     34  C17 <0> d           6.217  -1.724   8.313  0.00  0.00     0.218 C 
ATOM     35  C20 <0> d          10.409  -1.548  10.563  0.00  0.00     0.003 A 
ATOM     36  C21 <0> d          11.033  -1.245   9.367  0.00  0.00     0.003 A 
ENDBRANCH  11  27
TORSDOF 4
