REMARK  6 active torsions:
REMARK  status: ('A' for Active; 'I' for Inactive)
REMARK    1  A    between atoms: N1_5  and  C5_7 
REMARK    2  A    between atoms: C5_7  and  C6_8 
REMARK    3  A    between atoms: C6_8  and  C7_9 
REMARK    4  A    between atoms: C7_9  and  N3_10 
REMARK       I    between atoms: N3_10  and  C8_11 
REMARK    5  A    between atoms: C8_11  and  C9_13 
REMARK       I    between atoms: N4_15  and  C17_23 
REMARK    6  A    between atoms: C17_23  and  C18_25 
ROOT
ATOM      1  C9  <0> d           4.606  -6.758   4.021  0.00  0.00     0.106 C 
ATOM      2  C10 <0> d           5.356  -5.585   4.691  0.00  0.00     0.141 C 
ATOM      3  N4  <0> d           5.252  -5.856   6.144  0.00  0.00    -0.345 N 
ATOM      4  C11 <0> d           5.421  -7.324   6.259  0.00  0.00     0.136 C 
ATOM      5  C12 <0> d           4.654  -7.898   5.052  0.00  0.00    -0.007 C 
ATOM      6  C13 <0> d           5.398  -9.100   4.476  0.00  0.00     0.039 C 
ATOM      7  C14 <0> d           5.382 -10.241   5.497  0.00  0.00     0.233 C 
ATOM      8  N5  <0> d           3.994 -10.602   5.808  0.00  0.00    -0.075 N 
ATOM      9  C15 <0> d           3.312  -9.470   6.447  0.00  0.00     0.233 C 
ATOM     10  C16 <0> d           3.241  -8.296   5.466  0.00  0.00     0.039 C 
ATOM     11  C17 <0> d           5.049  -4.967   7.137  0.00  0.00     0.274 C 
ATOM     12  O2  <0> d           4.987  -5.348   8.290  0.00  0.00    -0.266 OA
ATOM     13  H21 <0> d           3.512 -10.846   4.956  0.00  0.00     0.277 HD
ATOM     14  H36 <0> d           3.986 -11.394   6.434  0.00  0.00     0.277 HD
ENDROOT
BRANCH   1  15
ATOM     15  C8  <0> d           3.179  -6.371   3.733  0.00  0.00     0.224 C 
ATOM     16  N3  <0> d           2.520  -6.941   2.704  0.00  0.00    -0.361 N 
ATOM     17  H12 <0> d           2.966  -7.601   2.149  0.00  0.00     0.162 HD
ATOM     18  O1  <0> d           2.622  -5.546   4.426  0.00  0.00    -0.273 OA
BRANCH  16  19
ATOM     19  C7  <0> d           1.132  -6.565   2.424  0.00  0.00     0.124 C 
BRANCH  19  20
ATOM     20  C6  <0> d           0.625  -7.353   1.214  0.00  0.00     0.041 C 
BRANCH  20  21
ATOM     21  C5  <0> d          -0.825  -6.960   0.922  0.00  0.00     0.152 C 
BRANCH  21  22
ATOM     22  N1  <0> d          -1.311  -7.714  -0.236  0.00  0.00    -0.274 N 
ATOM     23  C4  <0> d          -1.923  -8.916  -0.201  0.00  0.00     0.028 A 
ATOM     24  C3  <0> d          -2.213  -9.269  -1.475  0.00  0.00     0.055 A 
ATOM     25  C23 <0> d          -2.229  -9.722   1.036  0.00  0.00     0.070 C 
ATOM     26  C2  <0> d          -1.763  -8.247  -2.317  0.00  0.00     0.053 A 
ATOM     27  C1  <0> d          -1.881  -8.225  -3.820  0.00  0.00     0.072 C 
ATOM     28  N2  <0> d          -1.217  -7.317  -1.577  0.00  0.00    -0.177 NA
ENDBRANCH  21  22
ENDBRANCH  20  21
ENDBRANCH  19  20
ENDBRANCH  16  19
ENDBRANCH   1  15
BRANCH  11  29
ATOM     29  C18 <0> d           4.902  -3.531   6.825  0.00  0.00     0.146 A 
ATOM     30  N7  <0> d           4.948  -2.980   5.628  0.00  0.00    -0.167 NA
ATOM     31  N6  <0> d           4.779  -1.710   5.721  0.00  0.00    -0.278 N 
ATOM     32  C20 <0> d           4.620  -1.353   7.014  0.00  0.00     0.028 A 
ATOM     33  C21 <0> d           4.767  -0.781   4.588  0.00  0.00     0.179 C 
ATOM     34  C19 <0> d           4.692  -2.484   7.754  0.00  0.00     0.065 A 
ATOM     35  C22 <0> d           4.403   0.044   7.536  0.00  0.00     0.070 C 
ENDBRANCH  11  29
TORSDOF 6
