REMARK  3 active torsions:
REMARK  status: ('A' for Active; 'I' for Inactive)
REMARK    1  A    between atoms: C3_3  and  N3_10 
REMARK    2  A    between atoms: C5_6  and  N2_7 
REMARK       I    between atoms: N3_10  and  C6_11 
REMARK    3  A    between atoms: C6_11  and  C7_13 
ROOT
ATOM      1  N3  <0> d          -4.827   4.068   0.047  0.00  0.00    -0.307 N 
ATOM      2  C6  <0> d          -6.011   3.433  -0.053  0.00  0.00     0.263 C 
ATOM      3  O3  <0> d          -6.050   2.217  -0.059  0.00  0.00    -0.267 OA
ATOM      4  H4  <0> d          -4.800   5.035   0.127  0.00  0.00     0.170 HD
ENDROOT
BRANCH   2   5
ATOM      5  C7  <0> d          -7.258   4.211  -0.154  0.00  0.00     0.115 A 
ATOM      6  C12 <0> d          -7.953   4.579   1.005  0.00  0.00     0.176 A 
ATOM      7  C11 <0> d          -9.123   5.309   0.903  0.00  0.00     0.197 A 
ATOM      8  F1  <0> d          -7.482   4.221   2.219  0.00  0.00    -0.202 F 
ATOM      9  C10 <0> d          -9.608   5.678  -0.344  0.00  0.00     0.199 A 
ATOM     10  F2  <0> d          -9.795   5.665   2.019  0.00  0.00    -0.199 F 
ATOM     11  C9  <0> d          -8.925   5.316  -1.496  0.00  0.00     0.197 A 
ATOM     12  F3  <0> d         -10.751   6.391  -0.436  0.00  0.00    -0.199 F 
ATOM     13  C8  <0> d          -7.751   4.590  -1.408  0.00  0.00     0.176 A 
ATOM     14  F4  <0> d          -9.404   5.678  -2.705  0.00  0.00    -0.199 F 
ATOM     15  F5  <0> d          -7.083   4.244  -2.530  0.00  0.00    -0.202 F 
ENDBRANCH   2   5
BRANCH   1  16
ATOM     16  C3  <0> d          -3.641   3.337   0.035  0.00  0.00     0.130 A 
ATOM     17  C2  <0> d          -2.421   4.003   0.032  0.00  0.00     0.053 A 
ATOM     18  C1  <0> d          -1.250   3.265   0.020  0.00  0.00     0.041 A 
ATOM     19  C5  <0> d          -1.341   1.880   0.013  0.00  0.00     0.120 A 
ATOM     20  C4  <0> d          -2.587   1.284   0.012  0.00  0.00     0.155 A 
ATOM     21  N1  <0> d          -3.686   2.014   0.028  0.00  0.00    -0.241 NA
BRANCH  19  22
ATOM     22  N2  <0> d          -0.116   1.050   0.001  0.00  0.00    -0.114 N 
ATOM     23  O1  <0> d           0.980   1.582  -0.003  0.00  0.00    -0.532 OA
ATOM     24  O2  <0> d          -0.203  -0.165   0.000  0.00  0.00    -0.532 OA
ENDBRANCH  19  22
ENDBRANCH   1  16
TORSDOF 3
