REMARK  5 active torsions:
REMARK  status: ('A' for Active; 'I' for Inactive)
REMARK    1  A    between atoms: O1_2  and  C2_3 
REMARK    2  A    between atoms: C2_3  and  C3_5 
REMARK    3  A    between atoms: C4_6  and  C15_24 
REMARK    4  A    between atoms: C7_12  and  S1_13 
REMARK    5  A    between atoms: S1_13  and  C8_14 
ROOT
ATOM      1  C3  <0> d          -3.010   0.818   1.462  0.00  0.00     0.163 C 
ATOM      2  C4  <0> d          -1.600   0.213   1.492  0.00  0.00     0.139 C 
ATOM      3  N1  <0> d          -0.720   0.982   0.615  0.00  0.00    -0.333 N 
ATOM      4  C5  <0> d          -1.161   1.594  -0.492  0.00  0.00     0.321 C 
ATOM      5  O3  <0> d          -0.357   2.155  -1.212  0.00  0.00    -0.247 OA
ATOM      6  N2  <0> d          -2.462   1.612  -0.837  0.00  0.00    -0.311 N 
ATOM      7  C6  <0> d          -3.401   0.993   0.008  0.00  0.00     0.036 C 
ATOM      8  C7  <0> d          -4.577   0.582  -0.447  0.00  0.00     0.079 C 
ATOM      9  H7  <0> d           0.220   1.052   0.843  0.00  0.00     0.165 HD
ATOM     10  H8  <0> d          -2.748   2.045  -1.657  0.00  0.00     0.170 HD
ENDROOT
BRANCH   1  11
ATOM     11  C2  <0> d          -3.007   2.155   2.156  0.00  0.00     0.270 C 
ATOM     12  O2  <0> d          -2.733   3.156   1.538  0.00  0.00    -0.264 OA
BRANCH  11  13
ATOM     13  O1  <0> d          -3.310   2.235   3.462  0.00  0.00    -0.326 OA
ATOM     14  C1  <0> d          -3.288   3.555   4.064  0.00  0.00     0.213 C 
ENDBRANCH  11  13
ENDBRANCH   1  11
BRANCH   8  15
ATOM     15  S1  <0> d          -5.724  -0.188   0.647  0.00  0.00    -0.062 SA
BRANCH  15  16
ATOM     16  C8  <0> d          -7.047  -0.506  -0.473  0.00  0.00     0.171 A 
ATOM     17  N4  <0> d          -7.048  -0.194  -1.746  0.00  0.00    -0.222 NA
ATOM     18  C14 <0> d          -8.221  -0.584  -2.310  0.00  0.00     0.086 A 
ATOM     19  C9  <0> d          -8.995  -1.170  -1.294  0.00  0.00     0.063 A 
ATOM     20  C13 <0> d          -8.736  -0.501  -3.606  0.00  0.00     0.034 A 
ATOM     21  N3  <0> d          -8.229  -1.108  -0.142  0.00  0.00    -0.333 N 
ATOM     22  C10 <0> d         -10.259  -1.660  -1.583  0.00  0.00     0.032 A 
ATOM     23  H3  <0> d          -8.492  -1.442   0.764  0.00  0.00     0.168 HD
ATOM     24  C11 <0> d         -10.754  -1.571  -2.868  0.00  0.00     0.002 A 
ATOM     25  C12 <0> d          -9.994  -0.993  -3.875  0.00  0.00     0.002 A 
ENDBRANCH  15  16
ENDBRANCH   8  15
BRANCH   2  26
ATOM     26  C15 <0> d          -1.066   0.254   2.901  0.00  0.00    -0.034 A 
ATOM     27  C20 <0> d          -1.233  -0.836   3.735  0.00  0.00     0.012 A 
ATOM     28  C19 <0> d          -0.748  -0.797   5.029  0.00  0.00     0.043 A 
ATOM     29  C18 <0> d          -0.091   0.332   5.488  0.00  0.00     0.116 A 
ATOM     30  C17 <0> d           0.080   1.421   4.650  0.00  0.00     0.043 A 
ATOM     31  F1  <0> d           0.384   0.371   6.752  0.00  0.00    -0.206 F 
ATOM     32  C16 <0> d          -0.406   1.380   3.357  0.00  0.00     0.012 A 
ENDBRANCH   2  26
TORSDOF 5
