REMARK  5 active torsions:
REMARK  status: ('A' for Active; 'I' for Inactive)
REMARK    1  A    between atoms: C4_4  and  C7_7 
REMARK       I    between atoms: C7_7  and  N1_9 
REMARK    2  A    between atoms: N1_9  and  N2_10 
REMARK    3  A    between atoms: N2_10  and  C8_11 
REMARK    4  A    between atoms: N3_14  and  S1_15 
REMARK    5  A    between atoms: S1_15  and  C11_18 
ROOT
ATOM      1  C8  <0> d          -3.587   1.839   0.005  0.00  0.00     0.101 A 
ATOM      2  C9  <0> d          -3.616   3.189   0.023  0.00  0.00     0.068 A 
ATOM      3  C10 <0> d          -4.906   3.889   0.035  0.00  0.00     0.079 A 
ATOM      4  N3  <0> d          -4.936   5.196   0.054  0.00  0.00    -0.160 NA
ATOM      5  C17 <0> d          -6.174   3.123   0.024  0.00  0.00    -0.015 A 
ATOM      6  C18 <0> d          -6.144   1.784   0.006  0.00  0.00     0.007 A 
ATOM      7  C19 <0> d          -4.851   1.080  -0.009  0.00  0.00     0.207 A 
ATOM      8  O4  <0> d          -4.825  -0.136  -0.030  0.00  0.00    -0.285 OA
ATOM      9  C20 <0> d          -7.405   0.966  -0.005  0.00  0.00     0.070 C 
ATOM     10  C21 <0> d          -8.571   1.744   0.519  0.00  0.00    -0.026 C 
ATOM     11  C22 <0> d          -8.600   3.041   0.536  0.00  0.00    -0.026 C 
ATOM     12  C23 <0> d          -7.471   3.885   0.034  0.00  0.00     0.068 C 
ENDROOT
BRANCH   1  13
ATOM     13  N2  <0> d          -2.371   1.168  -0.007  0.00  0.00    -0.294 N 
ATOM     14  H7  <0> d          -2.349   0.068  -0.022  0.00  0.00     0.187 HD
BRANCH  13  15
ATOM     15  N1  <0> d          -1.171   1.891   0.001  0.00  0.00    -0.265 N 
ATOM     16  C7  <0> d           0.009   1.240  -0.010  0.00  0.00     0.270 C 
ATOM     17  O1  <0> d           0.032   0.025  -0.027  0.00  0.00    -0.266 OA
ATOM     18  H6  <0> d          -1.193   2.991   0.016  0.00  0.00     0.190 HD
BRANCH  16  19
ATOM     19  C4  <0> d           1.275   2.004  -0.008  0.00  0.00     0.033 A 
ATOM     20  C3  <0> d           2.498   1.333  -0.026  0.00  0.00     0.017 A 
ATOM     21  C2  <0> d           3.676   2.052  -0.024  0.00  0.00     0.001 A 
ATOM     22  C1  <0> d           3.645   3.435  -0.005  0.00  0.00     0.000 A 
ATOM     23  C6  <0> d           2.436   4.107   0.012  0.00  0.00     0.001 A 
ATOM     24  C5  <0> d           1.251   3.400   0.005  0.00  0.00     0.017 A 
ENDBRANCH  16  19
ENDBRANCH  13  15
ENDBRANCH   1  13
BRANCH   4  25
ATOM     25  S1  <0> d          -6.128   6.008  -0.759  0.00  0.00     0.283 S 
ATOM     26  O2  <0> d          -6.480   5.202  -1.876  0.00  0.00    -0.198 OA
ATOM     27  O3  <0> d          -7.079   6.416   0.215  0.00  0.00    -0.198 OA
BRANCH  25  28
ATOM     28  C11 <0> d          -5.407   7.479  -1.407  0.00  0.00     0.081 A 
ATOM     29  C16 <0> d          -4.837   7.473  -2.666  0.00  0.00     0.025 A 
ATOM     30  C15 <0> d          -4.271   8.627  -3.175  0.00  0.00     0.002 A 
ATOM     31  C14 <0> d          -4.276   9.788  -2.424  0.00  0.00     0.000 A 
ATOM     32  C13 <0> d          -4.847   9.794  -1.165  0.00  0.00     0.002 A 
ATOM     33  C12 <0> d          -5.417   8.641  -0.659  0.00  0.00     0.025 A 
ENDBRANCH  25  28
ENDBRANCH   4  25
TORSDOF 5
