REMARK  5 active torsions:
REMARK  status: ('A' for Active; 'I' for Inactive)
REMARK    1  A    between atoms: S1_2  and  N1_5 
REMARK    2  A    between atoms: C8_12  and  N2_14 
REMARK    3  A    between atoms: N2_14  and  S2_15 
REMARK    4  A    between atoms: S2_15  and  C10_18 
REMARK    5  A    between atoms: C13_21  and  N3_24 
ROOT
ATOM      1  N2  <0> d           8.717   0.711   0.715  0.00  0.00    -0.281 N 
ATOM      2  H11 <0> d           9.287   1.490   1.242  0.00  0.00     0.179 HD
ENDROOT
BRANCH   1   3
ATOM      3  C8  <0> d           8.504  -0.532   1.322  0.00  0.00     0.043 A 
ATOM      4  C7  <0> d           8.682  -1.703   0.597  0.00  0.00     0.032 A 
ATOM      5  C6  <0> d           8.472  -2.927   1.195  0.00  0.00     0.033 A 
ATOM      6  C5  <0> d           8.079  -3.001   2.532  0.00  0.00     0.051 A 
ATOM      7  N1  <0> d           7.818  -4.130   3.317  0.00  0.00    -0.275 N 
ATOM      8  C4  <0> d           7.903  -1.829   3.250  0.00  0.00    -0.027 A 
ATOM      9  C2  <0> d           7.435  -3.722   4.671  0.00  0.00     0.146 A 
ATOM     10  C3  <0> d           7.482  -2.185   4.659  0.00  0.00     0.062 A 
ATOM     11  C9  <0> d           8.119  -0.601   2.654  0.00  0.00     0.039 A 
BRANCH   7  12
ATOM     12  S1  <0> d           7.927  -5.697   2.792  0.00  0.00     0.229 S 
ATOM     13  C1  <0> d           9.639  -6.186   3.136  0.00  0.00     0.186 C 
ATOM     14  O1  <0> d           7.034  -6.421   3.627  0.00  0.00    -0.206 OA
ATOM     15  O2  <0> d           7.710  -5.625   1.390  0.00  0.00    -0.206 OA
ENDBRANCH   7  12
ENDBRANCH   1   3
BRANCH   1  16
ATOM     16  S2  <0> d           8.110   1.009  -0.797  0.00  0.00     0.263 S 
ATOM     17  O3  <0> d           8.482  -0.096  -1.609  0.00  0.00    -0.200 OA
ATOM     18  O4  <0> d           8.466   2.346  -1.121  0.00  0.00    -0.200 OA
BRANCH  16  19
ATOM     19  C10 <0> d           6.353   0.972  -0.669  0.00  0.00     0.080 A 
ATOM     20  C15 <0> d           5.673  -0.218  -0.854  0.00  0.00     0.027 A 
ATOM     21  C14 <0> d           4.296  -0.252  -0.749  0.00  0.00     0.031 A 
ATOM     22  C13 <0> d           3.594   0.913  -0.469  0.00  0.00     0.037 A 
ATOM     23  C12 <0> d           4.280   2.107  -0.284  0.00  0.00     0.031 A 
ATOM     24  C11 <0> d           5.657   2.132  -0.385  0.00  0.00     0.027 A 
BRANCH  22  25
ATOM     25  N3  <0> d           2.199   0.884  -0.367  0.00  0.00    -0.318 N 
ATOM     26  C19 <0> d           1.441  -0.194  -0.637  0.00  0.00     0.224 C 
ATOM     27  C18 <0> d          -0.021   0.134  -0.431  0.00  0.00     0.105 C 
ATOM     28  O5  <0> d           1.869  -1.272  -0.992  0.00  0.00    -0.273 OA
ATOM     29  C17 <0> d          -0.063   1.679  -0.402  0.00  0.00     0.029 C 
ATOM     30  C16 <0> d           1.374   2.025   0.047  0.00  0.00     0.133 C 
ENDBRANCH  22  25
ENDBRANCH  16  19
ENDBRANCH   1  16
TORSDOF 5
