REMARK  5 active torsions:
REMARK  status: ('A' for Active; 'I' for Inactive)
REMARK    1  A    between atoms: N1_2  and  C2_3 
REMARK    2  A    between atoms: N1_2  and  C14_19 
REMARK    3  A    between atoms: C2_3  and  C3_4 
REMARK    4  A    between atoms: C5_9  and  C6_10 
REMARK    5  A    between atoms: C14_19  and  C15_20 
ROOT
ATOM      1  C2  <0> d           0.690  -0.478  -1.207  0.00  0.00     0.277 C 
ENDROOT
BRANCH   1   2
ATOM      2  N1  <0> d           0.002  -0.004   0.002  0.00  0.00    -0.064 N 
ATOM      3  C1  <0> d          -0.018   1.465   0.010  0.00  0.00     0.270 C 
ATOM      4  H19 <0> d           0.490  -0.338   0.820  0.00  0.00     0.280 HD
BRANCH   2   5
ATOM      5  C14 <0> d          -1.376  -0.512   0.012  0.00  0.00     0.312 C 
BRANCH   5   6
ATOM      6  C15 <0> d          -2.043  -0.130   1.309  0.00  0.00     0.131 A 
ATOM      7  N5  <0> d          -1.958  -0.804   2.418  0.00  0.00    -0.232 NA
ATOM      8  C21 <0> d          -2.673  -0.180   3.388  0.00  0.00     0.088 A 
ATOM      9  C16 <0> d          -3.244   0.964   2.805  0.00  0.00     0.062 A 
ATOM     10  C20 <0> d          -2.917  -0.459   4.736  0.00  0.00     0.076 A 
ATOM     11  N4  <0> d          -2.826   0.967   1.488  0.00  0.00    -0.341 N 
ATOM     12  C17 <0> d          -4.043   1.805   3.566  0.00  0.00     0.035 A 
ATOM     13  H2  <0> d          -3.050   1.630   0.815  0.00  0.00     0.167 HD
ATOM     14  C18 <0> d          -4.275   1.517   4.893  0.00  0.00     0.044 A 
ATOM     15  C19 <0> d          -3.713   0.387   5.477  0.00  0.00     0.118 A 
ATOM     16  F1  <0> d          -3.948   0.118   6.779  0.00  0.00    -0.206 F 
ENDBRANCH   5   6
ENDBRANCH   2   5
ENDBRANCH   1   2
BRANCH   1  17
ATOM     17  C3  <0> d           2.137  -0.060  -1.158  0.00  0.00     0.018 A 
ATOM     18  C5  <0> d           3.163  -0.701  -0.433  0.00  0.00     0.120 A 
ATOM     19  N3  <0> d           4.283  -0.041  -0.648  0.00  0.00    -0.172 NA
ATOM     20  N2  <0> d           3.998   1.034  -1.500  0.00  0.00    -0.288 N 
ATOM     21  C4  <0> d           2.680   0.999  -1.796  0.00  0.00     0.120 A 
ATOM     22  H1  <0> d           4.636   1.690  -1.821  0.00  0.00     0.188 HD
BRANCH  18  23
ATOM     23  C6  <0> d           3.009  -1.903   0.415  0.00  0.00     0.108 A 
ATOM     24  O1  <0> d           1.925  -2.191   1.161  0.00  0.00    -0.307 OA
ATOM     25  C13 <0> d           2.089  -3.357   1.817  0.00  0.00     0.086 A 
ATOM     26  C8  <0> d           3.361  -3.855   1.485  0.00  0.00     0.001 A 
ATOM     27  C12 <0> d           1.286  -4.080   2.690  0.00  0.00     0.038 A 
ATOM     28  C7  <0> d           3.940  -2.875   0.562  0.00  0.00     0.054 A 
ATOM     29  C9  <0> d           3.806  -5.061   2.029  0.00  0.00     0.014 A 
ATOM     30  C10 <0> d           2.999  -5.756   2.886  0.00  0.00     0.001 A 
ATOM     31  C11 <0> d           1.742  -5.270   3.217  0.00  0.00     0.003 A 
ENDBRANCH  18  23
ENDBRANCH   1  17
TORSDOF 5
