REMARK  5 active torsions:
REMARK  status: ('A' for Active; 'I' for Inactive)
REMARK    1  A    between atoms: C3_3  and  N2_11 
REMARK    2  A    between atoms: C6_6  and  C7_7 
REMARK    3  A    between atoms: C7_7  and  C8_8 
REMARK       I    between atoms: C8_8  and  N1_10 
REMARK       I    between atoms: N2_11  and  C9_12 
REMARK    4  A    between atoms: C9_12  and  C10_14 
REMARK    5  A    between atoms: C15_19  and  O3_20 
ROOT
ATOM      1  N2  <0> d           3.583   2.123  -0.021  0.00  0.00    -0.323 N 
ATOM      2  C9  <0> d           4.657   1.642   0.635  0.00  0.00     0.259 C 
ATOM      3  O2  <0> d           4.609   0.545   1.158  0.00  0.00    -0.267 OA
ATOM      4  H9  <0> d           3.643   2.967  -0.495  0.00  0.00     0.169 HD
ENDROOT
BRANCH   1   5
ATOM      5  C3  <0> d           2.383   1.405  -0.019  0.00  0.00     0.035 A 
ATOM      6  C2  <0> d           1.169   2.079  -0.002  0.00  0.00     0.030 A 
ATOM      7  C1  <0> d          -0.014   1.367  -0.000  0.00  0.00     0.010 A 
ATOM      8  C6  <0> d           0.009  -0.015  -0.017  0.00  0.00    -0.049 A 
ATOM      9  C5  <0> d           1.216  -0.690  -0.035  0.00  0.00     0.010 A 
ATOM     10  C4  <0> d           2.403   0.017  -0.036  0.00  0.00     0.030 A 
BRANCH   8  11
ATOM     11  C7  <0> d          -1.285  -0.789  -0.015  0.00  0.00     0.141 C 
BRANCH  11  12
ATOM     12  C8  <0> d          -1.728  -1.030  -1.435  0.00  0.00     0.219 C 
ATOM     13  O1  <0> d          -1.059  -0.615  -2.358  0.00  0.00    -0.273 OA
ATOM     14  N1  <0> d          -2.867  -1.707  -1.680  0.00  0.00    -0.370 N 
ATOM     15  H7  <0> d          -3.402  -2.039  -0.942  0.00  0.00     0.159 HD
ATOM     16  H8  <0> d          -3.152  -1.862  -2.594  0.00  0.00     0.159 HD
ENDBRANCH  11  12
ENDBRANCH   8  11
ENDBRANCH   1   5
BRANCH   2  17
ATOM     17  C10 <0> d           5.891   2.445   0.720  0.00  0.00     0.065 A 
ATOM     18  C15 <0> d           7.010   1.948   1.402  0.00  0.00     0.082 A 
ATOM     19  C14 <0> d           8.167   2.710   1.471  0.00  0.00     0.056 A 
ATOM     20  C13 <0> d           8.211   3.958   0.879  0.00  0.00     0.013 A 
ATOM     21  C12 <0> d           7.104   4.455   0.208  0.00  0.00     0.020 A 
ATOM     22 Br1  <0> d           9.790   4.993   0.983  0.00  0.00    -0.051 Br
ATOM     23  C11 <0> d           5.949   3.709   0.126  0.00  0.00     0.021 A 
BRANCH  18  24
ATOM     24  O3  <0> d           6.964   0.726   1.988  0.00  0.00    -0.360 OA
ATOM     25  H13 <0> d           7.242   0.002   1.410  0.00  0.00     0.217 HD
ENDBRANCH  18  24
ENDBRANCH   2  17
TORSDOF 5
