REMARK  7 active torsions:
REMARK  status: ('A' for Active; 'I' for Inactive)
REMARK    1  A    between atoms: O1_2  and  C2_3 
REMARK    2  A    between atoms: C4_5  and  C8_10 
REMARK    3  A    between atoms: C7_8  and  O2_9 
REMARK    4  A    between atoms: N1_11  and  N2_12 
REMARK    5  A    between atoms: N2_12  and  C9_13 
REMARK    6  A    between atoms: C11_17  and  C12_19 
REMARK    7  A    between atoms: C12_19  and  C13_20 
ROOT
ATOM      1  N2  <0> d           3.543   0.538  -6.244  0.00  0.00    -0.256 N 
ATOM      2  H10 <0> d           3.510   1.506  -6.197  0.00  0.00     0.191 HD
ENDROOT
BRANCH   1   3
ATOM      3  N1  <0> d           2.970  -0.234  -5.225  0.00  0.00    -0.184 NA
ATOM      4  C8  <0> d           2.394   0.347  -4.217  0.00  0.00     0.150 C 
BRANCH   4   5
ATOM      5  C4  <0> d           1.791  -0.465  -3.145  0.00  0.00    -0.014 A 
ATOM      6  C3  <0> d           1.171   0.159  -2.059  0.00  0.00     0.052 A 
ATOM      7  C2  <0> d           0.606  -0.608  -1.056  0.00  0.00     0.102 A 
ATOM      8  C7  <0> d           0.661  -1.998  -1.127  0.00  0.00     0.099 A 
ATOM      9  C6  <0> d           1.271  -2.617  -2.208  0.00  0.00     0.040 A 
ATOM     10  C5  <0> d           1.837  -1.860  -3.212  0.00  0.00     0.016 A 
BRANCH   7  11
ATOM     11  O1  <0> d           0.002  -0.004   0.002  0.00  0.00    -0.353 OA
ATOM     12  C1  <0> d          -0.017   1.425   0.010  0.00  0.00     0.210 C 
ENDBRANCH   7  11
BRANCH   8  13
ATOM     13  O2  <0> d           0.110  -2.749  -0.138  0.00  0.00    -0.358 OA
ATOM     14  H8  <0> d          -0.819  -2.975  -0.286  0.00  0.00     0.217 HD
ENDBRANCH   8  13
ENDBRANCH   4   5
ENDBRANCH   1   3
BRANCH   1  15
ATOM     15  C9  <0> d           4.148  -0.073  -7.304  0.00  0.00     0.186 A 
ATOM     16  S1  <0> d           4.943   0.690  -8.713  0.00  0.00    -0.076 SA
ATOM     17  C11 <0> d           5.438  -0.865  -9.567  0.00  0.00     0.154 A 
ATOM     18  C10 <0> d           4.876  -1.880  -8.580  0.00  0.00     0.260 A 
ATOM     19  N3  <0> d           4.281  -1.373  -7.535  0.00  0.00    -0.187 NA
ATOM     20  O3  <0> d           4.975  -3.079  -8.753  0.00  0.00    -0.270 OA
BRANCH  17  21
ATOM     21  C12 <0> d           4.766  -0.985 -10.936  0.00  0.00     0.063 C 
BRANCH  21  22
ATOM     22  C13 <0> d           5.436  -0.049 -11.909  0.00  0.00    -0.057 A 
ATOM     23  C18 <0> d           6.513  -0.486 -12.658  0.00  0.00     0.007 A 
ATOM     24  C17 <0> d           7.125   0.370 -13.553  0.00  0.00     0.001 A 
ATOM     25  C16 <0> d           6.667   1.667 -13.694  0.00  0.00     0.000 A 
ATOM     26  C15 <0> d           5.593   2.105 -12.941  0.00  0.00     0.001 A 
ATOM     27  C14 <0> d           4.978   1.247 -12.049  0.00  0.00     0.007 A 
ENDBRANCH  21  22
ENDBRANCH  17  21
ENDBRANCH   1  15
TORSDOF 7
