REMARK  3 active torsions:
REMARK  status: ('A' for Active; 'I' for Inactive)
REMARK       I    between atoms: N1_2  and  C2_3 
REMARK    1  A    between atoms: C2_3  and  C3_5 
REMARK       I    between atoms: N2_7  and  C11_15 
REMARK    2  A    between atoms: C11_15  and  C12_17 
REMARK    3  A    between atoms: C12_17  and  N3_18 
ROOT
ATOM      1  N3  <0> d           6.169   1.953   0.618  0.00  0.00    -0.259 N 
ATOM      2  C13 <0> d           6.803   2.045   1.812  0.00  0.00     0.261 A 
ATOM      3  O4  <0> d           6.296   1.807   2.887  0.00  0.00    -0.270 OA
ATOM      4  C14 <0> d           8.200   2.495   1.498  0.00  0.00     0.144 A 
ATOM      5  C15 <0> d           8.578   3.791   2.206  0.00  0.00     0.046 C 
ATOM      6  C16 <0> d           8.223   3.772   3.678  0.00  0.00     0.004 C 
ATOM      7  C17 <0> d           9.095   2.858   4.517  0.00  0.00     0.005 C 
ATOM      8  C18 <0> d           8.752   1.392   4.259  0.00  0.00     0.039 C 
ATOM      9  C19 <0> d           9.480   0.922   3.017  0.00  0.00    -0.049 A 
ATOM     10  C20 <0> d           9.225   1.420   1.772  0.00  0.00    -0.014 A 
ATOM     11  C21 <0> d           9.932   0.929   0.678  0.00  0.00     0.011 A 
ATOM     12  C22 <0> d          10.890  -0.051   0.847  0.00  0.00     0.001 A 
ATOM     13  C23 <0> d          11.150  -0.549   2.109  0.00  0.00     0.001 A 
ATOM     14  C24 <0> d          10.446  -0.064   3.192  0.00  0.00     0.007 A 
ATOM     15  N4  <0> d           8.167   2.749   0.042  0.00  0.00    -0.320 N 
ATOM     16  C25 <0> d           6.957   2.347  -0.387  0.00  0.00     0.326 A 
ATOM     17  O5  <0> d           6.618   2.344  -1.555  0.00  0.00    -0.247 OA
ATOM     18  H26 <0> d           8.884   3.129  -0.486  0.00  0.00     0.165 HD
ENDROOT
BRANCH   1  19
ATOM     19  C12 <0> d           4.790   1.487   0.457  0.00  0.00     0.240 C 
BRANCH  19  20
ATOM     20  C11 <0> d           4.786  -0.006   0.246  0.00  0.00     0.243 C 
ATOM     21  N2  <0> d           3.631  -0.644  -0.026  0.00  0.00    -0.311 N 
ATOM     22  C4  <0> d           2.346   0.075  -0.033  0.00  0.00     0.174 C 
ATOM     23  C5  <0> d           3.611  -2.020  -0.313  0.00  0.00     0.070 A 
ATOM     24  C3  <0> d           1.541  -0.425  -1.242  0.00  0.00     0.239 C 
ATOM     25  O2  <0> d           1.369  -1.840  -1.128  0.00  0.00    -0.333 OA
ATOM     26  C10 <0> d           2.471  -2.593  -0.869  0.00  0.00     0.097 A 
ATOM     27  C9  <0> d           2.458  -3.949  -1.158  0.00  0.00     0.039 A 
ATOM     28  C8  <0> d           3.571  -4.724  -0.891  0.00  0.00     0.003 A 
ATOM     29  C7  <0> d           4.701  -4.154  -0.335  0.00  0.00     0.002 A 
ATOM     30  C6  <0> d           4.724  -2.802  -0.046  0.00  0.00     0.033 A 
ATOM     31  O3  <0> d           5.822  -0.632   0.323  0.00  0.00    -0.271 OA
BRANCH  24  32
ATOM     32  C2  <0> d           0.193   0.247  -1.264  0.00  0.00     0.248 C 
ATOM     33  N1  <0> d           0.107   1.579  -1.454  0.00  0.00    -0.363 N 
ATOM     34  C1  <0> d          -1.204   2.232  -1.476  0.00  0.00     0.149 C 
ATOM     35  H5  <0> d           0.913   2.104  -1.577  0.00  0.00     0.162 HD
ATOM     36  O1  <0> d          -0.815  -0.410  -1.111  0.00  0.00    -0.271 OA
ENDBRANCH  24  32
ENDBRANCH  19  20
ENDBRANCH   1  19
TORSDOF 3
