REMARK  5 active torsions:
REMARK  status: ('A' for Active; 'I' for Inactive)
REMARK    1  A    between atoms: C4_4  and  S2_16 
REMARK    2  A    between atoms: C5_5  and  N1_7 
REMARK    3  A    between atoms: N1_7  and  C7_8 
REMARK    4  A    between atoms: C7_8  and  C8_9 
REMARK    5  A    between atoms: S2_16  and  N2_19 
ROOT
ATOM      1  C1  <0> d          -0.017   1.377   0.010  0.00  0.00     0.002 A 
ATOM      2  C2  <0> d           1.171   2.086   0.002  0.00  0.00     0.002 A 
ATOM      3  C3  <0> d           2.380   1.416  -0.013  0.00  0.00     0.027 A 
ATOM      4  C4  <0> d           2.406   0.035  -0.021  0.00  0.00     0.105 A 
ATOM      5  C5  <0> d           1.215  -0.681  -0.013  0.00  0.00     0.051 A 
ATOM      6  C6  <0> d           0.002  -0.004   0.002  0.00  0.00     0.031 A 
ENDROOT
BRANCH   5   7
ATOM      7  N1  <0> d           1.238  -2.077  -0.021  0.00  0.00    -0.388 N 
ATOM      8  H6  <0> d           2.086  -2.549  -0.032  0.00  0.00     0.159 HD
BRANCH   7   9
ATOM      9  C7  <0> d          -0.019  -2.830  -0.012  0.00  0.00     0.125 C 
BRANCH   9  10
ATOM     10  C8  <0> d           0.285  -4.330  -0.023  0.00  0.00     0.018 C 
ATOM     11  C11 <0> d          -1.037  -5.121  -0.165  0.00  0.00     0.146 C 
ATOM     12  S1  <0> d          -0.689  -6.662   0.775  0.00  0.00     0.144 S 
ATOM     13  C10 <0> d           1.003  -6.270   1.389  0.00  0.00     0.141 C 
ATOM     14  O1  <0> d          -1.577  -6.739   1.882  0.00  0.00    -0.228 OA
ATOM     15  O2  <0> d          -0.610  -7.752  -0.134  0.00  0.00    -0.228 OA
ATOM     16  C9  <0> d           0.989  -4.718   1.288  0.00  0.00     0.022 C 
ENDBRANCH   9  10
ENDBRANCH   7   9
ENDBRANCH   5   7
BRANCH   4  17
ATOM     17  S2  <0> d           3.947  -0.818  -0.042  0.00  0.00     0.259 S 
ATOM     18  O3  <0> d           3.858  -1.793  -1.071  0.00  0.00    -0.201 OA
ATOM     19  O4  <0> d           4.962   0.176  -0.020  0.00  0.00    -0.201 OA
BRANCH  17  20
ATOM     20  N2  <0> d           4.067  -1.648   1.387  0.00  0.00    -0.324 N 
ATOM     21  H15 <0> d           4.566  -2.479   1.425  0.00  0.00     0.169 HD
ATOM     22  H16 <0> d           3.638  -1.303   2.185  0.00  0.00     0.169 HD
ENDBRANCH  17  20
ENDBRANCH   4  17
TORSDOF 5
