REMARK  7 active torsions:
REMARK  status: ('A' for Active; 'I' for Inactive)
REMARK    1  A    between atoms: C3_4  and  N5_19 
REMARK    2  A    between atoms: N3_8  and  C7_11 
REMARK    3  A    between atoms: C10_14  and  O1_17 
REMARK    4  A    between atoms: N5_19  and  C14_20 
REMARK    5  A    between atoms: C14_20  and  C15_21 
REMARK    6  A    between atoms: C15_21  and  N6_22 
REMARK       I    between atoms: N6_22  and  C16_23 
REMARK       I    between atoms: C16_23  and  N7_25 
REMARK    7  A    between atoms: N7_25  and  C17_26 
ROOT
ATOM      1  C1  <0> d          -0.018   1.503   0.010  0.00  0.00     0.093 C 
ATOM      2  C2  <0> d           0.002  -0.004   0.002  0.00  0.00     0.127 A 
ATOM      3  N1  <0> d           0.005  -0.632  -1.161  0.00  0.00    -0.216 NA
ATOM      4  C3  <0> d           0.023  -1.959  -1.226  0.00  0.00     0.141 A 
ATOM      5  C4  <0> d           0.038  -2.688  -0.022  0.00  0.00     0.077 A 
ATOM      6  C5  <0> d           0.059  -4.061   0.308  0.00  0.00     0.158 A 
ATOM      7  N2  <0> d           0.067  -4.175   1.606  0.00  0.00    -0.177 NA
ATOM      8  N3  <0> d           0.052  -2.902   2.191  0.00  0.00    -0.215 N 
ATOM      9  C6  <0> d           0.035  -1.972   1.192  0.00  0.00     0.168 A 
ATOM     10  N4  <0> d           0.022  -0.641   1.152  0.00  0.00    -0.213 NA
ENDROOT
BRANCH   4  11
ATOM     11  N5  <0> d           0.025  -2.607  -2.446  0.00  0.00    -0.372 N 
ATOM     12  H12 <0> d           0.038  -3.576  -2.480  0.00  0.00     0.161 HD
BRANCH  11  13
ATOM     13  C14 <0> d           0.008  -1.830  -3.688  0.00  0.00     0.141 C 
BRANCH  13  14
ATOM     14  C15 <0> d           0.015  -2.783  -4.885  0.00  0.00     0.144 C 
BRANCH  14  15
ATOM     15  N6  <0> d          -0.002  -2.006  -6.128  0.00  0.00    -0.342 N 
ATOM     16  C16 <0> d           0.000  -2.639  -7.318  0.00  0.00     0.316 C 
ATOM     17  O2  <0> d           0.017  -3.854  -7.360  0.00  0.00    -0.247 OA
ATOM     18  N7  <0> d          -0.015  -1.925  -8.460  0.00  0.00    -0.339 N 
ATOM     19  H18 <0> d          -0.029  -0.955  -8.426  0.00  0.00     0.164 HD
ATOM     20  H17 <0> d          -0.015  -1.037  -6.093  0.00  0.00     0.164 HD
BRANCH  18  21
ATOM     21  C17 <0> d          -0.013  -2.612  -9.754  0.00  0.00     0.078 C 
ATOM     22  C18 <0> d          -0.640  -1.705 -10.815  0.00  0.00     0.032 C 
ATOM     23  C19 <0> d           1.427  -2.943 -10.153  0.00  0.00     0.032 C 
ENDBRANCH  18  21
ENDBRANCH  14  15
ENDBRANCH  13  14
ENDBRANCH  11  13
ENDBRANCH   4  11
BRANCH   8  24
ATOM     24  C7  <0> d           0.054  -2.631   3.567  0.00  0.00     0.060 A 
ATOM     25  C12 <0> d          -0.620  -3.472   4.442  0.00  0.00     0.034 A 
ATOM     26  C11 <0> d          -0.614  -3.206   5.797  0.00  0.00     0.039 A 
ATOM     27  C10 <0> d           0.058  -2.094   6.283  0.00  0.00     0.068 A 
ATOM     28  C9  <0> d           0.727  -1.250   5.408  0.00  0.00     0.039 A 
ATOM     29  C8  <0> d           0.726  -1.517   4.054  0.00  0.00     0.034 A 
BRANCH  27  30
ATOM     30  O1  <0> d           0.060  -1.830   7.617  0.00  0.00    -0.356 OA
ATOM     31  C13 <0> d          -0.650  -2.740   8.459  0.00  0.00     0.210 C 
ENDBRANCH  27  30
ENDBRANCH   8  24
TORSDOF 7
