REMARK  4 active torsions:
REMARK  status: ('A' for Active; 'I' for Inactive)
REMARK       I    between atoms: N1_2  and  C3_4 
REMARK    1  A    between atoms: C3_4  and  C4_6 
REMARK    2  A    between atoms: C8_11  and  S1_12 
REMARK    3  A    between atoms: S1_12  and  N3_15 
REMARK    4  A    between atoms: C9_16  and  C10_18 
ROOT
ATOM      1  S1  <0> d          -3.378  -2.537   0.216  0.00  0.00     0.302 S 
ATOM      2  O2  <0> d          -3.444  -1.677  -0.913  0.00  0.00    -0.197 OA
ATOM      3  O3  <0> d          -4.179  -3.705   0.332  0.00  0.00    -0.197 OA
ENDROOT
BRANCH   1   4
ATOM      4  C8  <0> d          -1.702  -3.059   0.356  0.00  0.00     0.167 A 
ATOM      5  C4  <0> d          -0.676  -2.114   0.302  0.00  0.00     0.072 A 
ATOM      6  C5  <0> d           0.650  -2.548   0.421  0.00  0.00     0.021 A 
ATOM      7  C6  <0> d           0.885  -3.902   0.581  0.00  0.00     0.018 A 
ATOM      8  C7  <0> d          -0.187  -4.776   0.618  0.00  0.00     0.089 A 
ATOM      9  N2  <0> d          -1.427  -4.338   0.504  0.00  0.00    -0.354 N 
ATOM     10  H17 <0> d          -2.156  -4.977   0.534  0.00  0.00     0.166 HD
BRANCH   5  11
ATOM     11  C3  <0> d          -0.985  -0.679   0.130  0.00  0.00     0.256 C 
ATOM     12  N1  <0> d          -0.321   0.048  -0.790  0.00  0.00    -0.357 N 
ATOM     13  C1  <0> d          -0.541   1.493  -0.881  0.00  0.00     0.152 C 
ATOM     14  C2  <0> d           0.621  -0.609  -1.701  0.00  0.00     0.152 C 
ATOM     15  O1  <0> d          -1.837  -0.154   0.819  0.00  0.00    -0.267 OA
ENDBRANCH   5  11
ENDBRANCH   1   4
BRANCH   1  16
ATOM     16  N3  <0> d          -3.712  -1.601   1.542  0.00  0.00    -0.130 NA
ATOM     17  C9  <0> d          -4.895  -1.081   1.690  0.00  0.00     0.225 C 
ATOM     18  O4  <0> d          -5.853  -1.304   0.762  0.00  0.00    -0.168 OA
BRANCH  17  19
ATOM     19  C10 <0> d          -5.192  -0.246   2.873  0.00  0.00     0.057 A 
ATOM     20  C15 <0> d          -4.202  -0.014   3.835  0.00  0.00     0.116 A 
ATOM     21  C14 <0> d          -4.489   0.779   4.939  0.00  0.00     0.103 A 
ATOM     22  O5  <0> d          -2.972  -0.567   3.675  0.00  0.00    -0.345 OA
ATOM     23  C13 <0> d          -5.755   1.323   5.090  0.00  0.00     0.040 A 
ATOM     24  O6  <0> d          -3.539   1.029   5.882  0.00  0.00    -0.346 OA
ATOM     25  C12 <0> d          -6.736   1.087   4.142  0.00  0.00     0.004 A 
ATOM     26  C11 <0> d          -6.463   0.308   3.038  0.00  0.00     0.019 A 
ATOM     27  C17 <0> d          -2.406   0.149   5.899  0.00  0.00     0.202 C 
ATOM     28  C16 <0> d          -1.909  -0.011   4.456  0.00  0.00     0.202 C 
ENDBRANCH  17  19
ENDBRANCH   1  16
TORSDOF 4
