REMARK  1 active torsions:
REMARK  status: ('A' for Active; 'I' for Inactive)
REMARK    1  A    between atoms: C11_13  and  O2_21 
ROOT
ATOM      1  C1  <0> d          -0.535   1.483   0.107  0.00  0.00     0.050 C 
ATOM      2  C2  <0> d          -0.445  -0.021   0.086  0.00  0.00    -0.035 A 
ATOM      3  C3  <0> d          -0.717  -0.744  -1.065  0.00  0.00     0.009 A 
ATOM      4  C4  <0> d          -0.639  -2.121  -1.097  0.00  0.00     0.001 A 
ATOM      5  C5  <0> d          -0.281  -2.854   0.029  0.00  0.00     0.011 A 
ATOM      6  C6  <0> d          -0.008  -2.142   1.177  0.00  0.00    -0.007 A 
ATOM      7  C7  <0> d          -0.079  -0.743   1.222  0.00  0.00     0.050 A 
ATOM      8  N1  <0> d           0.247  -0.285   2.487  0.00  0.00    -0.320 N 
ATOM      9  C8  <0> d           0.547  -1.297   3.329  0.00  0.00     0.242 A 
ATOM     10  O1  <0> d           0.868  -1.194   4.495  0.00  0.00    -0.271 OA
ATOM     11  C9  <0> d           0.398  -2.582   2.546  0.00  0.00     0.110 A 
ATOM     12  C10 <0> d           1.731  -3.328   2.518  0.00  0.00     0.115 C 
ATOM     13  C11 <0> d           1.546  -4.771   2.143  0.00  0.00     0.141 C 
ATOM     14  N2  <0> d           0.488  -5.462   2.443  0.00  0.00    -0.209 NA
ATOM     15  C12 <0> d          -0.548  -4.856   3.091  0.00  0.00     0.155 A 
ATOM     16  C13 <0> d          -0.641  -3.471   3.170  0.00  0.00     0.032 A 
ATOM     17  C14 <0> d          -1.787  -3.163   3.878  0.00  0.00     0.151 A 
ATOM     18  N3  <0> d          -2.382  -4.285   4.213  0.00  0.00    -0.185 NA
ATOM     19  N4  <0> d          -1.628  -5.363   3.722  0.00  0.00    -0.261 N 
ATOM     20  H1  <0> d          -1.844  -6.303   3.819  0.00  0.00     0.191 HD
ATOM     21  C15 <0> d           0.264   1.130   2.867  0.00  0.00     0.159 C 
ENDROOT
BRANCH  13  22
ATOM     22  O2  <0> d           2.533  -5.382   1.456  0.00  0.00    -0.348 OA
ATOM     23  H11 <0> d           2.351  -6.308   1.246  0.00  0.00     0.219 HD
ENDBRANCH  13  22
TORSDOF 1
