REMARK  5 active torsions:
REMARK  status: ('A' for Active; 'I' for Inactive)
REMARK    1  A    between atoms: C2_2  and  C3_3 
REMARK    2  A    between atoms: C2_2  and  N3_18 
REMARK    3  A    between atoms: C8_8  and  O1_9 
REMARK    4  A    between atoms: O1_9  and  C9_10 
REMARK    5  A    between atoms: C9_10  and  C10_11 
ROOT
ATOM      1  C3  <0> d           0.731  -0.503   1.223  0.00  0.00     0.006 A 
ATOM      2  C4  <0> d           2.076  -0.808   1.148  0.00  0.00     0.031 A 
ATOM      3  C5  <0> d           2.746  -1.266   2.269  0.00  0.00     0.011 A 
ATOM      4  C6  <0> d           2.070  -1.420   3.466  0.00  0.00     0.022 A 
ATOM      5  C7  <0> d           0.725  -1.117   3.545  0.00  0.00     0.039 A 
ATOM      6  C8  <0> d           0.053  -0.652   2.424  0.00  0.00     0.077 A 
ATOM      7 Br1  <0> d           4.588  -1.683   2.163  0.00  0.00    -0.051 Br
ENDROOT
BRANCH   6   8
ATOM      8  O1  <0> d          -1.270  -0.348   2.501  0.00  0.00    -0.343 OA
BRANCH   8   9
ATOM      9  C9  <0> d          -1.903  -0.525   3.769  0.00  0.00     0.254 C 
BRANCH   9  10
ATOM     10  C10 <0> d          -3.357  -0.141   3.662  0.00  0.00     0.129 A 
ATOM     11  N2  <0> d          -4.369  -0.973   3.336  0.00  0.00    -0.346 N 
ATOM     12  C12 <0> d          -5.522  -0.235   3.353  0.00  0.00     0.111 A 
ATOM     13  C13 <0> d          -4.255  -2.400   3.024  0.00  0.00     0.157 C 
ATOM     14  C11 <0> d          -5.173   1.024   3.682  0.00  0.00     0.136 A 
ATOM     15  N1  <0> d          -3.845   1.053   3.865  0.00  0.00    -0.244 NA
ENDBRANCH   9  10
ENDBRANCH   8   9
ENDBRANCH   6   8
BRANCH   1  16
ATOM     16  C2  <0> d           0.002  -0.004   0.002  0.00  0.00     0.215 C 
ATOM     17  C1  <0> d          -0.019   1.526   0.010  0.00  0.00     0.045 C 
BRANCH  16  18
ATOM     18  N3  <0> d           0.690  -0.478  -1.207  0.00  0.00    -0.071 N 
ATOM     19  H15 <0> d           1.636  -0.129  -1.214  0.00  0.00     0.275 HD
ATOM     20  H16 <0> d           0.703  -1.487  -1.212  0.00  0.00     0.275 HD
ATOM     21  H17 <0> d           0.202  -0.144  -2.024  0.00  0.00     0.275 HD
ENDBRANCH  16  18
ENDBRANCH   1  16
TORSDOF 5
