REMARK  5 active torsions:
REMARK  status: ('A' for Active; 'I' for Inactive)
REMARK    1  A    between atoms: C2_2  and  C3_3 
REMARK    2  A    between atoms: C3_3  and  C4_4 
REMARK    3  A    between atoms: C3_3  and  N3_18 
REMARK    4  A    between atoms: C4_4  and  C5_5 
REMARK    5  A    between atoms: C4_4  and  N1_11 
ROOT
ATOM      1  C4  <0> d           0.744  -2.022  -1.137  0.00  0.00     0.161 C 
ENDROOT
BRANCH   1   2
ATOM      2  C3  <0> d           0.430  -0.539  -0.933  0.00  0.00     0.211 C 
BRANCH   2   3
ATOM      3  C2  <0> d          -0.442  -0.039  -2.087  0.00  0.00     0.030 C 
ATOM      4  C1  <0> d          -0.869   1.405  -1.815  0.00  0.00     0.007 C 
ENDBRANCH   2   3
BRANCH   2   5
ATOM      5  N3  <0> d           1.683   0.227  -0.900  0.00  0.00    -0.073 N 
ATOM      6  H17 <0> d           1.476   1.205  -0.766  0.00  0.00     0.274 HD
ATOM      7  H18 <0> d           2.258  -0.103  -0.139  0.00  0.00     0.274 HD
ATOM      8  H19 <0> d           2.176   0.103  -1.771  0.00  0.00     0.274 HD
ENDBRANCH   2   5
ENDBRANCH   1   2
BRANCH   1   9
ATOM      9  C5  <0> d           1.565  -2.526   0.023  0.00  0.00     0.009 A 
ATOM     10  S1  <0> d           1.215  -2.436   1.771  0.00  0.00    -0.085 SA
ATOM     11  C8  <0> d           2.685  -3.257   2.365  0.00  0.00     0.051 A 
ATOM     12  C7  <0> d           3.338  -3.534   1.208  0.00  0.00     0.028 A 
ATOM     13 Br1  <0> d           3.201  -3.636   4.144  0.00  0.00    -0.043 Br
ATOM     14  C6  <0> d           2.763  -3.158   0.008  0.00  0.00     0.018 A 
ENDBRANCH   1   9
BRANCH   1  15
ATOM     15  N1  <0> d          -0.508  -2.780  -1.214  0.00  0.00    -0.332 N 
ATOM     16  C11 <0> d          -0.903  -3.593  -2.241  0.00  0.00     0.034 A 
ATOM     17  C10 <0> d          -2.108  -4.091  -1.903  0.00  0.00     0.054 A 
ATOM     18  C12 <0> d          -0.136  -3.879  -3.507  0.00  0.00     0.070 C 
ATOM     19  N2  <0> d          -2.443  -3.588  -0.706  0.00  0.00    -0.247 NA
ATOM     20  C13 <0> d          -2.936  -5.042  -2.728  0.00  0.00     0.072 C 
ATOM     21  C9  <0> d          -1.490  -2.802  -0.287  0.00  0.00     0.210 A 
ENDBRANCH   1  15
TORSDOF 5
