REMARK  8 active torsions:
REMARK  status: ('A' for Active; 'I' for Inactive)
REMARK    1  A    between atoms: C2_2  and  C3_3 
REMARK    2  A    between atoms: C3_3  and  C4_4 
REMARK    3  A    between atoms: C5_7  and  S1_12 
REMARK    4  A    between atoms: N3_8  and  C6_9 
REMARK    5  A    between atoms: C6_9  and  C7_10 
REMARK    6  A    between atoms: S1_12  and  C8_13 
REMARK    7  A    between atoms: C8_13  and  C10_15 
REMARK       I    between atoms: C10_15  and  N4_17 
REMARK       I    between atoms: N4_17  and  C11_18 
REMARK       I    between atoms: C11_18  and  N5_20 
REMARK    8  A    between atoms: N5_20  and  C12_21 
ROOT
ATOM      1  C8  <0> d           5.979   1.246   1.291  0.00  0.00     0.143 C 
ATOM      2  C9  <0> d           6.147   2.287   2.400  0.00  0.00     0.031 C 
ENDROOT
BRANCH   1   3
ATOM      3  S1  <0> d           7.129  -0.123   1.569  0.00  0.00    -0.076 SA
BRANCH   3   4
ATOM      4  C5  <0> d           8.663   0.719   1.360  0.00  0.00     0.192 A 
ATOM      5  N2  <0> d           8.823   1.992   1.081  0.00  0.00    -0.123 NA
ATOM      6  N1  <0> d          10.076   2.266   1.000  0.00  0.00    -0.134 NA
ATOM      7  C4  <0> d          10.784   1.195   1.220  0.00  0.00     0.131 A 
ATOM      8  N3  <0> d           9.910   0.172   1.463  0.00  0.00    -0.301 N 
BRANCH   7   9
ATOM      9  C3  <0> d          12.289   1.102   1.214  0.00  0.00     0.080 C 
BRANCH   9  10
ATOM     10  C2  <0> d          12.822   1.375   2.622  0.00  0.00     0.003 C 
ATOM     11  C1  <0> d          14.349   1.281   2.616  0.00  0.00     0.005 C 
ENDBRANCH   9  10
ENDBRANCH   7   9
BRANCH   8  12
ATOM     12  C6  <0> d          10.242  -1.222   1.767  0.00  0.00     0.245 C 
BRANCH  12  13
ATOM     13  C7  <0> d          10.336  -2.008   0.485  0.00  0.00     0.192 C 
ATOM     14  O1  <0> d          10.146  -1.460  -0.575  0.00  0.00    -0.647 OA
ATOM     15  O4  <0> d          10.632  -3.317   0.520  0.00  0.00    -0.647 OA
ENDBRANCH  12  13
ENDBRANCH   8  12
ENDBRANCH   3   4
ENDBRANCH   1   3
BRANCH   1  16
ATOM     16  C10 <0> d           4.565   0.725   1.301  0.00  0.00     0.239 C 
ATOM     17  O2  <0> d           4.300  -0.295   1.901  0.00  0.00    -0.272 OA
ATOM     18  N4  <0> d           3.596   1.392   0.645  0.00  0.00    -0.278 N 
ATOM     19  C11 <0> d           2.331   0.926   0.654  0.00  0.00     0.323 C 
ATOM     20  H14 <0> d           3.808   2.208   0.165  0.00  0.00     0.173 HD
ATOM     21  O3  <0> d           2.065  -0.097   1.255  0.00  0.00    -0.247 OA
ATOM     22  N5  <0> d           1.362   1.593  -0.002  0.00  0.00    -0.338 N 
ATOM     23  H15 <0> d           1.574   2.409  -0.482  0.00  0.00     0.164 HD
BRANCH  22  24
ATOM     24  C12 <0> d          -0.013   1.086   0.008  0.00  0.00     0.086 C 
ATOM     25  C17 <0> d          -0.753   1.593  -1.232  0.00  0.00     0.025 C 
ATOM     26  C16 <0> d          -2.188   1.063  -1.221  0.00  0.00     0.002 C 
ATOM     27  C15 <0> d          -2.904   1.556   0.038  0.00  0.00     0.000 C 
ATOM     28  C14 <0> d          -2.164   1.050   1.278  0.00  0.00     0.002 C 
ATOM     29  C13 <0> d          -0.729   1.579   1.267  0.00  0.00     0.025 C 
ENDBRANCH  22  24
ENDBRANCH   1  16
TORSDOF 8
