REMARK  5 active torsions:
REMARK  status: ('A' for Active; 'I' for Inactive)
REMARK    1  A    between atoms: N1_2  and  C3_4 
REMARK    2  A    between atoms: C5_6  and  C8_10 
REMARK    3  A    between atoms: C8_10  and  N3_11 
REMARK    4  A    between atoms: N3_11  and  S1_12 
REMARK    5  A    between atoms: S1_12  and  C9_15 
ROOT
ATOM      1  S1  <0> d          -1.638  -6.394  -2.508  0.00  0.00     0.279 S 
ATOM      2  O1  <0> d          -1.175  -6.853  -3.771  0.00  0.00    -0.199 OA
ATOM      3  O2  <0> d          -1.156  -6.926  -1.281  0.00  0.00    -0.199 OA
ENDROOT
BRANCH   1   4
ATOM      4  N3  <0> d          -1.351  -4.764  -2.463  0.00  0.00    -0.198 NA
BRANCH   4   5
ATOM      5  C8  <0> d           0.025  -4.262  -2.458  0.00  0.00     0.201 C 
BRANCH   5   6
ATOM      6  C5  <0> d           0.011  -2.756  -2.415  0.00  0.00    -0.033 A 
ATOM      7  C4  <0> d           0.013  -2.084  -1.206  0.00  0.00     0.057 A 
ATOM      8  C3  <0> d           0.000  -0.693  -1.206  0.00  0.00     0.102 A 
ATOM      9  N2  <0> d          -0.020  -0.019  -2.345  0.00  0.00    -0.352 N 
ATOM     10  C7  <0> d          -0.017  -0.633  -3.513  0.00  0.00     0.090 A 
ATOM     11  H21 <0> d          -0.033   0.951  -2.321  0.00  0.00     0.166 HD
ATOM     12  C6  <0> d          -0.004  -2.012  -3.587  0.00  0.00     0.026 A 
BRANCH   8  13
ATOM     13  N1  <0> d           0.002  -0.004   0.002  0.00  0.00    -0.376 N 
ATOM     14  C1  <0> d          -0.018   1.461   0.010  0.00  0.00     0.150 C 
ATOM     15  C2  <0> d           0.024  -0.743   1.267  0.00  0.00     0.150 C 
ENDBRANCH   8  13
ENDBRANCH   5   6
ENDBRANCH   4   5
ENDBRANCH   1   4
BRANCH   1  16
ATOM     16  C9  <0> d          -3.386  -6.616  -2.501  0.00  0.00     0.084 A 
ATOM     17  C14 <0> d          -4.079  -6.668  -3.697  0.00  0.00     0.065 A 
ATOM     18  C13 <0> d          -5.452  -6.846  -3.688  0.00  0.00     0.103 A 
ATOM     19  C12 <0> d          -6.130  -6.963  -2.482  0.00  0.00     0.102 A 
ATOM     20  O3  <0> d          -6.147  -6.903  -4.860  0.00  0.00    -0.348 OA
ATOM     21  C11 <0> d          -5.433  -6.906  -1.287  0.00  0.00     0.041 A 
ATOM     22  O4  <0> d          -7.484  -7.133  -2.484  0.00  0.00    -0.348 OA
ATOM     23  C10 <0> d          -4.061  -6.732  -1.300  0.00  0.00     0.028 A 
ATOM     24  C17 <0> d          -7.956  -8.383  -2.990  0.00  0.00     0.178 C 
ATOM     25  C16 <0> d          -8.072  -8.341  -4.506  0.00  0.00     0.053 C 
ATOM     26  C15 <0> d          -6.722  -8.171  -5.185  0.00  0.00     0.178 C 
ENDBRANCH   1  16
TORSDOF 5
