REMARK  5 active torsions:
REMARK  status: ('A' for Active; 'I' for Inactive)
REMARK    1  A    between atoms: C4_5  and  C7_8 
REMARK    2  A    between atoms: C7_8  and  N2_9 
REMARK    3  A    between atoms: N2_9  and  C8_10 
REMARK    4  A    between atoms: C8_10  and  C9_11 
REMARK    5  A    between atoms: C14_16  and  O1_17 
ROOT
ATOM      1  N2  <0> d           1.997  -4.654   1.084  0.00  0.00    -0.071 N 
ATOM      2  H15 <0> d           2.966  -4.389   0.986  0.00  0.00     0.277 HD
ATOM      3  H24 <0> d           1.635  -4.294   1.954  0.00  0.00     0.277 HD
ENDROOT
BRANCH   1   4
ATOM      4  C7  <0> d           1.223  -4.101  -0.035  0.00  0.00     0.237 C 
BRANCH   4   5
ATOM      5  C4  <0> d           1.336  -2.575  -0.029  0.00  0.00     0.014 C 
ATOM      6  C3  <0> d           0.634  -2.005  -1.264  0.00  0.00     0.034 C 
ATOM      7  C2  <0> d           0.681  -0.476  -1.210  0.00  0.00     0.234 C 
ATOM      8  N1  <0> d           0.002  -0.004   0.002  0.00  0.00    -0.075 N 
ATOM      9  C1  <0> d          -0.018   1.465   0.010  0.00  0.00     0.269 C 
ATOM     10  C6  <0> d           0.712  -0.489   1.192  0.00  0.00     0.234 C 
ATOM     11  H23 <0> d          -0.945  -0.352   0.012  0.00  0.00     0.279 HD
ATOM     12  C5  <0> d           0.666  -2.018   1.230  0.00  0.00     0.034 C 
ENDBRANCH   4   5
ENDBRANCH   1   4
BRANCH   1  13
ATOM     13  C8  <0> d           1.889  -6.120   1.077  0.00  0.00     0.273 C 
BRANCH  13  14
ATOM     14  C9  <0> d           2.683  -6.687   2.225  0.00  0.00     0.003 A 
ATOM     15  C14 <0> d           2.149  -6.688   3.505  0.00  0.00     0.093 A 
ATOM     16  C13 <0> d           2.881  -7.217   4.560  0.00  0.00     0.046 A 
ATOM     17  C12 <0> d           4.144  -7.730   4.334  0.00  0.00     0.041 A 
ATOM     18 Br1  <0> d           2.152  -7.228   6.305  0.00  0.00    -0.048 Br
ATOM     19  C11 <0> d           4.676  -7.723   3.057  0.00  0.00     0.013 A 
ATOM     20  C10 <0> d           3.946  -7.202   2.004  0.00  0.00     0.030 A 
ATOM     21 Br2  <0> d           6.404  -8.427   2.751  0.00  0.00    -0.051 Br
BRANCH  15  22
ATOM     22  O1  <0> d           0.909  -6.176   3.725  0.00  0.00    -0.354 OA
ATOM     23  C15 <0> d          -0.193  -7.079   3.617  0.00  0.00     0.210 C 
ENDBRANCH  15  22
ENDBRANCH  13  14
ENDBRANCH   1  13
TORSDOF 5
