REMARK  5 active torsions:
REMARK  status: ('A' for Active; 'I' for Inactive)
REMARK    1  A    between atoms: C5_6  and  N1_10 
REMARK       I    between atoms: N1_10  and  C9_11 
REMARK       I    between atoms: C9_11  and  N2_13 
REMARK    2  A    between atoms: N2_13  and  C10_14 
REMARK    3  A    between atoms: C10_14  and  C11_15 
REMARK    4  A    between atoms: C11_15  and  C12_16 
REMARK    5  A    between atoms: C12_16  and  C13_17 
ROOT
ATOM      1  N1  <0> d          -2.185  -0.487  -0.940  0.00  0.00    -0.334 N 
ATOM      2  C9  <0> d          -3.095   0.428  -0.553  0.00  0.00     0.316 C 
ATOM      3  O2  <0> d          -3.072   0.867   0.581  0.00  0.00    -0.247 OA
ATOM      4  N2  <0> d          -4.031   0.858  -1.423  0.00  0.00    -0.343 N 
ATOM      5  H10 <0> d          -2.203  -0.837  -1.845  0.00  0.00     0.165 HD
ATOM      6  H11 <0> d          -4.049   0.508  -2.328  0.00  0.00     0.164 HD
ENDROOT
BRANCH   4   7
ATOM      7  C10 <0> d          -5.021   1.853  -1.003  0.00  0.00     0.125 C 
BRANCH   7   8
ATOM      8  C11 <0> d          -5.959   2.164  -2.171  0.00  0.00     0.027 C 
BRANCH   8   9
ATOM      9  C12 <0> d          -6.992   3.203  -1.732  0.00  0.00     0.082 C 
BRANCH   9  10
ATOM     10  C13 <0> d          -7.916   3.509  -2.882  0.00  0.00     0.130 A 
ATOM     11  N5  <0> d          -9.074   2.875  -3.173  0.00  0.00    -0.320 N 
ATOM     12  C14 <0> d          -9.560   3.466  -4.289  0.00  0.00     0.130 A 
ATOM     13  C15 <0> d          -9.694   1.780  -2.427  0.00  0.00     0.132 C 
ATOM     14  N4  <0> d          -8.726   4.409  -4.624  0.00  0.00    -0.135 NA
ATOM     15  C19 <0> d         -10.830   3.078  -5.001  0.00  0.00     0.080 C 
ATOM     16  N3  <0> d          -7.746   4.434  -3.789  0.00  0.00    -0.135 NA
ATOM     17  C18 <0> d         -11.952   2.919  -3.977  0.00  0.00     0.008 C 
ATOM     18  C17 <0> d         -11.962   1.491  -3.442  0.00  0.00     0.002 C 
ATOM     19  C16 <0> d         -10.541   0.932  -3.380  0.00  0.00     0.020 C 
ENDBRANCH   9  10
ENDBRANCH   8   9
ENDBRANCH   7   8
ENDBRANCH   4   7
BRANCH   1  20
ATOM     20  C5  <0> d          -1.168  -0.953   0.006  0.00  0.00     0.122 C 
ATOM     21  C4  <0> d           0.002  -0.004   0.002  0.00  0.00    -0.004 A 
ATOM     22  C1  <0> d          -0.017   1.402   0.010  0.00  0.00     0.036 A 
ATOM     23  C3  <0> d           1.296  -0.384  -0.011  0.00  0.00     0.061 A 
ATOM     24  C2  <0> d           1.269   1.806  -0.000  0.00  0.00     0.142 A 
ATOM     25  O1  <0> d           2.058   0.716  -0.014  0.00  0.00    -0.326 OA
ATOM     26  C8  <0> d           1.750  -1.824  -0.019  0.00  0.00     0.066 C 
ATOM     27  C7  <0> d           0.572  -2.706   0.408  0.00  0.00     0.009 C 
ATOM     28  C6  <0> d          -0.666  -2.341  -0.416  0.00  0.00     0.030 C 
ENDBRANCH   1  20
TORSDOF 5
