REMARK  4 active torsions:
REMARK  status: ('A' for Active; 'I' for Inactive)
REMARK    1  A    between atoms: N1_9  and  C8_12 
REMARK    2  A    between atoms: C8_12  and  C9_13 
REMARK    3  A    between atoms: C9_13  and  C10_14 
REMARK       I    between atoms: C10_14  and  N3_16 
REMARK    4  A    between atoms: N3_16  and  C11_17 
ROOT
ATOM      1  C8  <0> d           0.071  -1.659   4.812  0.00  0.00     0.142 C 
ENDROOT
BRANCH   1   2
ATOM      2  N1  <0> d           0.058  -1.804   3.354  0.00  0.00    -0.307 N 
ATOM      3  C6  <0> d           0.036  -0.704   2.567  0.00  0.00     0.263 A 
ATOM      4  C5  <0> d           0.025  -0.890   1.165  0.00  0.00     0.094 A 
ATOM      5  O2  <0> d           0.025   0.415   3.051  0.00  0.00    -0.267 OA
ATOM      6  C2  <0> d           0.002  -0.004   0.002  0.00  0.00    -0.013 A 
ATOM      7  C4  <0> d           0.034  -2.192   0.653  0.00  0.00     0.187 A 
ATOM      8  C1  <0> d          -0.018   1.503   0.010  0.00  0.00     0.052 C 
ATOM      9  C3  <0> d           0.009  -0.806  -1.075  0.00  0.00     0.058 A 
ATOM     10  O1  <0> d           0.028  -2.094  -0.686  0.00  0.00    -0.295 OA
ATOM     11  C15 <0> d          -0.004  -0.334  -2.506  0.00  0.00     0.077 C 
ATOM     12  N2  <0> d           0.052  -3.226   1.507  0.00  0.00    -0.218 NA
ATOM     13  C7  <0> d           0.070  -3.040   2.797  0.00  0.00     0.215 A 
ENDBRANCH   1   2
BRANCH   1  14
ATOM     14  C9  <0> d          -1.367  -1.627   5.334  0.00  0.00     0.123 C 
BRANCH  14  15
ATOM     15  C10 <0> d          -1.355  -1.478   6.833  0.00  0.00     0.219 C 
ATOM     16  O3  <0> d          -0.299  -1.404   7.426  0.00  0.00    -0.274 OA
ATOM     17  N3  <0> d          -2.516  -1.427   7.515  0.00  0.00    -0.355 N 
ATOM     18  H10 <0> d          -3.360  -1.486   7.041  0.00  0.00     0.162 HD
BRANCH  17  19
ATOM     19  C11 <0> d          -2.504  -1.282   8.973  0.00  0.00     0.099 C 
ATOM     20  C14 <0> d          -3.834  -0.631   9.447  0.00  0.00     0.165 C 
ATOM     21  S1  <0> d          -3.833  -1.117  11.224  0.00  0.00     0.146 S 
ATOM     22  C13 <0> d          -2.693  -2.559  11.145  0.00  0.00     0.142 C 
ATOM     23  O4  <0> d          -3.220  -0.085  11.986  0.00  0.00    -0.228 OA
ATOM     24  O5  <0> d          -5.130  -1.573  11.581  0.00  0.00    -0.228 OA
ATOM     25  C12 <0> d          -2.387  -2.667   9.632  0.00  0.00     0.041 C 
ENDBRANCH  17  19
ENDBRANCH  14  15
ENDBRANCH   1  14
TORSDOF 4
