REMARK  6 active torsions:
REMARK  status: ('A' for Active; 'I' for Inactive)
REMARK    1  A    between atoms: C3_5  and  S1_7 
REMARK    2  A    between atoms: S1_7  and  C4_8 
REMARK    3  A    between atoms: C4_8  and  C5_9 
REMARK    4  A    between atoms: C5_9  and  N3_10 
REMARK    5  A    between atoms: N3_10  and  C6_11 
REMARK    6  A    between atoms: C6_11  and  C7_12 
ROOT
ATOM      1  N3  <0> d           0.103  -7.308   0.084  0.00  0.00    -0.070 N 
ATOM      2  H8  <0> d          -0.724  -7.245  -0.491  0.00  0.00     0.277 HD
ATOM      3  H13 <0> d           0.924  -7.222  -0.497  0.00  0.00     0.277 HD
ENDROOT
BRANCH   1   4
ATOM      4  C5  <0> d           0.092  -6.227   1.078  0.00  0.00     0.243 C 
BRANCH   4   5
ATOM      5  C4  <0> d           0.070  -4.875   0.362  0.00  0.00     0.110 C 
BRANCH   5   6
ATOM      6  S1  <0> d           0.057  -3.540   1.590  0.00  0.00    -0.081 SA
BRANCH   6   7
ATOM      7  C3  <0> d           0.033  -2.069   0.620  0.00  0.00     0.231 A 
ATOM      8  N2  <0> d           0.026  -2.001  -0.690  0.00  0.00    -0.115 NA
ATOM      9  N1  <0> d           0.008  -0.767  -1.052  0.00  0.00    -0.126 NA
ATOM     10  C2  <0> d           0.002  -0.004   0.002  0.00  0.00     0.166 A 
ATOM     11  C1  <0> d          -0.018   1.503   0.010  0.00  0.00     0.102 C 
ATOM     12  O1  <0> d           0.023  -0.806   1.085  0.00  0.00    -0.269 OA
ENDBRANCH   6   7
ENDBRANCH   5   6
ENDBRANCH   4   5
ENDBRANCH   1   4
BRANCH   1  13
ATOM     13  C6  <0> d           0.124  -8.606   0.772  0.00  0.00     0.278 C 
BRANCH  13  14
ATOM     14  C7  <0> d           0.135  -9.715  -0.248  0.00  0.00     0.009 A 
ATOM     15  S2  <0> d          -1.243 -10.562  -1.003  0.00  0.00    -0.103 SA
ATOM     16  C10 <0> d          -0.314 -11.675  -2.046  0.00  0.00     0.069 A 
ATOM     17  C9  <0> d           0.965 -11.337  -1.747  0.00  0.00     0.018 A 
ATOM     18  C8  <0> d           1.195 -10.333  -0.826  0.00  0.00     0.035 A 
ATOM     19 Br1  <0> d           2.411 -12.226  -2.579  0.00  0.00    -0.051 Br
ENDBRANCH  13  14
ENDBRANCH   1  13
TORSDOF 6
