REMARK  8 active torsions:
REMARK  status: ('A' for Active; 'I' for Inactive)
REMARK    1  A    between atoms: C2_2  and  C4_4 
REMARK    2  A    between atoms: C4_4  and  C5_5 
REMARK    3  A    between atoms: C8_8  and  S1_11 
REMARK    4  A    between atoms: S1_11  and  N1_14 
REMARK    5  A    between atoms: N1_14  and  C11_15 
REMARK    6  A    between atoms: C13_17  and  C21_27 
REMARK    7  A    between atoms: C16_20  and  N2_21 
REMARK       I    between atoms: C21_27  and  N4_29 
REMARK    8  A    between atoms: N4_29  and  C22_30 
ROOT
ATOM      1  C11 <0> d          -4.782   0.864  -0.242  0.00  0.00     0.065 A 
ATOM      2  C12 <0> d          -3.474   1.307  -0.181  0.00  0.00     0.049 A 
ATOM      3  C13 <0> d          -2.443   0.398   0.073  0.00  0.00     0.034 A 
ATOM      4  C14 <0> d          -2.737  -0.955   0.260  0.00  0.00     0.019 A 
ATOM      5  C15 <0> d          -4.043  -1.391   0.204  0.00  0.00     0.027 A 
ATOM      6  C16 <0> d          -5.070  -0.490  -0.049  0.00  0.00     0.038 A 
ENDROOT
BRANCH   1   7
ATOM      7  N1  <0> d          -5.818   1.772  -0.497  0.00  0.00    -0.279 N 
ATOM      8  H14 <0> d          -6.395   2.196   0.338  0.00  0.00     0.179 HD
BRANCH   7   9
ATOM      9  S1  <0> d          -6.174   2.206  -2.055  0.00  0.00     0.263 S 
ATOM     10  O1  <0> d          -7.271   3.107  -1.985  0.00  0.00    -0.200 OA
ATOM     11  O2  <0> d          -4.941   2.552  -2.672  0.00  0.00    -0.200 OA
BRANCH   9  12
ATOM     12  C8  <0> d          -6.760   0.762  -2.877  0.00  0.00     0.079 A 
ATOM     13  C7  <0> d          -8.110   0.462  -2.869  0.00  0.00     0.026 A 
ATOM     14  C6  <0> d          -8.570  -0.671  -3.514  0.00  0.00     0.009 A 
ATOM     15  C5  <0> d          -7.680  -1.504  -4.167  0.00  0.00    -0.058 A 
ATOM     16  C10 <0> d          -6.331  -1.203  -4.176  0.00  0.00     0.009 A 
ATOM     17  C9  <0> d          -5.872  -0.068  -3.534  0.00  0.00     0.026 A 
BRANCH  15  18
ATOM     18  C4  <0> d          -8.182  -2.739  -4.870  0.00  0.00     0.042 C 
BRANCH  18  19
ATOM     19  C2  <0> d          -8.529  -2.396  -6.320  0.00  0.00    -0.019 C 
ATOM     20  C1  <0> d          -8.919  -3.673  -7.066  0.00  0.00     0.010 C 
ATOM     21  C3  <0> d          -9.701  -1.413  -6.345  0.00  0.00     0.010 C 
ENDBRANCH  18  19
ENDBRANCH  15  18
ENDBRANCH   9  12
ENDBRANCH   7   9
ENDBRANCH   1   7
BRANCH   6  22
ATOM     22  N2  <0> d          -6.388  -0.936  -0.110  0.00  0.00    -0.278 NA
ATOM     23  C20 <0> d          -7.180  -0.396   1.004  0.00  0.00     0.123 C 
ATOM     24  C19 <0> d          -8.636  -0.844   0.857  0.00  0.00     0.247 C 
ATOM     25  N3  <0> d          -8.694  -2.312   0.837  0.00  0.00    -0.073 N 
ATOM     26  C18 <0> d          -7.903  -2.852  -0.278  0.00  0.00     0.247 C 
ATOM     27  H22 <0> d          -9.743  -2.623   0.726  0.00  0.00     0.277 HD
ATOM     28  H35 <0> d          -8.297  -2.695   1.788  0.00  0.00     0.277 HD
ATOM     29  C17 <0> d          -6.447  -2.404  -0.130  0.00  0.00     0.123 C 
ENDBRANCH   6  22
BRANCH   3  30
ATOM     30  C21 <0> d          -1.045   0.866   0.139  0.00  0.00     0.252 C 
ATOM     31  O3  <0> d          -0.790   2.043  -0.028  0.00  0.00    -0.268 OA
ATOM     32  N4  <0> d          -0.052  -0.011   0.385  0.00  0.00    -0.353 N 
ATOM     33  H27 <0> d          -0.284  -1.075   0.541  0.00  0.00     0.163 HD
BRANCH  32  34
ATOM     34  C22 <0> d           1.336   0.452   0.444  0.00  0.00     0.076 C 
ATOM     35  C23 <0> d           2.159  -0.510   1.302  0.00  0.00     0.032 C 
ATOM     36  C24 <0> d           1.919   0.501  -0.970  0.00  0.00     0.032 C 
ENDBRANCH  32  34
ENDBRANCH   3  30
TORSDOF 8
