REMARK  4 active torsions:
REMARK  status: ('A' for Active; 'I' for Inactive)
REMARK    1  A    between atoms: C6_9  and  C7_10 
REMARK       I    between atoms: N3_13  and  C12_16 
REMARK    2  A    between atoms: C12_16  and  C13_18 
REMARK    3  A    between atoms: C13_18  and  C14_19 
REMARK    4  A    between atoms: C14_19  and  C15_20 
ROOT
ATOM      1  C7  <0> d           1.613   5.964   0.018  0.00  0.00     0.041 C 
ATOM      2  C8  <0> d           1.602   6.840   1.273  0.00  0.00     0.030 C 
ATOM      3  C9  <0> d           2.849   7.730   1.280  0.00  0.00     0.126 C 
ATOM      4  N3  <0> d           2.901   8.483   0.019  0.00  0.00    -0.352 N 
ATOM      5  C10 <0> d           2.826   7.743  -1.248  0.00  0.00     0.126 C 
ATOM      6  C11 <0> d           1.580   6.853  -1.227  0.00  0.00     0.030 C 
ATOM      7  C12 <0> d           3.014   9.826   0.025  0.00  0.00     0.219 C 
ATOM      8  O1  <0> d           3.055  10.435  -1.022  0.00  0.00    -0.273 OA
ENDROOT
BRANCH   7   9
ATOM      9  C13 <0> d           3.089  10.570   1.334  0.00  0.00     0.105 C 
BRANCH   9  10
ATOM     10  C14 <0> d           3.212  12.070   1.061  0.00  0.00     0.044 C 
BRANCH  10  11
ATOM     11  C15 <0> d           3.289  12.825   2.389  0.00  0.00     0.179 A 
ATOM     12  N5  <0> d           2.002  12.752   3.102  0.00  0.00    -0.330 N 
ATOM     13  C17 <0> d           1.561  14.021   3.225  0.00  0.00     0.323 A 
ATOM     14  H20 <0> d           1.600  11.776   3.413  0.00  0.00     0.165 HD
ATOM     15  N4  <0> d           2.402  14.910   2.685  0.00  0.00    -0.278 N 
ATOM     16  O3  <0> d           0.516  14.322   3.769  0.00  0.00    -0.247 OA
ATOM     17  C16 <0> d           3.482  14.309   2.148  0.00  0.00     0.248 A 
ATOM     18  H19 <0> d           2.301  16.004   2.640  0.00  0.00     0.173 HD
ATOM     19  O2  <0> d           4.415  14.845   1.589  0.00  0.00    -0.271 OA
ENDBRANCH  10  11
ENDBRANCH   9  10
ENDBRANCH   7   9
BRANCH   1  20
ATOM     20  C6  <0> d           0.405   5.063   0.024  0.00  0.00     0.049 A 
ATOM     21  C4  <0> d           0.419   3.722   0.017  0.00  0.00     0.105 A 
ATOM     22  S1  <0> d           1.361   2.218   0.001  0.00  0.00    -0.080 SA
ATOM     23  N1  <0> d          -0.883   3.267   0.027  0.00  0.00    -0.297 N 
ATOM     24  C3  <0> d          -0.013   1.076   0.008  0.00  0.00     0.077 A 
ATOM     25  C2  <0> d          -1.059   1.899   0.017  0.00  0.00     0.021 A 
ATOM     26  C1  <0> d          -2.454   1.329   0.019  0.00  0.00     0.069 C 
ATOM     27  C5  <0> d          -1.653   4.411   0.040  0.00  0.00     0.085 A 
ATOM     28  N2  <0> d          -0.876   5.458   0.038  0.00  0.00    -0.346 N 
ATOM     29  C18 <0> d          -3.159   4.446   0.054  0.00  0.00     0.089 C 
ATOM     30  H24 <0> d          -1.312   6.467   0.047  0.00  0.00     0.167 HD
ENDBRANCH   1  20
TORSDOF 4
