REMARK  5 active torsions:
REMARK  status: ('A' for Active; 'I' for Inactive)
REMARK    1  A    between atoms: C5_5  and  S1_21 
REMARK    2  A    between atoms: C7_7  and  N1_8 
REMARK    3  A    between atoms: C8_9  and  C9_10 
REMARK    4  A    between atoms: C18_19  and  O1_20 
REMARK    5  A    between atoms: S1_21  and  N2_24 
ROOT
ATOM      1  N1  <0> d           0.025  -0.038   2.398  0.00  0.00    -0.260 NA
ATOM      2  C8  <0> d           0.685  -0.517   3.418  0.00  0.00     0.132 C 
ENDROOT
BRANCH   1   3
ATOM      3  C7  <0> d           0.015  -0.715   1.210  0.00  0.00     0.064 A 
ATOM      4  C2  <0> d           0.264  -0.038   0.014  0.00  0.00    -0.033 A 
ATOM      5  C1  <0> d           0.544   1.443   0.029  0.00  0.00     0.050 C 
ATOM      6  C3  <0> d           0.258  -0.728  -1.181  0.00  0.00     0.011 A 
ATOM      7  C4  <0> d           0.001  -2.088  -1.196  0.00  0.00     0.026 A 
ATOM      8  C5  <0> d          -0.251  -2.764  -0.016  0.00  0.00     0.081 A 
ATOM      9  C6  <0> d          -0.248  -2.087   1.186  0.00  0.00     0.057 A 
BRANCH   8  10
ATOM     10  S1  <0> d          -0.578  -4.496  -0.048  0.00  0.00     0.258 S 
ATOM     11  O2  <0> d          -1.321  -4.790   1.127  0.00  0.00    -0.201 OA
ATOM     12  O3  <0> d          -1.062  -4.793  -1.350  0.00  0.00    -0.201 OA
BRANCH  10  13
ATOM     13  N2  <0> d           0.877  -5.272   0.105  0.00  0.00    -0.320 N 
ATOM     14  C19 <0> d           1.651  -5.140   1.342  0.00  0.00     0.159 C 
ATOM     15  H15 <0> d           1.216  -5.813  -0.624  0.00  0.00     0.171 HD
ENDBRANCH  10  13
ENDBRANCH   8  10
ENDBRANCH   1   3
BRANCH   2  16
ATOM     16  C9  <0> d           0.599   0.143   4.723  0.00  0.00     0.026 A 
ATOM     17  C18 <0> d          -0.186   1.287   4.894  0.00  0.00     0.078 A 
ATOM     18  C17 <0> d          -0.267   1.906   6.141  0.00  0.00     0.038 A 
ATOM     19  C16 <0> d           0.412   1.436   7.219  0.00  0.00     0.015 A 
ATOM     20  C15 <0> d           1.225   0.292   7.117  0.00  0.00    -0.025 A 
ATOM     21  C10 <0> d           1.337  -0.377   5.874  0.00  0.00    -0.011 A 
ATOM     22  C14 <0> d           1.930  -0.202   8.227  0.00  0.00     0.012 A 
ATOM     23  C11 <0> d           2.145  -1.514   5.771  0.00  0.00     0.013 A 
ATOM     24  C12 <0> d           2.817  -1.966   6.868  0.00  0.00     0.001 A 
ATOM     25  C13 <0> d           2.709  -1.311   8.092  0.00  0.00     0.001 A 
BRANCH  17  26
ATOM     26  O1  <0> d          -0.877   1.794   3.842  0.00  0.00    -0.360 OA
ATOM     27  H14 <0> d          -1.769   1.435   3.748  0.00  0.00     0.217 HD
ENDBRANCH  17  26
ENDBRANCH   2  16
TORSDOF 5
