REMARK  3 active torsions:
REMARK  status: ('A' for Active; 'I' for Inactive)
REMARK    1  A    between atoms: C6_6  and  N1_7 
REMARK    2  A    between atoms: N1_7  and  S1_8 
REMARK    3  A    between atoms: S1_8  and  C7_11 
ROOT
ATOM      1  S1  <0> d          -2.503   1.550   0.478  0.00  0.00     0.263 S 
ATOM      2  O1  <0> d          -3.637   2.227  -0.045  0.00  0.00    -0.200 OA
ATOM      3  O2  <0> d          -1.592   0.838  -0.349  0.00  0.00    -0.200 OA
ENDROOT
BRANCH   1   4
ATOM      4  N1  <0> d          -3.071   0.469   1.596  0.00  0.00    -0.281 N 
ATOM      5  H5  <0> d          -4.026   0.371   1.735  0.00  0.00     0.179 HD
BRANCH   4   6
ATOM      6  C6  <0> d          -2.175  -0.304   2.339  0.00  0.00     0.044 A 
ATOM      7  C1  <0> d          -1.534  -1.385   1.750  0.00  0.00     0.032 A 
ATOM      8  C2  <0> d          -0.644  -2.145   2.485  0.00  0.00     0.028 A 
ATOM      9  C3  <0> d          -0.400  -1.835   3.811  0.00  0.00     0.055 A 
ATOM     10  C4  <0> d          -1.041  -0.760   4.404  0.00  0.00     0.058 A 
ATOM     11 Cl2  <0> d           0.714  -2.795   4.734  0.00  0.00    -0.083 Cl
ATOM     12  C5  <0> d          -1.928   0.006   3.671  0.00  0.00     0.055 A 
ATOM     13 Cl1  <0> d          -0.732  -0.374   6.068  0.00  0.00    -0.082 Cl
ENDBRANCH   4   6
ENDBRANCH   1   4
BRANCH   1  14
ATOM     14  C7  <0> d          -1.556   2.752   1.350  0.00  0.00     0.082 A 
ATOM     15  C12 <0> d          -0.186   2.609   1.449  0.00  0.00     0.065 A 
ATOM     16  C11 <0> d           0.561   3.557   2.131  0.00  0.00     0.109 A 
ATOM     17  C10 <0> d          -0.077   4.649   2.718  0.00  0.00     0.071 A 
ATOM     18  O3  <0> d           1.887   3.683   2.383  0.00  0.00    -0.259 OA
ATOM     19  C9  <0> d          -1.453   4.784   2.619  0.00  0.00     0.034 A 
ATOM     20  N2  <0> d           0.919   5.416   3.321  0.00  0.00    -0.300 N 
ATOM     21  C8  <0> d          -2.189   3.834   1.938  0.00  0.00     0.028 A 
ATOM     22  C13 <0> d           2.096   4.800   3.097  0.00  0.00     0.370 A 
ATOM     23  H1  <0> d           0.788   6.242   3.812  0.00  0.00     0.171 HD
ATOM     24  O4  <0> d           3.180   5.194   3.483  0.00  0.00    -0.238 OA
ENDBRANCH   1  14
TORSDOF 3
