REMARK  4 active torsions:
REMARK  status: ('A' for Active; 'I' for Inactive)
REMARK    1  A    between atoms: C5_5  and  N1_8 
REMARK       I    between atoms: N1_8  and  C8_9 
REMARK    2  A    between atoms: C8_9  and  C9_11 
REMARK    3  A    between atoms: C9_11  and  N2_12 
REMARK    4  A    between atoms: C13_19  and  N6_22 
ROOT
ATOM      1  N2  <0> d           0.423  -6.888   2.480  0.00  0.00    -0.208 N 
ATOM      2  C10 <0> d          -0.600  -7.248   3.282  0.00  0.00     0.351 A 
ATOM      3  O2  <0> d          -1.783  -7.237   2.987  0.00  0.00    -0.244 OA
ATOM      4  N3  <0> d          -0.083  -7.624   4.466  0.00  0.00    -0.251 N 
ATOM      5  C11 <0> d          -0.647  -8.080   5.641  0.00  0.00     0.123 A 
ATOM      6  C12 <0> d           0.126  -8.389   6.692  0.00  0.00     0.137 A 
ATOM      7  N4  <0> d           1.461  -8.274   6.660  0.00  0.00    -0.238 NA
ATOM      8  C13 <0> d           2.086  -7.848   5.582  0.00  0.00     0.174 A 
ATOM      9  C14 <0> d           1.295  -7.494   4.397  0.00  0.00     0.204 A 
ATOM     10  N5  <0> d           1.611  -7.058   3.206  0.00  0.00    -0.145 NA
ENDROOT
BRANCH   1  11
ATOM     11  C9  <0> d           0.314  -6.412   1.099  0.00  0.00     0.259 C 
BRANCH  11  12
ATOM     12  C8  <0> d           0.180  -4.911   1.094  0.00  0.00     0.242 C 
ATOM     13  N1  <0> d           0.064  -4.248  -0.074  0.00  0.00    -0.326 N 
ATOM     14  H10 <0> d          -0.010  -4.741  -0.906  0.00  0.00     0.169 HD
ATOM     15  O1  <0> d           0.176  -4.299   2.142  0.00  0.00    -0.271 OA
BRANCH  13  16
ATOM     16  C5  <0> d           0.052  -2.849  -0.086  0.00  0.00     0.034 A 
ATOM     17  C4  <0> d           0.794  -2.138   0.848  0.00  0.00     0.030 A 
ATOM     18  C3  <0> d           0.780  -0.757   0.833  0.00  0.00     0.009 A 
ATOM     19  C2  <0> d           0.028  -0.082  -0.111  0.00  0.00    -0.062 A 
ATOM     20  C1  <0> d           0.014   1.425  -0.125  0.00  0.00     0.048 C 
ATOM     21  C7  <0> d          -0.717  -0.787  -1.039  0.00  0.00     0.009 A 
ATOM     22  C6  <0> d          -0.703  -2.168  -1.032  0.00  0.00     0.030 A 
ENDBRANCH  13  16
ENDBRANCH  11  12
ENDBRANCH   1  11
BRANCH   8  23
ATOM     23  N6  <0> d           3.465  -7.735   5.567  0.00  0.00    -0.362 N 
ATOM     24  C19 <0> d           4.267  -8.207   6.704  0.00  0.00     0.128 C 
ATOM     25  C18 <0> d           5.175  -7.073   7.177  0.00  0.00    -0.000 C 
ATOM     26  C17 <0> d           6.000  -6.557   5.997  0.00  0.00     0.011 C 
ATOM     27  C20 <0> d           4.317  -5.936   7.737  0.00  0.00     0.011 C 
ATOM     28  C16 <0> d           5.063  -6.009   4.918  0.00  0.00    -0.000 C 
ATOM     29  C15 <0> d           4.154  -7.136   4.416  0.00  0.00     0.128 C 
ATOM     30  C21 <0> d           5.889  -5.463   3.752  0.00  0.00     0.011 C 
ENDBRANCH   8  23
TORSDOF 4
