REMARK  3 active torsions:
REMARK  status: ('A' for Active; 'I' for Inactive)
REMARK    1  A    between atoms: C3_3  and  C12_14 
REMARK    2  A    between atoms: N1_5  and  C6_7 
REMARK    3  A    between atoms: C6_7  and  C7_8 
ROOT
ATOM      1  C1  <0> d          -0.019   1.526   0.010  0.00  0.00     0.029 C 
ATOM      2  C2  <0> d           1.420   2.051  -0.001  0.00  0.00     0.019 C 
ATOM      3  C3  <0> d           2.172   1.474   1.202  0.00  0.00     0.112 C 
ATOM      4  C4  <0> d           2.112  -0.054   1.150  0.00  0.00     0.250 C 
ATOM      5  N1  <0> d           0.712  -0.494   1.190  0.00  0.00    -0.070 N 
ATOM      6  C5  <0> d           0.002  -0.004   0.002  0.00  0.00     0.235 C 
ATOM      7  H23 <0> d           0.270  -0.128   2.019  0.00  0.00     0.279 HD
ENDROOT
BRANCH   5   8
ATOM      8  C6  <0> d           0.662  -1.962   1.218  0.00  0.00     0.239 C 
BRANCH   8   9
ATOM      9  C7  <0> d          -0.788  -2.419   1.385  0.00  0.00     0.015 C 
ATOM     10  C11 <0> d          -0.858  -3.946   1.289  0.00  0.00     0.034 C 
ATOM     11  C10 <0> d          -2.297  -4.402   1.536  0.00  0.00     0.232 C 
ATOM     12  N2  <0> d          -2.728  -3.974   2.873  0.00  0.00    -0.075 N 
ATOM     13  C9  <0> d          -2.732  -2.508   2.949  0.00  0.00     0.232 C 
ATOM     14  H17 <0> d          -2.092  -4.344   3.564  0.00  0.00     0.277 HD
ATOM     15  H22 <0> d          -3.657  -4.322   3.054  0.00  0.00     0.277 HD
ATOM     16  C8  <0> d          -1.309  -1.979   2.756  0.00  0.00     0.034 C 
ENDBRANCH   8   9
ENDBRANCH   5   8
BRANCH   3  17
ATOM     17  C12 <0> d           3.610   1.923   1.159  0.00  0.00     0.178 C 
ATOM     18  O1  <0> d           3.878   3.112   1.187  0.00  0.00    -0.648 OA
ATOM     19  O2  <0> d           4.505   1.098   1.096  0.00  0.00    -0.648 OA
ENDBRANCH   3  17
TORSDOF 3
