REMARK  6 active torsions:
REMARK  status: ('A' for Active; 'I' for Inactive)
REMARK    1  A    between atoms: C2_2  and  C3_3 
REMARK    2  A    between atoms: C2_2  and  N3_27 
REMARK    3  A    between atoms: C7_8  and  C8_9 
REMARK    4  A    between atoms: C7_8  and  N3_27 
REMARK       I    between atoms: C8_9  and  N1_11 
REMARK    5  A    between atoms: N1_11  and  C9_12 
REMARK    6  A    between atoms: C10_13  and  C17_21 
REMARK       I    between atoms: C17_21  and  N2_23 
ROOT
ATOM      1  C9  <0> d          -1.892   5.531  -1.702  0.00  0.00     0.093 A 
ATOM      2  C10 <0> d          -2.567   6.412  -2.534  0.00  0.00     0.072 A 
ATOM      3  C11 <0> d          -2.623   7.807  -2.132  0.00  0.00    -0.026 A 
ATOM      4  C12 <0> d          -1.991   8.098  -0.974  0.00  0.00    -0.008 A 
ATOM      5  S1  <0> d          -1.335   6.551  -0.416  0.00  0.00    -0.075 SA
ATOM      6  C13 <0> d          -1.877   9.440  -0.320  0.00  0.00     0.047 C 
ATOM      7  C14 <0> d          -2.267  10.513  -1.346  0.00  0.00     0.005 C 
ATOM      8  C15 <0> d          -3.576  10.097  -2.023  0.00  0.00     0.005 C 
ATOM      9  C16 <0> d          -3.330   8.893  -2.934  0.00  0.00     0.041 C 
ENDROOT
BRANCH   1  10
ATOM     10  N1  <0> d          -1.703   4.167  -1.862  0.00  0.00    -0.319 N 
ATOM     11  C8  <0> d          -1.007   3.470  -0.943  0.00  0.00     0.248 C 
ATOM     12  O2  <0> d          -0.545   4.036   0.026  0.00  0.00    -0.271 OA
ATOM     13  H11 <0> d          -2.072   3.714  -2.637  0.00  0.00     0.169 HD
BRANCH  11  14
ATOM     14  C7  <0> d          -0.802   1.987  -1.117  0.00  0.00     0.337 C 
BRANCH  14  15
ATOM     15  N3  <0> d          -0.030   1.473   0.034  0.00  0.00    -0.061 N 
ATOM     16  C1  <0> d           1.346   2.010  -0.000  0.00  0.00     0.270 C 
ATOM     17  H22 <0> d          -0.486   1.778   0.903  0.00  0.00     0.280 HD
BRANCH  15  18
ATOM     18  C2  <0> d           0.002  -0.004   0.002  0.00  0.00     0.299 C 
BRANCH  18  19
ATOM     19  C3  <0> d           0.598  -0.505   1.292  0.00  0.00     0.078 A 
ATOM     20  O1  <0> d           1.899  -0.756   1.511  0.00  0.00    -0.325 OA
ATOM     21  C6  <0> d           2.066  -1.185   2.773  0.00  0.00     0.142 A 
ATOM     22  C5  <0> d           0.863  -1.221   3.372  0.00  0.00     0.027 A 
ATOM     23  C4  <0> d          -0.084  -0.783   2.418  0.00  0.00     0.036 A 
ENDBRANCH  18  19
ENDBRANCH  15  18
ENDBRANCH  14  15
ENDBRANCH  11  14
ENDBRANCH   1  10
BRANCH   2  24
ATOM     24  C17 <0> d          -3.204   5.951  -3.772  0.00  0.00     0.252 C 
ATOM     25  O3  <0> d          -4.362   5.575  -3.757  0.00  0.00    -0.268 OA
ATOM     26  N2  <0> d          -2.508   5.944  -4.926  0.00  0.00    -0.366 N 
ATOM     27  H20 <0> d          -1.586   6.244  -4.938  0.00  0.00     0.159 HD
ATOM     28  H21 <0> d          -2.930   5.640  -5.745  0.00  0.00     0.159 HD
ENDBRANCH   2  24
TORSDOF 6
