REMARK  5 active torsions:
REMARK  status: ('A' for Active; 'I' for Inactive)
REMARK    1  A    between atoms: C2_2  and  C3_4 
REMARK    2  A    between atoms: C6_7  and  N1_10 
REMARK       I    between atoms: N1_10  and  C9_11 
REMARK    3  A    between atoms: C9_11  and  C10_13 
REMARK    4  A    between atoms: C11_14  and  N3_32 
REMARK    5  A    between atoms: C13_16  and  C21_26 
ROOT
ATOM      1  C10 <0> d           2.707  -3.638   0.047  0.00  0.00     0.102 A 
ATOM      2  C11 <0> d           3.762  -4.419  -0.377  0.00  0.00     0.062 A 
ATOM      3  C12 <0> d           3.531  -5.838  -0.579  0.00  0.00     0.039 A 
ATOM      4  C13 <0> d           4.449  -6.840  -1.010  0.00  0.00    -0.001 A 
ATOM      5  C14 <0> d           4.009  -8.156  -1.135  0.00  0.00     0.004 A 
ATOM      6  C15 <0> d           2.697  -8.475  -0.843  0.00  0.00     0.046 A 
ATOM      7  N2  <0> d           1.854  -7.534  -0.446  0.00  0.00    -0.244 NA
ATOM      8  C16 <0> d           2.216  -6.278  -0.311  0.00  0.00     0.112 A 
ATOM      9  S1  <0> d           1.367  -4.803   0.194  0.00  0.00    -0.062 SA
ATOM     10  C17 <0> d           2.184  -9.888  -0.959  0.00  0.00     0.087 C 
ATOM     11  C18 <0> d           3.143 -10.724  -1.807  0.00  0.00     0.240 C 
ATOM     12  C19 <0> d           4.995  -9.197  -1.597  0.00  0.00     0.275 C 
ATOM     13  C20 <0> d           5.413 -11.569  -1.815  0.00  0.00     0.270 C 
ATOM     14  N4  <0> d           4.504 -10.543  -1.261  0.00  0.00    -0.071 N 
ATOM     15  H25 <0> d           4.471 -10.643  -0.239  0.00  0.00     0.279 HD
ENDROOT
BRANCH   1  16
ATOM     16  C9  <0> d           2.694  -2.246   0.308  0.00  0.00     0.265 C 
ATOM     17  N1  <0> d           1.558  -1.648   0.719  0.00  0.00    -0.322 N 
ATOM     18  H8  <0> d           0.734  -2.157   0.772  0.00  0.00     0.169 HD
ATOM     19  O2  <0> d           3.709  -1.589   0.161  0.00  0.00    -0.267 OA
BRANCH  17  20
ATOM     20  C6  <0> d           1.568  -0.301   1.067  0.00  0.00     0.035 A 
ATOM     21  C5  <0> d           2.377   0.591   0.368  0.00  0.00     0.030 A 
ATOM     22  C4  <0> d           2.389   1.914   0.706  0.00  0.00     0.017 A 
ATOM     23  C3  <0> d           1.586   2.374   1.757  0.00  0.00     0.009 A 
ATOM     24  C8  <0> d           0.773   1.474   2.457  0.00  0.00     0.017 A 
ATOM     25  C7  <0> d           0.767   0.152   2.112  0.00  0.00     0.030 A 
BRANCH  23  26
ATOM     26  C2  <0> d           1.596   3.796   2.124  0.00  0.00     0.155 C 
ATOM     27  C1  <0> d           0.827   4.268   3.331  0.00  0.00     0.096 C 
ATOM     28  O1  <0> d           2.223   4.590   1.455  0.00  0.00    -0.293 OA
ENDBRANCH  23  26
ENDBRANCH  17  20
ENDBRANCH   1  16
BRANCH   2  29
ATOM     29  N3  <0> d           5.013  -3.862  -0.604  0.00  0.00    -0.397 N 
ATOM     30  H23 <0> d           5.230  -2.990  -0.238  0.00  0.00     0.156 HD
ATOM     31  H24 <0> d           5.671  -4.345  -1.129  0.00  0.00     0.156 HD
ENDBRANCH   2  29
BRANCH   4  32
ATOM     32  C21 <0> d           5.853  -6.487  -1.321  0.00  0.00    -0.024 A 
ATOM     33  C26 <0> d           6.744  -6.183  -0.292  0.00  0.00     0.012 A 
ATOM     34  C25 <0> d           8.050  -5.854  -0.588  0.00  0.00     0.001 A 
ATOM     35  C24 <0> d           8.478  -5.826  -1.903  0.00  0.00     0.000 A 
ATOM     36  C23 <0> d           7.600  -6.126  -2.929  0.00  0.00     0.001 A 
ATOM     37  C22 <0> d           6.292  -6.462  -2.645  0.00  0.00     0.012 A 
ENDBRANCH   4  32
TORSDOF 5
