REMARK  4 active torsions:
REMARK  status: ('A' for Active; 'I' for Inactive)
REMARK       I    between atoms: N1_2  and  C3_4 
REMARK    1  A    between atoms: C3_4  and  S1_6 
REMARK    2  A    between atoms: S1_6  and  C4_7 
REMARK    3  A    between atoms: C7_10  and  N2_13 
REMARK       I    between atoms: N2_13  and  C10_14 
REMARK    4  A    between atoms: C10_14  and  C11_16 
ROOT
ATOM      1  C4  <0> d          -0.001  -2.980  -2.854  0.00  0.00     0.010 A 
ATOM      2  C5  <0> d           0.059  -2.065  -3.897  0.00  0.00     0.021 A 
ATOM      3  C6  <0> d           0.060  -2.509  -5.204  0.00  0.00     0.031 A 
ATOM      4  C7  <0> d           0.000  -3.870  -5.476  0.00  0.00     0.035 A 
ATOM      5  C8  <0> d          -0.060  -4.784  -4.433  0.00  0.00     0.031 A 
ATOM      6  C9  <0> d          -0.055  -4.341  -3.125  0.00  0.00     0.021 A 
ENDROOT
BRANCH   4   7
ATOM      7  N2  <0> d           0.000  -4.319  -6.802  0.00  0.00    -0.323 N 
ATOM      8  C10 <0> d           0.718  -3.664  -7.736  0.00  0.00     0.256 C 
ATOM      9  O2  <0> d           1.297  -2.635  -7.446  0.00  0.00    -0.267 OA
ATOM     10  H11 <0> d          -0.516  -5.103  -7.048  0.00  0.00     0.169 HD
BRANCH   8  11
ATOM     11  C11 <0> d           0.801  -4.197  -9.114  0.00  0.00     0.035 A 
ATOM     12  C15 <0> d           1.540  -3.532 -10.098  0.00  0.00     0.037 A 
ATOM     13  C14 <0> d           1.595  -4.067 -11.369  0.00  0.00     0.126 A 
ATOM     14  N3  <0> d           0.954  -5.183 -11.663  0.00  0.00    -0.211 N 
ATOM     15  C13 <0> d           0.241  -5.838 -10.766  0.00  0.00     0.126 A 
ATOM     16  O3  <0> d           1.033  -5.693 -12.982  0.00  0.00    -0.082 OA
ATOM     17  C12 <0> d           0.137  -5.376  -9.469  0.00  0.00     0.037 A 
ENDBRANCH   8  11
ENDBRANCH   4   7
BRANCH   1  18
ATOM     18  S1  <0> d          -0.002  -2.414  -1.185  0.00  0.00    -0.030 SA
BRANCH  18  19
ATOM     19  C3  <0> d          -1.711  -2.345  -0.759  0.00  0.00     0.286 C 
ATOM     20  N1  <0> d          -2.080  -2.042   0.501  0.00  0.00    -0.351 N 
ATOM     21  C1  <0> d          -3.500  -1.984   0.855  0.00  0.00     0.152 C 
ATOM     22  C2  <0> d          -1.060  -1.769   1.517  0.00  0.00     0.152 C 
ATOM     23  O1  <0> d          -2.557  -2.571  -1.603  0.00  0.00    -0.260 OA
ENDBRANCH  18  19
ENDBRANCH   1  18
TORSDOF 4
