REMARK  5 active torsions:
REMARK  status: ('A' for Active; 'I' for Inactive)
REMARK    1  A    between atoms: N1_5  and  C10_13 
REMARK    2  A    between atoms: C10_13  and  C12_15 
REMARK       I    between atoms: C12_15  and  N2_17 
REMARK    3  A    between atoms: N2_17  and  C13_18 
REMARK    4  A    between atoms: C13_18  and  C14_19 
REMARK    5  A    between atoms: C14_19  and  N3_21 
ROOT
ATOM      1  C12 <0> d          -3.904  -1.368   1.812  0.00  0.00     0.240 C 
ATOM      2  O3  <0> d          -3.527  -0.395   2.431  0.00  0.00    -0.271 OA
ATOM      3  N2  <0> d          -5.223  -1.587   1.640  0.00  0.00    -0.357 N 
ATOM      4  H14 <0> d          -5.525  -2.365   1.145  0.00  0.00     0.162 HD
ENDROOT
BRANCH   1   5
ATOM      5  C10 <0> d          -2.899  -2.332   1.237  0.00  0.00     0.181 C 
ATOM      6  C11 <0> d          -3.067  -2.397  -0.283  0.00  0.00     0.043 C 
BRANCH   5   7
ATOM      7  N1  <0> d          -1.544  -1.875   1.559  0.00  0.00    -0.300 N 
ATOM      8  C3  <0> d          -1.109  -0.668   1.136  0.00  0.00     0.254 C 
ATOM      9  C2  <0> d           0.300  -0.231   1.445  0.00  0.00     0.217 C 
ATOM     10  O1  <0> d          -1.849   0.062   0.511  0.00  0.00    -0.270 OA
ATOM     11  C1  <0> d           0.353   1.295   1.535  0.00  0.00     0.050 C 
ATOM     12  O2  <0> d           0.715  -0.796   2.692  0.00  0.00    -0.335 OA
ATOM     13  C9  <0> d           0.460  -2.119   2.879  0.00  0.00     0.096 A 
ATOM     14  C4  <0> d          -0.680  -2.683   2.311  0.00  0.00     0.071 A 
ATOM     15  C8  <0> d           1.321  -2.905   3.625  0.00  0.00     0.039 A 
ATOM     16  C5  <0> d          -0.950  -4.030   2.492  0.00  0.00     0.033 A 
ATOM     17  C6  <0> d          -0.085  -4.810   3.238  0.00  0.00     0.002 A 
ATOM     18  C7  <0> d           1.046  -4.249   3.803  0.00  0.00     0.003 A 
ENDBRANCH   5   7
ENDBRANCH   1   5
BRANCH   3  19
ATOM     19  C13 <0> d          -6.200  -0.650   2.199  0.00  0.00     0.155 C 
BRANCH  19  20
ATOM     20  C14 <0> d          -7.613  -1.195   1.980  0.00  0.00     0.202 C 
ATOM     21  C15 <0> d          -8.628  -0.263   2.643  0.00  0.00     0.042 C 
BRANCH  20  22
ATOM     22  N3  <0> d          -7.718  -2.535   2.572  0.00  0.00    -0.066 N 
ATOM     23  C20 <0> d          -7.574  -2.437   4.029  0.00  0.00     0.235 C 
ATOM     24  C19 <0> d          -7.602  -3.838   4.644  0.00  0.00     0.032 C 
ATOM     25  C18 <0> d          -8.935  -4.511   4.305  0.00  0.00    -0.015 C 
ATOM     26  C17 <0> d          -9.109  -4.541   2.784  0.00  0.00     0.032 C 
ATOM     27  C21 <0> d          -8.938  -5.942   4.849  0.00  0.00     0.010 C 
ATOM     28  C16 <0> d          -9.025  -3.114   2.238  0.00  0.00     0.235 C 
ATOM     29  H32 <0> d          -6.987  -3.124   2.201  0.00  0.00     0.280 HD
ENDBRANCH  20  22
ENDBRANCH  19  20
ENDBRANCH   3  19
TORSDOF 5
