REMARK  7 active torsions:
REMARK  status: ('A' for Active; 'I' for Inactive)
REMARK    1  A    between atoms: C2_2  and  N1_3 
REMARK       I    between atoms: N2_6  and  C7_9 
REMARK    2  A    between atoms: C7_9  and  C8_11 
REMARK    3  A    between atoms: C8_11  and  C9_12 
REMARK    4  A    between atoms: N3_15  and  C14_18 
REMARK    5  A    between atoms: C14_18  and  C16_20 
REMARK       I    between atoms: C16_20  and  N4_22 
REMARK       I    between atoms: N4_22  and  C17_23 
REMARK       I    between atoms: C17_23  and  N5_25 
REMARK    6  A    between atoms: N5_25  and  C18_26 
REMARK    7  A    between atoms: C18_26  and  C19_27 
ROOT
ATOM      1  C9  <0> d          -5.791  -4.500  -3.959  0.00  0.00    -0.003 C 
ATOM      2  C10 <0> d          -7.244  -4.078  -3.721  0.00  0.00     0.032 C 
ATOM      3  C11 <0> d          -8.159  -5.289  -3.913  0.00  0.00     0.236 C 
ATOM      4  N3  <0> d          -7.791  -6.341  -2.958  0.00  0.00    -0.059 N 
ATOM      5  C12 <0> d          -6.423  -6.801  -3.227  0.00  0.00     0.236 C 
ATOM      6  C13 <0> d          -5.441  -5.649  -3.009  0.00  0.00     0.032 C 
ATOM      7  H36 <0> d          -7.843  -5.975  -2.019  0.00  0.00     0.280 HD
ENDROOT
BRANCH   4   8
ATOM      8  C14 <0> d          -8.721  -7.470  -3.093  0.00  0.00     0.275 C 
ATOM      9  C15 <0> d          -8.306  -8.590  -2.137  0.00  0.00     0.050 C 
BRANCH   8  10
ATOM     10  C16 <0> d         -10.117  -7.014  -2.755  0.00  0.00     0.256 C 
ATOM     11  O2  <0> d         -10.284  -6.083  -1.996  0.00  0.00    -0.271 OA
ATOM     12  N4  <0> d         -11.181  -7.640  -3.296  0.00  0.00    -0.278 N 
ATOM     13  C17 <0> d         -12.429  -7.232  -2.994  0.00  0.00     0.323 C 
ATOM     14  H29 <0> d         -11.047  -8.385  -3.904  0.00  0.00     0.173 HD
ATOM     15  O3  <0> d         -12.596  -6.299  -2.233  0.00  0.00    -0.247 OA
ATOM     16  N5  <0> d         -13.492  -7.859  -3.535  0.00  0.00    -0.339 N 
ATOM     17  H30 <0> d         -13.359  -8.603  -4.143  0.00  0.00     0.164 HD
BRANCH  16  18
ATOM     18  C18 <0> d         -14.850  -7.415  -3.207  0.00  0.00     0.150 C 
BRANCH  18  19
ATOM     19  C19 <0> d         -15.849  -8.274  -3.937  0.00  0.00    -0.018 C 
ATOM     20  C20 <0> d         -16.789  -8.896  -3.270  0.00  0.00     0.008 C 
ENDBRANCH  18  19
ENDBRANCH  16  18
ENDBRANCH   8  10
ENDBRANCH   4   8
BRANCH   1  21
ATOM     21  C8  <0> d          -4.863  -3.314  -3.692  0.00  0.00     0.107 C 
BRANCH  21  22
ATOM     22  C7  <0> d          -5.125  -2.232  -4.708  0.00  0.00     0.220 C 
ATOM     23  N2  <0> d          -4.420  -1.084  -4.668  0.00  0.00    -0.349 N 
ATOM     24  C4  <0> d          -4.660  -0.015  -5.649  0.00  0.00     0.156 C 
ATOM     25  C5  <0> d          -3.390  -0.867  -3.640  0.00  0.00     0.156 C 
ATOM     26  C3  <0> d          -3.317   0.392  -6.264  0.00  0.00     0.292 C 
ATOM     27  N1  <0> d          -2.375   0.735  -5.190  0.00  0.00     0.091 N 
ATOM     28  C6  <0> d          -2.096  -0.426  -4.334  0.00  0.00     0.292 C 
ATOM     29  O1  <0> d          -5.971  -2.394  -5.561  0.00  0.00    -0.273 OA
BRANCH  27  30
ATOM     30  C2  <0> d          -1.132   1.295  -5.738  0.00  0.00     0.268 C 
ATOM     31  C1  <0> d          -1.431   2.635  -6.413  0.00  0.00     0.037 C 
ENDBRANCH  27  30
ENDBRANCH  21  22
ENDBRANCH   1  21
TORSDOF 7
