REMARK  6 active torsions:
REMARK  status: ('A' for Active; 'I' for Inactive)
REMARK    1  A    between atoms: C7_7  and  N1_8 
REMARK    2  A    between atoms: N1_8  and  C8_9 
REMARK    3  A    between atoms: C9_11  and  N5_16 
REMARK    4  A    between atoms: N5_16  and  C11_17 
REMARK    5  A    between atoms: C11_17  and  C12_18 
REMARK    6  A    between atoms: C12_18  and  O2_20 
ROOT
ATOM      1  C8  <0> d          -3.073  -3.642   0.009  0.00  0.00     0.745 A 
ATOM      2  N2  <0> d          -2.853  -2.332   0.002  0.00  0.00     0.130 NA
ATOM      3  C9  <0> d          -1.607  -1.871  -0.016  0.00  0.00     0.741 A 
ATOM      4  N3  <0> d          -0.584  -2.722  -0.015  0.00  0.00    -0.030 NA
ATOM      5  C10 <0> d          -0.807  -4.026  -0.002  0.00  0.00     0.259 A 
ATOM      6  N4  <0> d          -2.046  -4.488   0.010  0.00  0.00    -0.030 NA
ATOM      7 Cl1  <0> d           0.530  -5.133  -0.002  0.00  0.00    -0.040 Cl
ENDROOT
BRANCH   1   8
ATOM      8  N1  <0> d          -4.367  -4.125   0.022  0.00  0.00    -0.187 N 
ATOM      9  H7  <0> d          -5.113  -3.511   0.108  0.00  0.00     0.184 HD
BRANCH   8  10
ATOM     10  C7  <0> d          -4.602  -5.500  -0.089  0.00  0.00     0.055 A 
ATOM     11  C2  <0> d          -5.768  -6.050   0.426  0.00  0.00    -0.034 A 
ATOM     12  C1  <0> d          -6.784  -5.167   1.104  0.00  0.00     0.050 C 
ATOM     13  C3  <0> d          -5.999  -7.407   0.311  0.00  0.00     0.027 A 
ATOM     14  C4  <0> d          -5.065  -8.219  -0.307  0.00  0.00     0.007 A 
ATOM     15  C5  <0> d          -3.899  -7.674  -0.816  0.00  0.00     0.020 A 
ATOM     16  I1  <0> d          -5.416 -10.278  -0.473  0.00  0.00    -0.045 I 
ATOM     17  C6  <0> d          -3.665  -6.317  -0.708  0.00  0.00     0.032 A 
ENDBRANCH   8  10
ENDBRANCH   1   8
BRANCH   3  18
ATOM     18  N5  <0> d          -1.373  -0.511  -0.029  0.00  0.00    -0.213 N 
ATOM     19  H8  <0> d          -2.119   0.109  -0.029  0.00  0.00     0.178 HD
BRANCH  18  20
ATOM     20  C11 <0> d           0.001  -0.003  -0.043  0.00  0.00     0.249 C 
BRANCH  20  21
ATOM     21  C12 <0> d          -0.020   1.504  -0.055  0.00  0.00     0.276 C 
ATOM     22  O1  <0> d          -1.075   2.093  -0.058  0.00  0.00    -0.263 OA
BRANCH  21  23
ATOM     23  O2  <0> d           1.133   2.191  -0.069  0.00  0.00    -0.325 OA
ATOM     24  C13 <0> d           1.037   3.639  -0.081  0.00  0.00     0.213 C 
ENDBRANCH  21  23
ENDBRANCH  20  21
ENDBRANCH  18  20
ENDBRANCH   3  18
TORSDOF 6
