REMARK  8 active torsions:
REMARK  status: ('A' for Active; 'I' for Inactive)
REMARK    1  A    between atoms: C2_2  and  C3_3 
REMARK    2  A    between atoms: C2_2  and  C13_17 
REMARK    3  A    between atoms: C3_3  and  N1_4 
REMARK       I    between atoms: N1_4  and  C4_5 
REMARK    4  A    between atoms: C4_5  and  C5_7 
REMARK    5  A    between atoms: C8_10  and  C10_13 
REMARK    6  A    between atoms: C11_14  and  C12_15 
REMARK    7  A    between atoms: C12_15  and  N3_16 
REMARK    8  A    between atoms: C13_17  and  O2_18 
ROOT
ATOM      1  C5  <0> d           4.417  -0.030   2.091  0.00  0.00     0.124 A 
ATOM      2  C6  <0> d           5.290  -0.389   3.119  0.00  0.00     0.039 A 
ATOM      3  C7  <0> d           6.614  -0.001   3.045  0.00  0.00     0.024 A 
ATOM      4  C8  <0> d           7.029   0.742   1.934  0.00  0.00     0.035 A 
ATOM      5  C9  <0> d           6.094   1.063   0.944  0.00  0.00     0.138 A 
ATOM      6  N2  <0> d           4.845   0.671   1.048  0.00  0.00    -0.254 NA
ENDROOT
BRANCH   1   7
ATOM      7  C4  <0> d           2.997  -0.441   2.162  0.00  0.00     0.270 C 
ATOM      8  N1  <0> d           2.148  -0.104   1.172  0.00  0.00    -0.355 N 
ATOM      9  H7  <0> d           2.467   0.409   0.412  0.00  0.00     0.162 HD
ATOM     10  O1  <0> d           2.597  -1.083   3.113  0.00  0.00    -0.266 OA
BRANCH   8  11
ATOM     11  C3  <0> d           0.742  -0.511   1.242  0.00  0.00     0.129 C 
BRANCH  11  12
ATOM     12  C2  <0> d           0.002  -0.004   0.002  0.00  0.00     0.023 C 
ATOM     13  C1  <0> d          -0.019   1.526   0.010  0.00  0.00     0.014 C 
BRANCH  12  14
ATOM     14  C13 <0> d          -1.433  -0.534   0.013  0.00  0.00     0.172 C 
BRANCH  14  15
ATOM     15  O2  <0> d          -2.089  -0.158  -1.200  0.00  0.00    -0.396 OA
ATOM     16  C14 <0> d          -3.443  -0.606  -1.292  0.00  0.00     0.201 C 
ENDBRANCH  14  15
ENDBRANCH  12  14
ENDBRANCH  11  12
ENDBRANCH   8  11
ENDBRANCH   1   7
BRANCH   4  17
ATOM     17  C10 <0> d           8.390   1.168   1.812  0.00  0.00    -0.064 C 
ATOM     18  C11 <0> d           9.507   1.517   1.712  0.00  0.00    -0.074 C 
BRANCH  18  19
ATOM     19  C12 <0> d          10.907   1.954   1.587  0.00  0.00     0.323 C 
BRANCH  19  20
ATOM     20  N3  <0> d          11.074   2.711   0.339  0.00  0.00    -0.069 N 
ATOM     21  H13 <0> d          10.834   2.123  -0.445  0.00  0.00     0.275 HD
ATOM     22  H14 <0> d          10.469   3.518   0.352  0.00  0.00     0.275 HD
ATOM     23  H20 <0> d          12.033   3.011   0.254  0.00  0.00     0.275 HD
ENDBRANCH  19  20
ENDBRANCH  18  19
ENDBRANCH   4  17
TORSDOF 8
