REMARK  5 active torsions:
REMARK  status: ('A' for Active; 'I' for Inactive)
REMARK    1  A    between atoms: C2_2  and  C3_3 
REMARK    2  A    between atoms: C2_2  and  N4_16 
REMARK    3  A    between atoms: C3_3  and  C4_5 
REMARK    4  A    between atoms: N5_19  and  C14_22 
REMARK    5  A    between atoms: C19_27  and  O4_28 
ROOT
ATOM      1  C1  <0> d          -0.041   1.589   0.038  0.00  0.00     0.051 C 
ATOM      2  C2  <0> d           0.017   0.061   0.002  0.00  0.00     0.293 C 
ENDROOT
BRANCH   2   3
ATOM      3  C3  <0> d          -1.383  -0.496   0.020  0.00  0.00     0.201 C 
ATOM      4  O1  <0> d          -1.829  -0.985   1.039  0.00  0.00    -0.290 OA
BRANCH   3   5
ATOM      5  C4  <0> d          -2.175  -0.451  -1.147  0.00  0.00     0.124 A 
ATOM      6  C7  <0> d          -1.619   0.018  -2.423  0.00  0.00     0.269 A 
ATOM      7  N2  <0> d          -2.420   0.036  -3.509  0.00  0.00    -0.270 N 
ATOM      8  O3  <0> d          -0.459   0.378  -2.500  0.00  0.00    -0.267 OA
ATOM      9  C6  <0> d          -3.702  -0.355  -3.426  0.00  0.00     0.332 A 
ATOM     10  C8  <0> d          -1.885   0.494  -4.793  0.00  0.00     0.164 C 
ATOM     11  N1  <0> d          -4.250  -0.785  -2.279  0.00  0.00    -0.289 N 
ATOM     12  O2  <0> d          -4.391  -0.318  -4.426  0.00  0.00    -0.246 OA
ATOM     13  C5  <0> d          -3.524  -0.847  -1.124  0.00  0.00     0.124 A 
ATOM     14  C9  <0> d          -5.657  -1.196  -2.265  0.00  0.00     0.163 C 
ATOM     15  N3  <0> d          -4.096  -1.286   0.030  0.00  0.00    -0.384 N 
ATOM     16  H11 <0> d          -3.554  -1.403   0.826  0.00  0.00     0.157 HD
ATOM     17  H12 <0> d          -5.045  -1.482   0.057  0.00  0.00     0.157 HD
ENDBRANCH   3   5
ENDBRANCH   2   3
BRANCH   2  18
ATOM     18  N4  <0> d           0.754  -0.429   1.175  0.00  0.00     0.103 N 
ATOM     19  C13 <0> d           0.935  -1.885   1.113  0.00  0.00     0.293 C 
ATOM     20  C12 <0> d           1.542  -2.378   2.431  0.00  0.00     0.153 C 
ATOM     21  N5  <0> d           2.768  -1.609   2.696  0.00  0.00    -0.375 N 
ATOM     22  C11 <0> d           2.695  -0.141   2.640  0.00  0.00     0.153 C 
ATOM     23  C10 <0> d           2.042   0.263   1.314  0.00  0.00     0.293 C 
BRANCH  21  24
ATOM     24  C14 <0> d           3.972  -2.258   2.995  0.00  0.00     0.063 A 
ATOM     25  C19 <0> d           4.847  -2.613   1.970  0.00  0.00     0.092 A 
ATOM     26  C18 <0> d           6.039  -3.250   2.272  0.00  0.00     0.039 A 
ATOM     27  C17 <0> d           6.354  -3.542   3.587  0.00  0.00     0.003 A 
ATOM     28  C16 <0> d           5.484  -3.195   4.603  0.00  0.00     0.002 A 
ATOM     29  C15 <0> d           4.295  -2.554   4.311  0.00  0.00     0.032 A 
BRANCH  25  30
ATOM     30  O4  <0> d           4.534  -2.330   0.677  0.00  0.00    -0.358 OA
ATOM     31  H25 <0> d           4.846  -1.466   0.377  0.00  0.00     0.217 HD
ENDBRANCH  25  30
ENDBRANCH  21  24
ENDBRANCH   2  18
TORSDOF 5
