REMARK  4 active torsions:
REMARK  status: ('A' for Active; 'I' for Inactive)
REMARK    1  A    between atoms: C15_16  and  O4_24 
REMARK    2  A    between atoms: C18_19  and  C19_20 
REMARK    3  A    between atoms: C19_20  and  C20_22 
REMARK    4  A    between atoms: C20_22  and  O3_23 
ROOT
ATOM      1  C1  <0> d           1.292  -0.055   2.828  0.00  0.00     0.020 C 
ATOM      2  C2  <0> d           1.790   0.050   1.385  0.00  0.00    -0.016 C 
ATOM      3  C3  <0> d           3.181  -0.562   1.426  0.00  0.00     0.022 C 
ATOM      4  C4  <0> d           3.120  -2.017   1.901  0.00  0.00     0.084 C 
ATOM      5  C5  <0> d           1.678  -2.452   2.042  0.00  0.00     0.149 C 
ATOM      6  O1  <0> d           1.290  -3.067   3.013  0.00  0.00    -0.293 OA
ATOM      7  C6  <0> d           0.764  -2.089   0.935  0.00  0.00     0.053 C 
ATOM      8  C7  <0> d           0.844  -0.782   0.584  0.00  0.00    -0.068 C 
ATOM      9  C8  <0> d           0.012  -0.274  -0.552  0.00  0.00     0.036 C 
ATOM     10  C9  <0> d          -0.117   1.249  -0.475  0.00  0.00     0.012 C 
ATOM     11  C10 <0> d           1.292   1.837  -0.322  0.00  0.00     0.026 C 
ATOM     12  C11 <0> d           1.803   1.524   1.077  0.00  0.00     0.005 C 
ATOM     13  C12 <0> d           3.222   2.085   1.223  0.00  0.00     0.007 C 
ATOM     14  C13 <0> d           3.156   3.606   1.083  0.00  0.00     0.013 C 
ATOM     15  C14 <0> d           2.585   4.007  -0.258  0.00  0.00    -0.002 C 
ATOM     16  C15 <0> d           1.226   3.349  -0.556  0.00  0.00     0.070 C 
ATOM     17  C16 <0> d           1.106   3.556  -2.095  0.00  0.00     0.040 C 
ATOM     18  C17 <0> d           2.541   3.316  -2.614  0.00  0.00     0.016 C 
ATOM     19  C18 <0> d           3.487   3.600  -1.430  0.00  0.00     0.069 C 
ATOM     20  C21 <0> d           2.393   5.525  -0.283  0.00  0.00     0.019 C 
ENDROOT
BRANCH  19  21
ATOM     21  C19 <0> d           4.267   2.359  -1.079  0.00  0.00     0.155 C 
ATOM     22  O2  <0> d           3.838   1.271  -1.379  0.00  0.00    -0.295 OA
BRANCH  21  23
ATOM     23  C20 <0> d           5.583   2.476  -0.353  0.00  0.00     0.242 C 
BRANCH  23  24
ATOM     24  O3  <0> d           6.124   1.171  -0.136  0.00  0.00    -0.394 OA
ATOM     25  H26 <0> d           6.973   1.170   0.328  0.00  0.00     0.209 HD
ENDBRANCH  23  24
ENDBRANCH  21  23
ENDBRANCH  19  21
BRANCH  16  26
ATOM     26  O4  <0> d           0.157   3.969   0.161  0.00  0.00    -0.389 OA
ATOM     27  H27 <0> d          -0.710   3.575  -0.007  0.00  0.00     0.210 HD
ENDBRANCH  16  26
TORSDOF 4
