REMARK  1 active torsions:
REMARK  status: ('A' for Active; 'I' for Inactive)
REMARK    1  A    between atoms: N2_5  and  C6_8 
ROOT
ATOM      1  C6  <0> d          -1.361   3.533   2.406  0.00  0.00     0.151 A 
ATOM      2  N3  <0> d          -2.405   4.326   2.530  0.00  0.00    -0.208 NA
ATOM      3  C7  <0> d          -2.865   4.722   3.717  0.00  0.00     0.175 A 
ATOM      4  C8  <0> d          -2.150   4.229   4.824  0.00  0.00     0.123 A 
ATOM      5  S1  <0> d          -0.895   3.241   4.054  0.00  0.00    -0.049 SA
ATOM      6  C9  <0> d          -2.509   4.553   6.125  0.00  0.00     0.267 A 
ATOM      7  O1  <0> d          -1.881   4.119   7.077  0.00  0.00    -0.267 OA
ATOM      8  N4  <0> d          -3.578   5.367   6.307  0.00  0.00    -0.317 N 
ATOM      9  H1  <0> d          -3.891   5.645   7.324  0.00  0.00     0.170 HD
ATOM     10  C10 <0> d          -4.251   5.829   5.222  0.00  0.00     0.212 A 
ATOM     11  N5  <0> d          -3.925   5.533   4.004  0.00  0.00    -0.223 NA
ENDROOT
BRANCH   1  12
ATOM     12  N2  <0> d          -0.783   3.048   1.252  0.00  0.00    -0.259 NA
ATOM     13  C3  <0> d          -0.730   1.580   1.267  0.00  0.00     0.125 C 
ATOM     14  C2  <0> d          -0.013   1.086   0.008  0.00  0.00     0.249 C 
ATOM     15  N1  <0> d          -0.724   1.573  -1.182  0.00  0.00    -0.073 N 
ATOM     16  C1  <0> d          -0.109   1.057  -2.412  0.00  0.00     0.269 C 
ATOM     17  C5  <0> d          -0.777   3.042  -1.196  0.00  0.00     0.249 C 
ATOM     18  H14 <0> d          -1.757   1.196  -1.138  0.00  0.00     0.279 HD
ATOM     19  C4  <0> d          -1.495   3.536   0.062  0.00  0.00     0.125 C 
ENDBRANCH   1  12
TORSDOF 1
