REMARK  6 active torsions:
REMARK  status: ('A' for Active; 'I' for Inactive)
REMARK    1  A    between atoms: C9_9  and  O1_12 
REMARK    2  A    between atoms: O1_12  and  C11_13 
REMARK    3  A    between atoms: C11_13  and  C12_14 
REMARK    4  A    between atoms: C13_17  and  S1_20 
REMARK    5  A    between atoms: S1_20  and  C15_21 
REMARK    6  A    between atoms: C15_21  and  C16_22 
REMARK       I    between atoms: C16_22  and  N5_24 
ROOT
ATOM      1  C12 <0> d           3.647   3.128  -0.015  0.00  0.00     0.154 A 
ATOM      2  N2  <0> d           3.813   1.836  -0.023  0.00  0.00    -0.132 NA
ATOM      3  N3  <0> d           2.673   1.244  -0.011  0.00  0.00    -0.122 NA
ATOM      4  C13 <0> d           1.708   2.135  -0.003  0.00  0.00     0.191 A 
ATOM      5  N4  <0> d           2.301   3.365  -0.002  0.00  0.00    -0.314 N 
ATOM      6  C14 <0> d           1.632   4.669   0.011  0.00  0.00     0.160 C 
ENDROOT
BRANCH   1   7
ATOM      7  C11 <0> d           4.737   4.169  -0.020  0.00  0.00     0.256 C 
BRANCH   7   8
ATOM      8  O1  <0> d           5.094   4.491   1.326  0.00  0.00    -0.341 OA
BRANCH   8   9
ATOM      9  C9  <0> d           6.070   5.420   1.500  0.00  0.00     0.098 A 
ATOM     10  C8  <0> d           6.668   5.998   0.417  0.00  0.00     0.039 A 
ATOM     11  C7  <0> d           7.665   6.957   0.576  0.00  0.00     0.004 A 
ATOM     12  C6  <0> d           8.081   7.337   1.816  0.00  0.00     0.014 A 
ATOM     13  C5  <0> d           7.494   6.760   2.954  0.00  0.00    -0.004 A 
ATOM     14  C4  <0> d           7.897   7.126   4.252  0.00  0.00     0.016 A 
ATOM     15  C10 <0> d           6.475   5.788   2.800  0.00  0.00     0.100 A 
ATOM     16  C3  <0> d           7.282   6.524   5.312  0.00  0.00     0.027 A 
ATOM     17  C2  <0> d           6.286   5.575   5.090  0.00  0.00     0.031 A 
ATOM     18  C1  <0> d           5.619   4.922   6.273  0.00  0.00     0.070 C 
ATOM     19  N1  <0> d           5.913   5.237   3.880  0.00  0.00    -0.250 NA
ENDBRANCH   8   9
ENDBRANCH   7   8
ENDBRANCH   1   7
BRANCH   4  20
ATOM     20  S1  <0> d          -0.022   1.806   0.012  0.00  0.00    -0.081 SA
BRANCH  20  21
ATOM     21  C15 <0> d           0.002  -0.004   0.002  0.00  0.00     0.184 C 
BRANCH  21  22
ATOM     22  C16 <0> d          -1.412  -0.526   0.013  0.00  0.00     0.225 C 
ATOM     23  O2  <0> d          -2.344   0.250   0.026  0.00  0.00    -0.273 OA
ATOM     24  N5  <0> d          -1.640  -1.854   0.008  0.00  0.00    -0.369 N 
ATOM     25  H16 <0> d          -0.894  -2.474  -0.003  0.00  0.00     0.159 HD
ATOM     26  H17 <0> d          -2.550  -2.190   0.015  0.00  0.00     0.159 HD
ENDBRANCH  21  22
ENDBRANCH  20  21
ENDBRANCH   4  20
TORSDOF 6
