REMARK  5 active torsions:
REMARK  status: ('A' for Active; 'I' for Inactive)
REMARK    1  A    between atoms: N1_5  and  C7_8 
REMARK    2  A    between atoms: C7_8  and  C8_9 
REMARK    3  A    between atoms: C7_8  and  C18_24 
REMARK    4  A    between atoms: C8_9  and  N2_10 
REMARK       I    between atoms: N2_10  and  C9_11 
REMARK    5  A    between atoms: C9_11  and  C10_13 
ROOT
ATOM      1  N2  <0> d           4.137   5.641  -1.462  0.00  0.00    -0.355 N 
ATOM      2  C9  <0> d           2.986   4.940  -1.490  0.00  0.00     0.251 C 
ATOM      3  O1  <0> d           1.983   5.437  -1.964  0.00  0.00    -0.268 OA
ATOM      4  H16 <0> d           5.045   5.191  -1.033  0.00  0.00     0.162 HD
ENDROOT
BRANCH   1   5
ATOM      5  C8  <0> d           4.179   7.002  -2.003  0.00  0.00     0.161 C 
BRANCH   5   6
ATOM      6  C7  <0> d           5.556   7.614  -1.738  0.00  0.00     0.245 C 
BRANCH   6   7
ATOM      7  N1  <0> d           5.846   7.562  -0.298  0.00  0.00    -0.061 N 
ATOM      8  C4  <0> d           4.715   8.075   0.485  0.00  0.00     0.236 C 
ATOM      9  C3  <0> d           4.991   7.872   1.976  0.00  0.00     0.032 C 
ATOM     10  C2  <0> d           6.277   8.611   2.357  0.00  0.00    -0.015 C 
ATOM     11  C1  <0> d           6.591   8.361   3.834  0.00  0.00     0.010 C 
ATOM     12  C6  <0> d           7.429   8.091   1.494  0.00  0.00     0.032 C 
ATOM     13  C5  <0> d           7.083   8.288   0.016  0.00  0.00     0.236 C 
ATOM     14  H26 <0> d           5.995   6.508  -0.020  0.00  0.00     0.280 HD
ENDBRANCH   6   7
BRANCH   6  15
ATOM     15  C18 <0> d           5.566   9.047  -2.201  0.00  0.00     0.015 A 
ATOM     16  S1  <0> d           4.920  10.497  -1.384  0.00  0.00    -0.104 SA
ATOM     17  C21 <0> d           5.364  11.704  -2.623  0.00  0.00     0.050 A 
ATOM     18  C20 <0> d           5.960  10.932  -3.565  0.00  0.00     0.008 A 
ATOM     19  C19 <0> d           6.063   9.570  -3.348  0.00  0.00     0.017 A 
ENDBRANCH   6  15
ENDBRANCH   5   6
ENDBRANCH   1   5
BRANCH   2  20
ATOM     20  C10 <0> d           2.944   3.569  -0.945  0.00  0.00     0.034 A 
ATOM     21  C15 <0> d           1.751   2.841  -0.974  0.00  0.00     0.056 A 
ATOM     22  C14 <0> d           1.717   1.560  -0.464  0.00  0.00     0.097 A 
ATOM     23  C13 <0> d           2.872   0.994   0.081  0.00  0.00     0.068 A 
ATOM     24  O2  <0> d           0.565   0.837  -0.485  0.00  0.00    -0.340 OA
ATOM     25  C12 <0> d           4.057   1.717   0.109  0.00  0.00     0.033 A 
ATOM     26  N3  <0> d           2.820  -0.304   0.596  0.00  0.00    -0.323 N 
ATOM     27  C11 <0> d           4.096   2.997  -0.400  0.00  0.00     0.019 A 
ATOM     28  C17 <0> d           1.770  -1.093   0.281  0.00  0.00     0.246 C 
ATOM     29  H22 <0> d           3.626  -0.670   1.248  0.00  0.00     0.169 HD
ATOM     30  C16 <0> d           0.697  -0.578  -0.645  0.00  0.00     0.278 C 
ATOM     31  O3  <0> d           1.690  -2.212   0.742  0.00  0.00    -0.271 OA
ENDBRANCH   2  20
TORSDOF 5
