REMARK  6 active torsions:
REMARK  status: ('A' for Active; 'I' for Inactive)
REMARK    1  A    between atoms: C3_3  and  C5_6 
REMARK    2  A    between atoms: C7_8  and  C18_28 
REMARK       I    between atoms: N2_10  and  C8_11 
REMARK    3  A    between atoms: C8_11  and  C9_13 
REMARK    4  A    between atoms: C9_13  and  N3_14 
REMARK    5  A    between atoms: C10_16  and  C11_19 
REMARK    6  A    between atoms: C14_22  and  C17_25 
REMARK       I    between atoms: C17_25  and  N7_27 
ROOT
ATOM      1  C5  <0> d          -1.054   5.133   0.037  0.00  0.00     0.159 A 
ATOM      2  C6  <0> d          -1.593   5.520  -1.354  0.00  0.00     0.095 A 
ATOM      3  C7  <0> d          -3.059   5.800  -1.111  0.00  0.00     0.074 A 
ATOM      4  N1  <0> d          -3.331   5.621   0.138  0.00  0.00    -0.172 NA
ATOM      5  N2  <0> d          -2.237   5.230   0.907  0.00  0.00    -0.226 N 
ATOM      6  C8  <0> d          -2.258   4.982   2.232  0.00  0.00     0.262 C 
ATOM      7  O1  <0> d          -1.241   4.646   2.802  0.00  0.00    -0.270 OA
ENDROOT
BRANCH   6   8
ATOM      8  C9  <0> d          -3.545   5.120   3.003  0.00  0.00     0.280 C 
BRANCH   8   9
ATOM      9  N3  <0> d          -3.306   4.798   4.412  0.00  0.00    -0.159 N 
ATOM     10  N6  <0> d          -3.414   3.627   4.937  0.00  0.00    -0.046 NA
ATOM     11  N5  <0> d          -3.130   3.703   6.193  0.00  0.00    -0.108 NA
ATOM     12  C10 <0> d          -2.841   4.985   6.459  0.00  0.00     0.204 A 
ATOM     13  N4  <0> d          -2.961   5.642   5.322  0.00  0.00    -0.130 NA
BRANCH  12  14
ATOM     14  C11 <0> d          -2.460   5.553   7.775  0.00  0.00     0.015 A 
ATOM     15  C16 <0> d          -2.375   4.723   8.893  0.00  0.00     0.016 A 
ATOM     16  C15 <0> d          -2.021   5.249  10.116  0.00  0.00     0.018 A 
ATOM     17  C14 <0> d          -1.746   6.614  10.236  0.00  0.00     0.031 A 
ATOM     18  C13 <0> d          -1.831   7.443   9.115  0.00  0.00     0.018 A 
ATOM     19  C12 <0> d          -2.180   6.914   7.892  0.00  0.00     0.016 A 
BRANCH  17  20
ATOM     20  C17 <0> d          -1.367   7.179  11.546  0.00  0.00     0.249 C 
ATOM     21  O2  <0> d          -1.293   6.457  12.522  0.00  0.00    -0.268 OA
ATOM     22  N7  <0> d          -1.101   8.495  11.661  0.00  0.00    -0.366 N 
ATOM     23  H13 <0> d          -1.160   9.072  10.883  0.00  0.00     0.159 HD
ATOM     24  H14 <0> d          -0.852   8.867  12.522  0.00  0.00     0.159 HD
ENDBRANCH  17  20
ENDBRANCH  12  14
ENDBRANCH   8   9
ENDBRANCH   6   8
BRANCH   1  25
ATOM     25  C3  <0> d          -0.518   3.725   0.025  0.00  0.00     0.008 A 
ATOM     26  C2  <0> d           0.770   3.301   0.012  0.00  0.00     0.017 A 
ATOM     27  C1  <0> d           1.029   1.944   0.003  0.00  0.00     0.008 A 
ATOM     28  C4  <0> d          -0.013   1.076   0.008  0.00  0.00     0.050 A 
ATOM     29  S1  <0> d          -1.415   2.181   0.019  0.00  0.00    -0.104 SA
ENDBRANCH   1  25
BRANCH   3  30
ATOM     30  C18 <0> d          -4.024   6.210  -2.137  0.00  0.00     0.031 A 
ATOM     31  S2  <0> d          -3.761   6.495  -3.880  0.00  0.00    -0.100 SA
ATOM     32  C21 <0> d          -5.432   6.942  -4.319  0.00  0.00     0.050 A 
ATOM     33  C20 <0> d          -6.078   6.857  -3.127  0.00  0.00     0.008 A 
ATOM     34  C19 <0> d          -5.374   6.485  -2.005  0.00  0.00     0.021 A 
ENDBRANCH   3  30
TORSDOF 6
