REMARK  6 active torsions:
REMARK  status: ('A' for Active; 'I' for Inactive)
REMARK    1  A    between atoms: C2_2  and  C3_3 
REMARK    2  A    between atoms: C2_2  and  C9_10 
REMARK    3  A    between atoms: C2_2  and  N1_13 
REMARK    4  A    between atoms: N1_13  and  C10_14 
REMARK    5  A    between atoms: C10_14  and  C11_15 
REMARK    6  A    between atoms: C11_15  and  S1_16 
ROOT
ATOM      1  C1  <0> d          -0.028   1.508  -0.140  0.00  0.00     0.064 C 
ATOM      2  C2  <0> d           0.012  -0.016  -0.005  0.00  0.00     0.237 C 
ENDROOT
BRANCH   2   3
ATOM      3  C3  <0> d           0.714  -0.389   1.275  0.00  0.00     0.005 A 
ATOM      4  C8  <0> d           0.178  -0.011   2.493  0.00  0.00     0.020 A 
ATOM      5  C7  <0> d           0.820  -0.357   3.668  0.00  0.00     0.020 A 
ATOM      6 Br1  <0> d          -1.435   0.974   2.551  0.00  0.00    -0.050 Br
ATOM      7  C6  <0> d           2.002  -1.073   3.624  0.00  0.00     0.001 A 
ATOM      8  C5  <0> d           2.539  -1.446   2.406  0.00  0.00     0.001 A 
ATOM      9  C4  <0> d           1.895  -1.104   1.232  0.00  0.00     0.011 A 
ENDBRANCH   2   3
BRANCH   2  10
ATOM     10  C9  <0> d          -1.395  -0.555   0.017  0.00  0.00     0.215 C 
ATOM     11  O1  <0> d          -1.591  -1.752  -0.110  0.00  0.00    -0.646 OA
ATOM     12  O2  <0> d          -2.337   0.205   0.162  0.00  0.00    -0.646 OA
ENDBRANCH   2  10
BRANCH   2  13
ATOM     13  N1  <0> d           0.738  -0.589  -1.147  0.00  0.00    -0.051 N 
ATOM     14  H8  <0> d           1.657  -0.178  -1.201  0.00  0.00     0.279 HD
ATOM     15  H16 <0> d           0.822  -1.587  -1.025  0.00  0.00     0.279 HD
BRANCH  13  16
ATOM     16  C10 <0> d           0.002  -0.308  -2.386  0.00  0.00     0.249 C 
BRANCH  16  17
ATOM     17  C11 <0> d           0.689  -1.012  -3.558  0.00  0.00     0.167 C 
BRANCH  17  18
ATOM     18  S1  <0> d          -0.220  -0.664  -5.089  0.00  0.00     0.142 S 
ATOM     19  O3  <0> d          -1.508  -1.257  -4.992  0.00  0.00    -0.228 OA
ATOM     20  O4  <0> d          -0.118   0.725  -5.367  0.00  0.00    -0.228 OA
ATOM     21  C12 <0> d           0.735  -1.571  -6.337  0.00  0.00     0.161 C 
ENDBRANCH  17  18
ENDBRANCH  16  17
ENDBRANCH  13  16
ENDBRANCH   2  13
TORSDOF 6
