REMARK  2 active torsions:
REMARK  status: ('A' for Active; 'I' for Inactive)
REMARK    1  A    between atoms: C7_8  and  N2_10 
REMARK       I    between atoms: N2_10  and  C8_11 
REMARK    2  A    between atoms: C8_11  and  C9_13 
ROOT
ATOM      1  C1  <0> d          -0.019   1.518   0.010  0.00  0.00     0.069 C 
ATOM      2  C2  <0> d           1.433   2.008  -0.001  0.00  0.00     0.237 C 
ATOM      3  N1  <0> d           2.176   1.370  -1.096  0.00  0.00    -0.070 N 
ATOM      4  C3  <0> d           2.424  -0.046  -0.766  0.00  0.00     0.279 C 
ATOM      5  C4  <0> d           1.127  -0.667  -0.353  0.00  0.00     0.018 A 
ATOM      6  C5  <0> d           0.002  -0.004   0.002  0.00  0.00    -0.018 A 
ATOM      7  C6  <0> d          -1.110  -0.864   0.352  0.00  0.00     0.086 A 
ATOM      8  C7  <0> d          -0.896  -2.232   0.287  0.00  0.00     0.098 A 
ATOM      9  S1  <0> d           0.701  -2.376  -0.214  0.00  0.00    -0.073 SA
ATOM     10  C13 <0> d          -2.376  -0.324   0.749  0.00  0.00     0.103 C 
ATOM     11  N3  <0> d          -3.380   0.104   1.063  0.00  0.00    -0.191 NA
ATOM     12  H6  <0> d           1.635   1.427  -1.946  0.00  0.00     0.277 HD
ATOM     13  H16 <0> d           3.057   1.844  -1.226  0.00  0.00     0.277 HD
ENDROOT
BRANCH   8  14
ATOM     14  N2  <0> d          -1.796  -3.251   0.571  0.00  0.00    -0.320 N 
ATOM     15  C8  <0> d          -1.415  -4.538   0.454  0.00  0.00     0.228 C 
ATOM     16  O1  <0> d          -0.287  -4.807   0.101  0.00  0.00    -0.273 OA
ATOM     17  H9  <0> d          -2.699  -3.035   0.854  0.00  0.00     0.169 HD
BRANCH  15  18
ATOM     18  C9  <0> d          -2.392  -5.644   0.762  0.00  0.00     0.104 C 
ATOM     19  C12 <0> d          -3.583  -5.600  -0.215  0.00  0.00     0.181 C 
ATOM     20  O2  <0> d          -3.555  -6.825  -0.972  0.00  0.00    -0.390 OA
ATOM     21  C11 <0> d          -2.901  -7.815  -0.150  0.00  0.00     0.168 C 
ATOM     22  C10 <0> d          -1.742  -7.026   0.512  0.00  0.00     0.042 C 
ENDBRANCH  15  18
ENDBRANCH   8  14
TORSDOF 2
