REMARK  4 active torsions:
REMARK  status: ('A' for Active; 'I' for Inactive)
REMARK    1  A    between atoms: C2_2  and  C3_3 
REMARK    2  A    between atoms: C4_6  and  N3_8 
REMARK       I    between atoms: N3_8  and  C5_9 
REMARK    3  A    between atoms: C5_9  and  C6_11 
REMARK    4  A    between atoms: C6_11  and  N4_12 
ROOT
ATOM      1  N4  <0> d          -8.474  -2.195   1.787  0.00  0.00    -0.293 N 
ATOM      2  C7  <0> d          -8.785  -3.222   0.956  0.00  0.00     0.106 A 
ATOM      3  N5  <0> d          -9.374  -4.299   1.403  0.00  0.00    -0.227 NA
ATOM      4  C8  <0> d          -9.696  -4.419   2.688  0.00  0.00     0.116 A 
ATOM      5  C9  <0> d          -9.419  -3.408   3.622  0.00  0.00     0.075 A 
ATOM      6  C10 <0> d          -8.768  -2.242   3.100  0.00  0.00     0.263 A 
ATOM      7  O2  <0> d          -8.486  -1.310   3.832  0.00  0.00    -0.267 OA
ATOM      8  C11 <0> d          -9.830  -3.679   4.999  0.00  0.00    -0.026 A 
ATOM      9  C12 <0> d         -10.431  -4.863   5.237  0.00  0.00    -0.008 A 
ATOM     10  S2  <0> d         -10.483  -5.676   3.662  0.00  0.00    -0.073 SA
ATOM     11  C13 <0> d         -10.941  -5.375   6.550  0.00  0.00     0.047 C 
ATOM     12  C14 <0> d         -10.348  -4.509   7.670  0.00  0.00     0.005 C 
ATOM     13  C15 <0> d         -10.524  -3.034   7.296  0.00  0.00     0.005 C 
ATOM     14  C16 <0> d          -9.600  -2.680   6.130  0.00  0.00     0.041 C 
ATOM     15  C17 <0> d          -8.441  -3.121  -0.508  0.00  0.00     0.091 C 
ENDROOT
BRANCH   1  16
ATOM     16  C6  <0> d          -7.809  -1.008   1.243  0.00  0.00     0.236 C 
BRANCH  16  17
ATOM     17  C5  <0> d          -8.846   0.016   0.858  0.00  0.00     0.242 C 
ATOM     18  N3  <0> d          -8.464   1.196   0.331  0.00  0.00    -0.303 N 
ATOM     19  H6  <0> d          -7.396   1.413   0.183  0.00  0.00     0.171 HD
ATOM     20  O1  <0> d         -10.024  -0.223   1.021  0.00  0.00    -0.271 OA
BRANCH  18  21
ATOM     21  C4  <0> d          -9.421   2.141  -0.025  0.00  0.00     0.196 A 
ATOM     22  N2  <0> d         -10.739   2.082   0.069  0.00  0.00    -0.123 NA
ATOM     23  N1  <0> d         -11.477   3.036  -0.303  0.00  0.00    -0.145 NA
ATOM     24  C3  <0> d         -10.951   4.137  -0.803  0.00  0.00     0.100 A 
ATOM     25  S1  <0> d          -9.213   3.721  -0.722  0.00  0.00    -0.033 SA
BRANCH  24  26
ATOM     26  C2  <0> d         -11.624   5.388  -1.307  0.00  0.00     0.064 C 
ATOM     27  C1  <0> d         -11.784   6.380  -0.154  0.00  0.00     0.012 C 
ENDBRANCH  24  26
ENDBRANCH  18  21
ENDBRANCH  16  17
ENDBRANCH   1  16
TORSDOF 4
