REMARK  2 active torsions:
REMARK  status: ('A' for Active; 'I' for Inactive)
REMARK       I    between atoms: N2_9  and  C7_10 
REMARK    1  A    between atoms: C7_10  and  C8_12 
REMARK    2  A    between atoms: C13_17  and  C14_18 
ROOT
ATOM      1  C8  <0> d           0.913  -1.958   3.098  0.00  0.00     0.046 A 
ATOM      2  C9  <0> d           2.204  -1.483   3.331  0.00  0.00     0.018 A 
ATOM      3  C10 <0> d           2.864  -1.825   4.493  0.00  0.00     0.001 A 
ATOM      4  C11 <0> d           2.254  -2.639   5.434  0.00  0.00     0.001 A 
ATOM      5  C12 <0> d           0.978  -3.118   5.222  0.00  0.00     0.016 A 
ATOM      6  C13 <0> d           0.291  -2.780   4.057  0.00  0.00     0.024 A 
ENDROOT
BRANCH   1   7
ATOM      7  C7  <0> d           0.201  -1.595   1.857  0.00  0.00     0.255 C 
ATOM      8  N2  <0> d           0.079  -0.300   1.504  0.00  0.00    -0.342 N 
ATOM      9  C2  <0> d          -0.525   0.022   0.213  0.00  0.00     0.101 C 
ATOM     10  C6  <0> d           0.555   0.726   2.428  0.00  0.00     0.136 C 
ATOM     11  C1  <0> d          -1.719   0.955   0.429  0.00  0.00     0.034 C 
ATOM     12  C3  <0> d           0.508   0.714  -0.682  0.00  0.00     0.147 C 
ATOM     13  N1  <0> d           0.571   2.137  -0.320  0.00  0.00    -0.359 N 
ATOM     14  C4  <0> d           1.134   2.523   0.829  0.00  0.00     0.219 C 
ATOM     15  H7  <0> d           0.200   2.802  -0.920  0.00  0.00     0.162 HD
ATOM     16  O1  <0> d           1.183   3.701   1.110  0.00  0.00    -0.274 OA
ATOM     17  C5  <0> d           1.710   1.500   1.782  0.00  0.00     0.122 C 
ATOM     18  O2  <0> d          -0.275  -2.465   1.153  0.00  0.00    -0.267 OA
ENDBRANCH   1   7
BRANCH   6  19
ATOM     19  C14 <0> d          -1.077  -3.286   3.828  0.00  0.00     0.118 A 
ATOM     20  N4  <0> d          -1.489  -4.578   3.985  0.00  0.00    -0.346 N 
ATOM     21  C16 <0> d          -2.820  -4.615   3.675  0.00  0.00     0.109 A 
ATOM     22  C17 <0> d          -0.661  -5.711   4.408  0.00  0.00     0.157 C 
ATOM     23  C15 <0> d          -3.180  -3.360   3.332  0.00  0.00     0.107 A 
ATOM     24  N3  <0> d          -2.107  -2.570   3.432  0.00  0.00    -0.350 N 
ATOM     25  H21 <0> d          -2.090  -1.619   3.243  0.00  0.00     0.166 HD
ENDBRANCH   6  19
TORSDOF 2
