REMARK  2 active torsions:
REMARK  status: ('A' for Active; 'I' for Inactive)
REMARK    1  A    between atoms: C4_4  and  N1_7 
REMARK    2  A    between atoms: C12_17  and  C13_18 
ROOT
ATOM      1  N1  <0> d           3.621  -0.650  -0.037  0.00  0.00    -0.218 N 
ATOM      2  C7  <0> d           3.782  -1.992  -0.051  0.00  0.00     0.278 A 
ATOM      3  O1  <0> d           2.889  -2.821  -0.053  0.00  0.00    -0.265 OA
ATOM      4  C8  <0> d           5.151  -2.258  -0.065  0.00  0.00     0.070 A 
ATOM      5  C9  <0> d           5.818  -1.059  -0.056  0.00  0.00     0.133 A 
ATOM      6  N2  <0> d           4.895  -0.059  -0.048  0.00  0.00    -0.275 N 
ATOM      7  H1  <0> d           5.084   0.892  -0.047  0.00  0.00     0.189 HD
ATOM      8  N3  <0> d           7.191  -1.003  -0.058  0.00  0.00    -0.344 N 
ATOM      9  C10 <0> d           7.899  -2.145   0.239  0.00  0.00     0.021 C 
ATOM     10  C11 <0> d           7.331  -3.367   0.239  0.00  0.00     0.024 C 
ATOM     11  C12 <0> d           5.868  -3.579  -0.088  0.00  0.00     0.103 C 
ATOM     12  C19 <0> d           8.086  -4.516   0.544  0.00  0.00     0.158 C 
ATOM     13  O2  <0> d           7.537  -5.600   0.560  0.00  0.00    -0.293 OA
ATOM     14  C20 <0> d           9.555  -4.433   0.849  0.00  0.00     0.084 C 
ATOM     15  C21 <0> d          10.142  -3.213   0.131  0.00  0.00     0.014 C 
ATOM     16  C22 <0> d           9.363  -1.974   0.575  0.00  0.00     0.058 C 
ATOM     17  H8  <0> d           7.652  -0.175  -0.265  0.00  0.00     0.167 HD
ENDROOT
BRANCH  11  18
ATOM     18  C13 <0> d           5.743  -4.194  -1.458  0.00  0.00    -0.006 A 
ATOM     19  C18 <0> d           5.134  -5.428  -1.611  0.00  0.00     0.123 A 
ATOM     20  C17 <0> d           5.016  -5.989  -2.871  0.00  0.00     0.043 A 
ATOM     21  F1  <0> d           4.650  -6.081  -0.532  0.00  0.00    -0.206 F 
ATOM     22  C16 <0> d           5.515  -5.322  -3.974  0.00  0.00     0.003 A 
ATOM     23  C15 <0> d           6.129  -4.093  -3.819  0.00  0.00     0.001 A 
ATOM     24  C14 <0> d           6.243  -3.529  -2.562  0.00  0.00     0.011 A 
ENDBRANCH  11  18
BRANCH   1  25
ATOM     25  C4  <0> d           2.400   0.031  -0.021  0.00  0.00     0.060 A 
ATOM     26  C3  <0> d           2.377   1.420  -0.013  0.00  0.00     0.031 A 
ATOM     27  C2  <0> d           1.170   2.089   0.002  0.00  0.00     0.002 A 
ATOM     28  C1  <0> d          -0.017   1.379   0.010  0.00  0.00     0.000 A 
ATOM     29  C6  <0> d           0.002  -0.004   0.002  0.00  0.00     0.002 A 
ATOM     30  C5  <0> d           1.206  -0.680  -0.013  0.00  0.00     0.031 A 
ENDBRANCH   1  25
TORSDOF 2
