REMARK  6 active torsions:
REMARK  status: ('A' for Active; 'I' for Inactive)
REMARK    1  A    between atoms: N1_5  and  C5_7 
REMARK    2  A    between atoms: C5_7  and  C6_8 
REMARK    3  A    between atoms: C6_8  and  C7_9 
REMARK    4  A    between atoms: C7_9  and  N3_10 
REMARK       I    between atoms: N3_10  and  C8_11 
REMARK    5  A    between atoms: C8_11  and  C9_13 
REMARK       I    between atoms: N4_15  and  C17_23 
REMARK    6  A    between atoms: C17_23  and  C18_25 
REMARK       I    between atoms: N6_28  and  C23_31 
ROOT
ATOM      1  C9  <0> d           4.596  -6.872   4.029  0.00  0.00     0.106 C 
ATOM      2  C10 <0> d           5.294  -7.365   2.742  0.00  0.00     0.140 C 
ATOM      3  N4  <0> d           6.189  -8.456   3.195  0.00  0.00    -0.350 N 
ATOM      4  C11 <0> d           5.400  -9.177   4.222  0.00  0.00     0.136 C 
ATOM      5  C12 <0> d           4.667  -8.065   4.998  0.00  0.00    -0.007 C 
ATOM      6  C13 <0> d           3.262  -8.523   5.375  0.00  0.00     0.039 C 
ATOM      7  C14 <0> d           3.358  -9.671   6.384  0.00  0.00     0.233 C 
ATOM      8  N5  <0> d           4.083  -9.217   7.577  0.00  0.00    -0.075 N 
ATOM      9  C15 <0> d           5.463  -8.866   7.221  0.00  0.00     0.233 C 
ATOM     10  C16 <0> d           5.456  -7.684   6.247  0.00  0.00     0.039 C 
ATOM     11  C17 <0> d           7.438  -8.729   2.769  0.00  0.00     0.224 C 
ATOM     12  O2  <0> d           8.047  -9.666   3.241  0.00  0.00    -0.273 OA
ATOM     13  H21 <0> d           3.620  -8.408   7.963  0.00  0.00     0.277 HD
ATOM     14  H41 <0> d           4.093  -9.956   8.265  0.00  0.00     0.277 HD
ENDROOT
BRANCH   1  15
ATOM     15  C8  <0> d           3.160  -6.513   3.744  0.00  0.00     0.224 C 
ATOM     16  N3  <0> d           2.493  -5.690   4.577  0.00  0.00    -0.361 N 
ATOM     17  H12 <0> d           2.937  -5.329   5.361  0.00  0.00     0.162 HD
ATOM     18  O1  <0> d           2.606  -6.964   2.764  0.00  0.00    -0.273 OA
BRANCH  16  19
ATOM     19  C7  <0> d           1.098  -5.341   4.299  0.00  0.00     0.124 C 
BRANCH  19  20
ATOM     20  C6  <0> d           0.580  -4.401   5.390  0.00  0.00     0.041 C 
BRANCH  20  21
ATOM     21  C5  <0> d          -0.877  -4.037   5.100  0.00  0.00     0.152 C 
BRANCH  21  22
ATOM     22  N1  <0> d          -1.372  -3.137   6.145  0.00  0.00    -0.274 N 
ATOM     23  C4  <0> d          -1.309  -1.789   6.127  0.00  0.00     0.028 A 
ATOM     24  C3  <0> d          -1.873  -1.334   7.270  0.00  0.00     0.055 A 
ATOM     25  C25 <0> d          -0.718  -0.941   5.030  0.00  0.00     0.070 C 
ATOM     26  C2  <0> d          -2.294  -2.442   8.012  0.00  0.00     0.053 A 
ATOM     27  C1  <0> d          -2.975  -2.399   9.356  0.00  0.00     0.072 C 
ATOM     28  N2  <0> d          -1.990  -3.524   7.341  0.00  0.00    -0.177 NA
ENDBRANCH  21  22
ENDBRANCH  20  21
ENDBRANCH  19  20
ENDBRANCH  16  19
ENDBRANCH   1  15
BRANCH  11  29
ATOM     29  C18 <0> d           8.077  -7.872   1.707  0.00  0.00     0.081 C 
ATOM     30  C22 <0> d           9.484  -8.395   1.409  0.00  0.00     0.034 C 
ATOM     31  C21 <0> d          10.144  -7.501   0.354  0.00  0.00     0.126 C 
ATOM     32  N6  <0> d           9.265  -7.429  -0.821  0.00  0.00    -0.352 N 
ATOM     33  C20 <0> d           7.865  -7.025  -0.633  0.00  0.00     0.126 C 
ATOM     34  C23 <0> d           9.734  -7.729  -2.048  0.00  0.00     0.215 C 
ATOM     35  C19 <0> d           7.231  -7.924   0.433  0.00  0.00     0.034 C 
ATOM     36  O3  <0> d          10.860  -8.160  -2.179  0.00  0.00    -0.274 OA
ATOM     37  C24 <0> d           8.860  -7.528  -3.259  0.00  0.00     0.117 C 
ENDBRANCH  11  29
TORSDOF 6
