REMARK  7 active torsions:
REMARK  status: ('A' for Active; 'I' for Inactive)
REMARK    1  A    between atoms: C2_2  and  C3_3 
REMARK    2  A    between atoms: C3_3  and  C4_4 
REMARK    3  A    between atoms: C4_4  and  C5_5 
REMARK    4  A    between atoms: C5_5  and  N1_6 
REMARK    5  A    between atoms: C6_7  and  N2_8 
REMARK    6  A    between atoms: C7_9  and  C18_23 
REMARK       I    between atoms: C18_23  and  N5_25 
REMARK    7  A    between atoms: N5_25  and  C19_26 
ROOT
ATOM      1  N1  <0> d          -2.628  -3.991   0.052  0.00  0.00    -0.316 N 
ATOM      2  C6  <0> d          -3.128  -4.510  -1.053  0.00  0.00     0.118 A 
ATOM      3  C7  <0> d          -3.462  -5.880  -1.136  0.00  0.00     0.077 A 
ATOM      4  C8  <0> d          -3.259  -6.700  -0.024  0.00  0.00     0.042 A 
ATOM      5  C9  <0> d          -2.729  -6.121   1.127  0.00  0.00     0.080 A 
ATOM      6  C10 <0> d          -2.411  -4.736   1.139  0.00  0.00     0.149 A 
ATOM      7  N3  <0> d          -1.899  -4.200   2.251  0.00  0.00    -0.211 NA
ATOM      8  C11 <0> d          -1.674  -4.920   3.345  0.00  0.00     0.145 A 
ATOM      9  C12 <0> d          -1.131  -4.274   4.476  0.00  0.00    -0.015 A 
ATOM     10  C13 <0> d          -0.891  -4.989   5.609  0.00  0.00     0.012 A 
ATOM     11  C14 <0> d          -1.186  -6.361   5.639  0.00  0.00     0.018 A 
ATOM     12  C15 <0> d          -1.705  -6.966   4.549  0.00  0.00     0.102 A 
ATOM     13  N4  <0> d          -1.951  -6.260   3.408  0.00  0.00    -0.272 N 
ATOM     14  C16 <0> d          -2.482  -6.901   2.340  0.00  0.00     0.267 A 
ATOM     15  O1  <0> d          -2.732  -8.092   2.384  0.00  0.00    -0.267 OA
ATOM     16  C17 <0> d          -0.818  -2.801   4.430  0.00  0.00     0.052 C 
ENDROOT
BRANCH   3  17
ATOM     17  C18 <0> d          -4.019  -6.437  -2.379  0.00  0.00     0.260 C 
ATOM     18  O2  <0> d          -4.106  -5.740  -3.372  0.00  0.00    -0.267 OA
ATOM     19  N5  <0> d          -4.434  -7.719  -2.417  0.00  0.00    -0.323 N 
ATOM     20  H20 <0> d          -4.436  -8.252  -1.607  0.00  0.00     0.169 HD
BRANCH  19  21
ATOM     21  C19 <0> d          -4.861  -8.280  -3.625  0.00  0.00     0.035 A 
ATOM     22  C24 <0> d          -5.867  -9.237  -3.630  0.00  0.00     0.032 A 
ATOM     23  C23 <0> d          -6.291  -9.786  -4.824  0.00  0.00     0.044 A 
ATOM     24  C22 <0> d          -5.706  -9.391  -6.016  0.00  0.00     0.116 A 
ATOM     25  C21 <0> d          -4.698  -8.442  -6.013  0.00  0.00     0.044 A 
ATOM     26  F1  <0> d          -6.118  -9.933  -7.182  0.00  0.00    -0.206 F 
ATOM     27  C20 <0> d          -4.275  -7.886  -4.821  0.00  0.00     0.032 A 
ENDBRANCH  19  21
ENDBRANCH   3  17
BRANCH   2  28
ATOM     28  N2  <0> d          -3.328  -3.698  -2.150  0.00  0.00    -0.384 N 
ATOM     29  H12 <0> d          -3.536  -2.759  -2.027  0.00  0.00     0.157 HD
ATOM     30  H25 <0> d          -3.260  -4.067  -3.045  0.00  0.00     0.157 HD
ENDBRANCH   2  28
BRANCH   1  31
ATOM     31  C5  <0> d          -2.297  -2.564   0.086  0.00  0.00     0.132 C 
BRANCH  31  32
ATOM     32  C4  <0> d          -0.851  -2.365  -0.372  0.00  0.00     0.020 C 
BRANCH  32  33
ATOM     33  C3  <0> d          -0.505  -0.875  -0.337  0.00  0.00     0.001 C 
BRANCH  33  34
ATOM     34  C2  <0> d           0.941  -0.676  -0.794  0.00  0.00    -0.004 C 
ATOM     35  C1  <0> d           1.286   0.814  -0.759  0.00  0.00     0.005 C 
ENDBRANCH  33  34
ENDBRANCH  32  33
ENDBRANCH  31  32
ENDBRANCH   1  31
TORSDOF 7
