REMARK  3 active torsions:
REMARK  status: ('A' for Active; 'I' for Inactive)
REMARK    1  A    between atoms: C9_13  and  S1_14 
REMARK    2  A    between atoms: S1_14  and  N3_17 
REMARK    3  A    between atoms: N3_17  and  C10_18 
ROOT
ATOM      1  C1  <0> d          -0.426   1.497  -0.008  0.00  0.00     0.050 C 
ATOM      2  C2  <0> d          -0.295  -0.004  -0.046  0.00  0.00    -0.036 A 
ATOM      3  C3  <0> d          -0.473  -0.648  -1.221  0.00  0.00     0.040 A 
ATOM      4  C4  <0> d          -0.353  -2.062  -1.270  0.00  0.00     0.062 A 
ATOM      5  N1  <0> d          -0.521  -2.716  -2.400  0.00  0.00    -0.317 N 
ATOM      6  C5  <0> d          -0.401  -4.059  -2.423  0.00  0.00     0.314 A 
ATOM      7  O1  <0> d          -0.554  -4.669  -3.462  0.00  0.00    -0.262 OA
ATOM      8  C6  <0> d          -0.077  -4.792  -1.160  0.00  0.00     0.314 A 
ATOM      9  O2  <0> d           0.034  -6.001  -1.166  0.00  0.00    -0.262 OA
ATOM     10  N2  <0> d           0.091  -4.100  -0.014  0.00  0.00    -0.317 N 
ATOM     11  C7  <0> d          -0.031  -2.790  -0.016  0.00  0.00     0.063 A 
ATOM     12  C8  <0> d           0.141  -2.039   1.177  0.00  0.00     0.057 A 
ATOM     13  C9  <0> d           0.015  -0.694   1.143  0.00  0.00     0.088 A 
ATOM     14  H11 <0> d           0.301  -4.568   0.810  0.00  0.00     0.169 HD
ATOM     15  H12 <0> d          -0.731  -2.233  -3.215  0.00  0.00     0.169 HD
ENDROOT
BRANCH  13  16
ATOM     16  S1  <0> d           0.239   0.224   2.631  0.00  0.00     0.263 S 
ATOM     17  O3  <0> d           0.492  -0.724   3.658  0.00  0.00    -0.200 OA
ATOM     18  O4  <0> d           1.142   1.278   2.326  0.00  0.00    -0.200 OA
BRANCH  16  19
ATOM     19  N3  <0> d          -1.213   0.935   2.990  0.00  0.00    -0.281 N 
ATOM     20  H6  <0> d          -1.304   1.899   2.949  0.00  0.00     0.179 HD
BRANCH  19  21
ATOM     21  C10 <0> d          -2.307   0.144   3.353  0.00  0.00     0.042 A 
ATOM     22  C15 <0> d          -3.081   0.491   4.454  0.00  0.00     0.032 A 
ATOM     23  C14 <0> d          -4.165  -0.289   4.807  0.00  0.00     0.026 A 
ATOM     24  C13 <0> d          -4.473  -1.421   4.073  0.00  0.00     0.034 A 
ATOM     25  C12 <0> d          -3.700  -1.772   2.980  0.00  0.00     0.026 A 
ATOM     26 Cl1  <0> d          -5.832  -2.402   4.524  0.00  0.00    -0.084 Cl
ATOM     27  C11 <0> d          -2.619  -0.992   2.619  0.00  0.00     0.032 A 
ENDBRANCH  19  21
ENDBRANCH  16  19
ENDBRANCH  13  16
TORSDOF 3
