REMARK  2 active torsions:
REMARK  status: ('A' for Active; 'I' for Inactive)
REMARK    1  A    between atoms: C2_2  and  C10_14 
REMARK       I    between atoms: C10_14  and  N2_16 
REMARK    2  A    between atoms: N2_16  and  C11_17 
ROOT
ATOM      1  C10 <0> d           0.557  -0.839  -1.275  0.00  0.00     0.262 C 
ATOM      2  O3  <0> d          -0.093  -1.209  -2.230  0.00  0.00    -0.270 OA
ATOM      3  N2  <0> d           1.903  -0.898  -1.314  0.00  0.00    -0.353 N 
ATOM      4  H8  <0> d           2.424  -0.602  -0.550  0.00  0.00     0.163 HD
ENDROOT
BRANCH   1   5
ATOM      5  C2  <0> d          -0.139  -0.315  -0.046  0.00  0.00     0.224 C 
ATOM      6  C1  <0> d          -0.221   1.211  -0.119  0.00  0.00     0.068 C 
ATOM      7  O2  <0> d           0.598  -0.696   1.117  0.00  0.00    -0.319 OA
ATOM      8  C9  <0> d           0.511  -1.998   1.504  0.00  0.00     0.098 A 
ATOM      9  C4  <0> d          -0.667  -2.707   1.280  0.00  0.00     0.070 A 
ATOM     10  C8  <0> d           1.578  -2.614   2.135  0.00  0.00     0.041 A 
ATOM     11  N1  <0> d          -1.735  -2.082   0.622  0.00  0.00    -0.322 N 
ATOM     12  C5  <0> d          -0.774  -4.022   1.704  0.00  0.00     0.056 A 
ATOM     13  C3  <0> d          -1.532  -0.889   0.024  0.00  0.00     0.267 C 
ATOM     14  H4  <0> d          -2.609  -2.501   0.597  0.00  0.00     0.169 HD
ATOM     15  O1  <0> d          -2.466  -0.281  -0.456  0.00  0.00    -0.269 OA
ATOM     16  C6  <0> d           0.294  -4.630   2.340  0.00  0.00     0.036 A 
ATOM     17  C7  <0> d           1.468  -3.928   2.552  0.00  0.00     0.026 A 
ATOM     18 Cl1  <0> d           0.161  -6.276   2.873  0.00  0.00    -0.084 Cl
ENDBRANCH   1   5
BRANCH   3  19
ATOM     19  C11 <0> d           2.582  -1.409  -2.511  0.00  0.00     0.089 C 
ATOM     20  C15 <0> d           3.992  -0.823  -2.580  0.00  0.00     0.063 C 
ATOM     21  C14 <0> d           4.752  -1.382  -3.778  0.00  0.00     0.121 C 
ATOM     22  N3  <0> d           4.701  -2.832  -3.864  0.00  0.00    -0.059 N 
ATOM     23  C16 <0> d           4.256  -0.720  -5.066  0.00  0.00     0.046 C 
ATOM     24  C17 <0> d           6.237  -0.979  -3.608  0.00  0.00     0.046 C 
ATOM     25  C13 <0> d           3.415  -3.478  -3.646  0.00  0.00     0.121 C 
ATOM     26  H12 <0> d           5.372  -3.218  -3.195  0.00  0.00     0.279 HD
ATOM     27  H27 <0> d           5.049  -3.113  -4.784  0.00  0.00     0.279 HD
ATOM     28  C12 <0> d           2.699  -2.931  -2.411  0.00  0.00     0.063 C 
ATOM     29  C18 <0> d           3.683  -4.979  -3.393  0.00  0.00     0.046 C 
ATOM     30  C19 <0> d           2.506  -3.380  -4.871  0.00  0.00     0.046 C 
ENDBRANCH   3  19
TORSDOF 2
