REMARK  7 active torsions:
REMARK  status: ('A' for Active; 'I' for Inactive)
REMARK    1  A    between atoms: C3_4  and  C5_7 
REMARK    2  A    between atoms: C5_7  and  N2_8 
REMARK    3  A    between atoms: N2_8  and  C7_10 
REMARK    4  A    between atoms: C7_10  and  C8_11 
REMARK    5  A    between atoms: C13_16  and  C14_17 
REMARK    6  A    between atoms: C15_18  and  C16_19 
REMARK    7  A    between atoms: C16_19  and  O1_20 
ROOT
ATOM      1  C8  <0> d          -3.967  -4.576   2.804  0.00  0.00    -0.014 A 
ATOM      2  C9  <0> d          -5.219  -4.158   3.206  0.00  0.00     0.010 A 
ATOM      3  C10 <0> d          -5.640  -4.375   4.505  0.00  0.00     0.001 A 
ATOM      4  C11 <0> d          -4.809  -5.012   5.411  0.00  0.00     0.002 A 
ATOM      5  C12 <0> d          -3.555  -5.434   5.022  0.00  0.00     0.021 A 
ATOM      6  C13 <0> d          -3.126  -5.223   3.711  0.00  0.00     0.025 A 
ENDROOT
BRANCH   1   7
ATOM      7  C7  <0> d          -3.510  -4.339   1.388  0.00  0.00     0.274 C 
BRANCH   7   8
ATOM      8  N2  <0> d          -2.537  -3.239   1.365  0.00  0.00    -0.066 N 
ATOM      9  C6  <0> d          -3.201  -1.989   1.759  0.00  0.00     0.270 C 
ATOM     10  H19 <0> d          -1.787  -3.439   2.010  0.00  0.00     0.280 HD
BRANCH   8  11
ATOM     11  C5  <0> d          -1.990  -3.096   0.008  0.00  0.00     0.294 C 
BRANCH  11  12
ATOM     12  C3  <0> d          -0.904  -2.051   0.011  0.00  0.00     0.067 A 
ATOM     13  N1  <0> d          -1.182  -0.769  -0.114  0.00  0.00    -0.249 NA
ATOM     14  C2  <0> d          -0.235   0.137  -0.111  0.00  0.00     0.071 A 
ATOM     15  C1  <0> d          -0.370   1.632  -0.241  0.00  0.00     0.078 C 
ATOM     16  S1  <0> d           1.168  -0.776   0.068  0.00  0.00    -0.085 SA
ATOM     17  C4  <0> d           0.404  -2.388   0.144  0.00  0.00     0.080 A 
ENDBRANCH  11  12
ENDBRANCH   8  11
ENDBRANCH   7   8
ENDBRANCH   1   7
BRANCH   6  18
ATOM     18  C14 <0> d          -1.828  -5.664   3.299  0.00  0.00    -0.064 C 
ATOM     19  C15 <0> d          -0.763  -6.026   2.961  0.00  0.00    -0.075 C 
BRANCH  19  20
ATOM     20  C16 <0> d           0.572  -6.479   2.537  0.00  0.00     0.258 C 
BRANCH  20  21
ATOM     21  O1  <0> d           1.232  -7.108   3.638  0.00  0.00    -0.389 OA
ATOM     22  H18 <0> d           2.120  -7.432   3.430  0.00  0.00     0.210 HD
ENDBRANCH  20  21
ENDBRANCH  19  20
ENDBRANCH   6  18
TORSDOF 7
