REMARK  4 active torsions:
REMARK  status: ('A' for Active; 'I' for Inactive)
REMARK    1  A    between atoms: C5_5  and  N1_8 
REMARK    2  A    between atoms: C10_12  and  S1_13 
REMARK    3  A    between atoms: S1_13  and  C11_14 
REMARK    4  A    between atoms: C11_14  and  C12_15 
REMARK       I    between atoms: C12_15  and  N3_17 
ROOT
ATOM      1  N1  <0> d           0.058  -4.172  -0.021  0.00  0.00    -0.300 N 
ATOM      2  C8  <0> d          -0.779  -5.000  -0.738  0.00  0.00     0.118 A 
ATOM      3  C9  <0> d          -0.417  -6.263  -0.455  0.00  0.00     0.137 A 
ATOM      4  N2  <0> d           0.611  -6.227   0.409  0.00  0.00    -0.235 NA
ATOM      5  C10 <0> d           0.912  -4.977   0.675  0.00  0.00     0.173 A 
ENDROOT
BRANCH   1   6
ATOM      6  C5  <0> d           0.040  -2.771  -0.013  0.00  0.00     0.041 A 
ATOM      7  C4  <0> d           0.024  -2.068  -1.211  0.00  0.00     0.030 A 
ATOM      8  C3  <0> d           0.006  -0.688  -1.200  0.00  0.00     0.009 A 
ATOM      9  C2  <0> d           0.002  -0.004   0.002  0.00  0.00    -0.062 A 
ATOM     10  C1  <0> d          -0.018   1.503   0.010  0.00  0.00     0.048 C 
ATOM     11  C7  <0> d           0.023  -0.700   1.196  0.00  0.00     0.009 A 
ATOM     12  C6  <0> d           0.036  -2.082   1.192  0.00  0.00     0.030 A 
ENDBRANCH   1   6
BRANCH   5  13
ATOM     13  S1  <0> d           2.197  -4.432   1.750  0.00  0.00    -0.082 SA
BRANCH  13  14
ATOM     14  C11 <0> d           2.949  -5.970   2.350  0.00  0.00     0.184 C 
BRANCH  14  15
ATOM     15  C12 <0> d           4.078  -5.642   3.293  0.00  0.00     0.225 C 
ATOM     16  O1  <0> d           4.349  -4.485   3.536  0.00  0.00    -0.273 OA
ATOM     17  N3  <0> d           4.787  -6.635   3.866  0.00  0.00    -0.369 N 
ATOM     18  H12 <0> d           4.571  -7.560   3.671  0.00  0.00     0.159 HD
ATOM     19  H13 <0> d           5.514  -6.424   4.473  0.00  0.00     0.159 HD
ENDBRANCH  14  15
ENDBRANCH  13  14
ENDBRANCH   5  13
TORSDOF 4
