REMARK  6 active torsions:
REMARK  status: ('A' for Active; 'I' for Inactive)
REMARK    1  A    between atoms: C2_2  and  N1_3 
REMARK    2  A    between atoms: N1_3  and  C3_4 
REMARK    3  A    between atoms: N1_3  and  C9_11 
REMARK    4  A    between atoms: C3_4  and  C4_5 
REMARK    5  A    between atoms: C9_11  and  C10_12 
REMARK    6  A    between atoms: C11_14  and  N5_21 
ROOT
ATOM      1  C10 <0> d           2.565  -0.436  -2.666  0.00  0.00     0.155 A 
ATOM      2  N3  <0> d           3.119  -1.605  -2.932  0.00  0.00    -0.214 NA
ATOM      3  C11 <0> d           3.616  -1.894  -4.123  0.00  0.00     0.136 A 
ATOM      4  C12 <0> d           3.554  -0.918  -5.156  0.00  0.00     0.046 A 
ATOM      5  C13 <0> d           4.021  -0.988  -6.529  0.00  0.00     0.025 A 
ATOM      6  C14 <0> d           3.853   0.073  -7.333  0.00  0.00     0.053 A 
ATOM      7  S1  <0> d           3.040   1.264  -6.285  0.00  0.00    -0.081 SA
ATOM      8  C15 <0> d           2.949   0.306  -4.796  0.00  0.00     0.113 A 
ATOM      9  N4  <0> d           2.474   0.507  -3.583  0.00  0.00    -0.224 NA
ENDROOT
BRANCH   1  10
ATOM     10  C9  <0> d           2.019  -0.176  -1.285  0.00  0.00     0.315 C 
BRANCH  10  11
ATOM     11  N1  <0> d           0.578  -0.460  -1.266  0.00  0.00    -0.061 N 
ATOM     12  H18 <0> d           0.121   0.069  -1.994  0.00  0.00     0.280 HD
BRANCH  11  13
ATOM     13  C2  <0> d           0.021  -0.081   0.039  0.00  0.00     0.231 C 
ATOM     14  C1  <0> d           0.121   1.436   0.214  0.00  0.00     0.034 C 
ENDBRANCH  11  13
BRANCH  11  15
ATOM     15  C3  <0> d           0.359  -1.895  -1.494  0.00  0.00     0.274 C 
BRANCH  15  16
ATOM     16  C4  <0> d          -1.119  -2.167  -1.597  0.00  0.00    -0.030 A 
ATOM     17  C8  <0> d          -1.766  -2.117  -2.822  0.00  0.00     0.028 A 
ATOM     18  C7  <0> d          -3.122  -2.378  -2.879  0.00  0.00     0.116 A 
ATOM     19  N2  <0> d          -3.801  -2.662  -1.785  0.00  0.00    -0.273 NA
ATOM     20  C6  <0> d          -3.220  -2.713  -0.602  0.00  0.00     0.116 A 
ATOM     21  C5  <0> d          -1.866  -2.469  -0.468  0.00  0.00     0.028 A 
ENDBRANCH  15  16
ENDBRANCH  11  15
ENDBRANCH  10  11
ENDBRANCH   1  10
BRANCH   3  22
ATOM     22  N5  <0> d           4.188  -3.131  -4.362  0.00  0.00    -0.383 N 
ATOM     23  H16 <0> d           4.227  -3.792  -3.654  0.00  0.00     0.157 HD
ATOM     24  H17 <0> d           4.550  -3.336  -5.238  0.00  0.00     0.157 HD
ENDBRANCH   3  22
TORSDOF 6
