REMARK  6 active torsions:
REMARK  status: ('A' for Active; 'I' for Inactive)
REMARK    1  A    between atoms: N1_2  and  C2_3 
REMARK    2  A    between atoms: N1_2  and  C8_10 
REMARK    3  A    between atoms: C5_6  and  O1_9 
REMARK    4  A    between atoms: C8_10  and  C9_11 
REMARK    5  A    between atoms: C8_10  and  C10_13 
REMARK    6  A    between atoms: C9_11  and  N2_12 
ROOT
ATOM      1  C8  <0> d          -1.327   2.102   0.034  0.00  0.00     0.142 C 
ENDROOT
BRANCH   1   2
ATOM      2  N1  <0> d          -1.277   3.199   1.002  0.00  0.00    -0.375 N 
ATOM      3  C1  <0> d          -1.481   4.580   0.556  0.00  0.00     0.150 C 
BRANCH   2   4
ATOM      4  C2  <0> d          -1.034   2.929   2.354  0.00  0.00     0.030 A 
ATOM      5  C7  <0> d          -0.873   3.975   3.253  0.00  0.00     0.032 A 
ATOM      6  C6  <0> d          -0.633   3.708   4.587  0.00  0.00     0.039 A 
ATOM      7  C5  <0> d          -0.552   2.396   5.027  0.00  0.00     0.065 A 
ATOM      8  C4  <0> d          -0.713   1.350   4.130  0.00  0.00     0.039 A 
ATOM      9  C3  <0> d          -0.958   1.616   2.797  0.00  0.00     0.032 A 
BRANCH   7  10
ATOM     10  O1  <0> d          -0.316   2.133   6.341  0.00  0.00    -0.361 OA
ATOM     11  H9  <0> d          -0.188   2.962   7.053  0.00  0.00     0.217 HD
ENDBRANCH   7  10
ENDBRANCH   2   4
ENDBRANCH   1   2
BRANCH   1  12
ATOM     12  C9  <0> d          -1.777   2.641  -1.326  0.00  0.00     0.259 C 
BRANCH  12  13
ATOM     13  N2  <0> d          -3.057   3.347  -1.173  0.00  0.00    -0.077 N 
ATOM     14  H12 <0> d          -3.380   3.735  -2.150  0.00  0.00     0.274 HD
ATOM     15  H13 <0> d          -2.932   4.184  -0.470  0.00  0.00     0.274 HD
ATOM     16  H18 <0> d          -3.815   2.652  -0.785  0.00  0.00     0.274 HD
ENDBRANCH  12  13
ENDBRANCH   1  12
BRANCH   1  17
ATOM     17  C10 <0> d           0.041   1.485  -0.099  0.00  0.00    -0.033 A 
ATOM     18  C15 <0> d           1.155   2.294  -0.218  0.00  0.00     0.028 A 
ATOM     19  C14 <0> d           2.411   1.728  -0.346  0.00  0.00     0.011 A 
ATOM     20  C13 <0> d           2.551   0.352  -0.354  0.00  0.00     0.019 A 
ATOM     21 Br1  <0> d           3.935   2.834  -0.510  0.00  0.00    -0.051 Br
ATOM     22  C12 <0> d           1.436  -0.457  -0.234  0.00  0.00     0.002 A 
ATOM     23  C11 <0> d           0.182   0.109  -0.106  0.00  0.00     0.009 A 
ENDBRANCH   1  17
TORSDOF 6
