REMARK  5 active torsions:
REMARK  status: ('A' for Active; 'I' for Inactive)
REMARK       I    between atoms: N1_2  and  C2_3 
REMARK    1  A    between atoms: C2_3  and  C3_5 
REMARK    2  A    between atoms: C3_5  and  C4_6 
REMARK    3  A    between atoms: C6_9  and  N3_11 
REMARK       I    between atoms: N3_11  and  C7_12 
REMARK    4  A    between atoms: C7_12  and  C8_14 
REMARK    5  A    between atoms: C8_14  and  N4_15 
ROOT
ATOM      1  N3  <0> d          -5.669  -2.536   1.841  0.00  0.00    -0.304 N 
ATOM      2  C7  <0> d          -6.879  -3.108   1.681  0.00  0.00     0.241 C 
ATOM      3  O2  <0> d          -7.074  -3.867   0.756  0.00  0.00    -0.271 OA
ATOM      4  H8  <0> d          -5.513  -1.929   2.580  0.00  0.00     0.171 HD
ENDROOT
BRANCH   1   5
ATOM      5  C6  <0> d          -4.644  -2.817   0.944  0.00  0.00     0.173 A 
ATOM      6  S1  <0> d          -4.679  -3.827  -0.401  0.00  0.00    -0.062 SA
ATOM      7  C5  <0> d          -2.991  -3.588  -0.933  0.00  0.00     0.081 A 
ATOM      8  C4  <0> d          -2.549  -2.722   0.012  0.00  0.00     0.052 A 
ATOM      9  N2  <0> d          -3.410  -2.360   0.945  0.00  0.00    -0.228 NA
BRANCH   8  10
ATOM     10  C3  <0> d          -1.135  -2.201   0.001  0.00  0.00     0.162 C 
BRANCH  10  11
ATOM     11  C2  <0> d          -1.156  -0.694   0.009  0.00  0.00     0.222 C 
ATOM     12  N1  <0> d           0.002  -0.004   0.002  0.00  0.00    -0.365 N 
ATOM     13  C1  <0> d          -0.018   1.461   0.010  0.00  0.00     0.149 C 
ATOM     14  H4  <0> d           0.849  -0.478  -0.009  0.00  0.00     0.161 HD
ATOM     15  O1  <0> d          -2.214  -0.102   0.023  0.00  0.00    -0.273 OA
ENDBRANCH  10  11
ENDBRANCH   8  10
ENDBRANCH   1   5
BRANCH   2  16
ATOM     16  C8  <0> d          -7.990  -2.804   2.653  0.00  0.00     0.231 C 
BRANCH  16  17
ATOM     17  N4  <0> d          -9.194  -3.543   2.265  0.00  0.00    -0.347 N 
ATOM     18  C12 <0> d          -9.472  -4.844   2.620  0.00  0.00     0.044 A 
ATOM     19  C11 <0> d         -10.717  -5.172   2.052  0.00  0.00    -0.008 A 
ATOM     20  C13 <0> d          -8.796  -5.796   3.376  0.00  0.00     0.030 A 
ATOM     21  C10 <0> d         -11.157  -3.979   1.325  0.00  0.00     0.031 A 
ATOM     22  C16 <0> d         -11.260  -6.442   2.252  0.00  0.00     0.014 A 
ATOM     23  C9  <0> d         -10.207  -3.045   1.491  0.00  0.00     0.092 A 
ATOM     24  C15 <0> d         -10.575  -7.365   2.991  0.00  0.00     0.001 A 
ATOM     25  C14 <0> d          -9.348  -7.045   3.556  0.00  0.00     0.002 A 
ENDBRANCH  16  17
ENDBRANCH   2  16
TORSDOF 5
