REMARK  4 active torsions:
REMARK  status: ('A' for Active; 'I' for Inactive)
REMARK    1  A    between atoms: C4_5  and  C5_7 
REMARK    2  A    between atoms: C5_7  and  O1_8 
REMARK    3  A    between atoms: O1_8  and  C6_9 
REMARK    4  A    between atoms: C14_18  and  N2_19 
ROOT
ATOM      1  C6  <0> d           1.609  -5.710   1.504  0.00  0.00     0.071 A 
ATOM      2  C7  <0> d           0.521  -6.524   1.786  0.00  0.00     0.037 A 
ATOM      3  C8  <0> d           0.724  -7.811   2.242  0.00  0.00     0.015 A 
ATOM      4  C9  <0> d           2.010  -8.296   2.421  0.00  0.00     0.006 A 
ATOM      5  C10 <0> d           3.098  -7.489   2.139  0.00  0.00     0.081 A 
ATOM      6  C11 <0> d           2.895  -6.194   1.676  0.00  0.00     0.074 A 
ATOM      7  O2  <0> d           4.374  -7.930   2.289  0.00  0.00    -0.340 OA
ATOM      8  C12 <0> d           4.589  -9.093   3.090  0.00  0.00     0.063 C 
ATOM      9  C13 <0> d           3.612 -10.183   2.632  0.00  0.00     0.075 C 
ATOM     10  C14 <0> d           2.188  -9.706   2.926  0.00  0.00     0.222 C 
ATOM     11  C15 <0> d           4.336  -8.759   4.561  0.00  0.00     0.046 C 
ATOM     12  C16 <0> d           6.028  -9.583   2.912  0.00  0.00     0.046 C 
ENDROOT
BRANCH   1  13
ATOM     13  O1  <0> d           1.413  -4.442   1.056  0.00  0.00    -0.346 OA
BRANCH  13  14
ATOM     14  C5  <0> d           0.059  -4.011   0.902  0.00  0.00     0.223 C 
BRANCH  14  15
ATOM     15  C4  <0> d           0.039  -2.590   0.400  0.00  0.00     0.026 A 
ATOM     16  C3  <0> d           0.027  -2.121  -0.874  0.00  0.00     0.134 A 
ATOM     17  N1  <0> d           0.009  -0.812  -1.029  0.00  0.00    -0.257 NA
ATOM     18  C2  <0> d           0.002  -0.004   0.002  0.00  0.00     0.071 A 
ATOM     19  C1  <0> d          -0.018   1.503   0.010  0.00  0.00     0.078 C 
ATOM     20  S1  <0> d           0.029  -1.057   1.315  0.00  0.00    -0.076 SA
ENDBRANCH  14  15
ENDBRANCH  13  14
ENDBRANCH   1  13
BRANCH  10  21
ATOM     21  N2  <0> d           1.227 -10.591   2.254  0.00  0.00    -0.071 N 
ATOM     22  H13 <0> d           1.388 -10.568   1.258  0.00  0.00     0.275 HD
ATOM     23  H14 <0> d           1.345 -11.534   2.592  0.00  0.00     0.275 HD
ATOM     24  H21 <0> d           0.288 -10.279   2.450  0.00  0.00     0.275 HD
ENDBRANCH  10  21
TORSDOF 4
