REMARK  2 active torsions:
REMARK  status: ('A' for Active; 'I' for Inactive)
REMARK    1  A    between atoms: N1_6  and  C7_10 
REMARK    2  A    between atoms: C11_14  and  C12_15 
ROOT
ATOM      1  C1  <0> d           0.070   1.352   1.002  0.00  0.00     0.016 C 
ATOM      2  C2  <0> d           0.078  -0.151   0.719  0.00  0.00    -0.031 C 
ATOM      3  C3  <0> d           0.551  -0.402  -0.717  0.00  0.00     0.112 C 
ATOM      4  C4  <0> d           0.665  -1.886  -0.948  0.00  0.00     0.227 C 
ATOM      5  O1  <0> d           0.499  -2.328  -2.065  0.00  0.00    -0.273 OA
ATOM      6  N1  <0> d           0.946  -2.728   0.057  0.00  0.00    -0.283 N 
ATOM      7  C5  <0> d           1.131  -2.311   1.319  0.00  0.00     0.227 C 
ATOM      8  O2  <0> d           1.374  -3.124   2.184  0.00  0.00    -0.273 OA
ATOM      9  C6  <0> d           1.044  -0.851   1.680  0.00  0.00     0.112 C 
ATOM     10  C13 <0> d          -1.332  -0.717   0.905  0.00  0.00     0.016 C 
ENDROOT
BRANCH   6  11
ATOM     11  C7  <0> d           1.055  -4.160  -0.233  0.00  0.00     0.106 C 
ATOM     12  C11 <0> d           2.304  -4.430  -1.098  0.00  0.00     0.070 C 
ATOM     13  C10 <0> d           1.761  -4.452  -2.550  0.00  0.00     0.013 C 
ATOM     14  C9  <0> d           0.393  -5.161  -2.393  0.00  0.00     0.003 C 
ATOM     15  C8  <0> d          -0.160  -4.624  -1.056  0.00  0.00     0.027 C 
BRANCH  12  16
ATOM     16  C12 <0> d           3.313  -3.323  -0.928  0.00  0.00     0.077 C 
ATOM     17  S1  <0> d           3.653  -2.356  -2.155  0.00  0.00    -0.065 SA
ATOM     18  N2  <0> d           3.928  -3.148   0.259  0.00  0.00    -0.393 N 
ATOM     19  H16 <0> d           3.721  -3.735   1.003  0.00  0.00     0.156 HD
ATOM     20  H17 <0> d           4.577  -2.436   0.368  0.00  0.00     0.156 HD
ENDBRANCH  12  16
ENDBRANCH   6  11
TORSDOF 2
