REMARK  4 active torsions:
REMARK  status: ('A' for Active; 'I' for Inactive)
REMARK    1  A    between atoms: C2_2  and  C3_3 
REMARK    2  A    between atoms: C2_2  and  N1_9 
REMARK       I    between atoms: N1_9  and  C9_10 
REMARK    3  A    between atoms: C9_10  and  C10_12 
REMARK    4  A    between atoms: N4_20  and  C16_23 
ROOT
ATOM      1  C10 <0> d           2.391  -1.033   2.306  0.00  0.00     0.074 C 
ATOM      2  C11 <0> d           3.724  -0.654   2.349  0.00  0.00     0.105 C 
ATOM      3  N2  <0> d           4.288  -0.930   3.543  0.00  0.00    -0.375 N 
ATOM      4  C12 <0> d           3.345  -1.754   4.287  0.00  0.00     0.230 C 
ATOM      5  C13 <0> d           2.022  -1.534   3.560  0.00  0.00     0.089 C 
ATOM      6  N3  <0> d           0.871  -1.780   4.131  0.00  0.00    -0.195 NA
ATOM      7  C14 <0> d           0.851  -1.915   5.472  0.00  0.00     0.356 C 
ATOM      8  O2  <0> d          -0.138  -2.384   6.005  0.00  0.00    -0.244 OA
ATOM      9  N4  <0> d           1.894  -1.548   6.238  0.00  0.00    -0.230 N 
ATOM     10  C15 <0> d           3.144  -1.355   5.721  0.00  0.00     0.261 C 
ATOM     11  O3  <0> d           4.039  -0.863   6.373  0.00  0.00    -0.270 OA
ATOM     12  C22 <0> d           5.605  -0.484   4.006  0.00  0.00     0.150 C 
ENDROOT
BRANCH   1  13
ATOM     13  C9  <0> d           1.507  -0.921   1.136  0.00  0.00     0.255 C 
ATOM     14  N1  <0> d           0.223  -1.320   1.221  0.00  0.00    -0.348 N 
ATOM     15  H11 <0> d          -0.119  -1.681   2.054  0.00  0.00     0.163 HD
ATOM     16  O1  <0> d           1.935  -0.468   0.091  0.00  0.00    -0.268 OA
BRANCH  14  17
ATOM     17  C2  <0> d          -0.658  -1.209   0.056  0.00  0.00     0.114 C 
ATOM     18  C1  <0> d          -1.252   0.200  -0.002  0.00  0.00     0.037 C 
BRANCH  17  19
ATOM     19  C3  <0> d          -1.770  -2.219   0.168  0.00  0.00    -0.036 A 
ATOM     20  C8  <0> d          -2.195  -2.907  -0.954  0.00  0.00     0.009 A 
ATOM     21  C7  <0> d          -3.212  -3.837  -0.850  0.00  0.00     0.001 A 
ATOM     22  C6  <0> d          -3.811  -4.073   0.373  0.00  0.00     0.000 A 
ATOM     23  C5  <0> d          -3.390  -3.381   1.494  0.00  0.00     0.001 A 
ATOM     24  C4  <0> d          -2.370  -2.454   1.391  0.00  0.00     0.009 A 
ENDBRANCH  17  19
ENDBRANCH  14  17
ENDBRANCH   1  13
BRANCH   9  25
ATOM     25  C16 <0> d           1.701  -1.381   7.616  0.00  0.00     0.047 A 
ATOM     26  C21 <0> d           1.277  -0.157   8.116  0.00  0.00     0.030 A 
ATOM     27  C20 <0> d           1.082   0.003   9.474  0.00  0.00     0.002 A 
ATOM     28  C19 <0> d           1.320  -1.052  10.336  0.00  0.00     0.000 A 
ATOM     29  C18 <0> d           1.748  -2.270   9.842  0.00  0.00     0.002 A 
ATOM     30  C17 <0> d           1.939  -2.438   8.484  0.00  0.00     0.030 A 
ENDBRANCH   9  25
TORSDOF 4
