REMARK  4 active torsions:
REMARK  status: ('A' for Active; 'I' for Inactive)
REMARK    1  A    between atoms: C7_9  and  C10_13 
REMARK    2  A    between atoms: C10_13  and  O2_14 
REMARK    3  A    between atoms: O2_14  and  C11_15 
REMARK    4  A    between atoms: C11_15  and  C12_17 
ROOT
ATOM      1  C11 <0> d           0.002  -0.004   0.002  0.00  0.00     0.268 C 
ATOM      2  O3  <0> d           1.056  -0.594  -0.011  0.00  0.00    -0.264 OA
ENDROOT
BRANCH   1   3
ATOM      3  O2  <0> d          -1.151  -0.691   0.009  0.00  0.00    -0.315 OA
BRANCH   3   4
ATOM      4  C10 <0> d          -1.056  -2.140   0.001  0.00  0.00     0.238 C 
BRANCH   4   5
ATOM      5  C7  <0> d          -2.440  -2.735   0.011  0.00  0.00     0.066 A 
ATOM      6  N2  <0> d          -3.227  -2.561   1.061  0.00  0.00    -0.233 NA
ATOM      7  C5  <0> d          -4.457  -3.070   1.097  0.00  0.00     0.137 A 
ATOM      8  N1  <0> d          -4.944  -3.801   0.049  0.00  0.00    -0.274 N 
ATOM      9  C6  <0> d          -5.263  -2.856   2.230  0.00  0.00     0.058 A 
ATOM     10  C4  <0> d          -6.201  -4.322   0.096  0.00  0.00     0.102 A 
ATOM     11  C9  <0> d          -4.175  -4.008  -1.041  0.00  0.00     0.255 A 
ATOM     12  C3  <0> d          -6.990  -4.127   1.176  0.00  0.00     0.024 A 
ATOM     13  C2  <0> d          -6.520  -3.382   2.267  0.00  0.00    -0.057 A 
ATOM     14  C1  <0> d          -7.398  -3.165   3.472  0.00  0.00     0.048 C 
ATOM     15  C8  <0> d          -2.885  -3.466  -1.073  0.00  0.00     0.104 A 
ATOM     16  O1  <0> d          -4.597  -4.660  -1.983  0.00  0.00    -0.268 OA
ENDBRANCH   4   5
ENDBRANCH   3   4
ENDBRANCH   1   3
BRANCH   1  17
ATOM     17  C12 <0> d          -0.018   1.503   0.010  0.00  0.00     0.129 C 
ATOM     18  C16 <0> d           1.396   2.024  -0.000  0.00  0.00    -0.017 A 
ATOM     19  C15 <0> d           2.062   2.202  -1.205  0.00  0.00     0.044 A 
ATOM     20  C17 <0> d           2.030   2.321   1.190  0.00  0.00     0.013 A 
ATOM     21  N3  <0> d           1.411   1.940  -2.414  0.00  0.00    -0.327 N 
ATOM     22  C20 <0> d           3.372   2.664  -1.210  0.00  0.00     0.072 A 
ATOM     23  C14 <0> d           0.077   1.780  -2.455  0.00  0.00     0.223 C 
ATOM     24  H13 <0> d           1.928   1.873  -3.232  0.00  0.00     0.169 HD
ATOM     25  C13 <0> d          -0.762   2.008  -1.226  0.00  0.00     0.122 C 
ATOM     26  O4  <0> d          -0.456   1.449  -3.493  0.00  0.00    -0.273 OA
ATOM     27  C19 <0> d           4.004   2.956  -0.014  0.00  0.00     0.118 A 
ATOM     28  C18 <0> d           3.331   2.788   1.185  0.00  0.00     0.043 A 
ATOM     29  F1  <0> d           5.278   3.406  -0.017  0.00  0.00    -0.206 F 
ENDBRANCH   1  17
TORSDOF 4
