REMARK  5 active torsions:
REMARK  status: ('A' for Active; 'I' for Inactive)
REMARK    1  A    between atoms: C2_2  and  N1_4 
REMARK       I    between atoms: N1_4  and  C4_5 
REMARK       I    between atoms: C4_5  and  N2_7 
REMARK       I    between atoms: N2_7  and  C5_8 
REMARK    2  A    between atoms: C5_8  and  C6_10 
REMARK    3  A    between atoms: C6_10  and  S1_11 
REMARK    4  A    between atoms: S1_11  and  C7_12 
REMARK    5  A    between atoms: N4_25  and  C17_26 
ROOT
ATOM      1  C7  <0> d          -0.033  -4.765  -0.519  0.00  0.00     0.177 A 
ATOM      2  N3  <0> d          -0.942  -3.823  -0.309  0.00  0.00    -0.216 NA
ATOM      3  C8  <0> d          -0.503  -2.627   0.066  0.00  0.00     0.117 A 
ATOM      4  C9  <0> d           0.861  -2.309   0.253  0.00  0.00     0.076 A 
ATOM      5  C10 <0> d           1.149  -0.945   0.665  0.00  0.00    -0.026 A 
ATOM      6  C11 <0> d           0.088  -0.124   0.829  0.00  0.00    -0.008 A 
ATOM      7  S2  <0> d          -1.333  -1.116   0.445  0.00  0.00    -0.073 SA
ATOM      8  C12 <0> d           0.110   1.315   1.246  0.00  0.00     0.047 C 
ATOM      9  C13 <0> d           1.496   1.634   1.822  0.00  0.00     0.005 C 
ATOM     10  C14 <0> d           2.561   1.091   0.864  0.00  0.00     0.005 C 
ATOM     11  C15 <0> d           2.568  -0.437   0.908  0.00  0.00     0.041 C 
ATOM     12  C16 <0> d           1.815  -3.352   0.018  0.00  0.00     0.268 A 
ATOM     13  O3  <0> d           3.014  -3.174   0.152  0.00  0.00    -0.267 OA
ATOM     14  N4  <0> d           1.304  -4.546  -0.363  0.00  0.00    -0.256 N 
ENDROOT
BRANCH   1  15
ATOM     15  S1  <0> d          -0.574  -6.366  -1.019  0.00  0.00    -0.082 SA
BRANCH  15  16
ATOM     16  C6  <0> d          -2.363  -6.092  -1.064  0.00  0.00     0.185 C 
BRANCH  16  17
ATOM     17  C5  <0> d          -3.055  -7.365  -1.479  0.00  0.00     0.235 C 
ATOM     18  N2  <0> d          -4.399  -7.398  -1.583  0.00  0.00    -0.279 N 
ATOM     19  C4  <0> d          -5.018  -8.536  -1.954  0.00  0.00     0.323 C 
ATOM     20  H9  <0> d          -4.920  -6.603  -1.389  0.00  0.00     0.173 HD
ATOM     21  N1  <0> d          -6.361  -8.570  -2.057  0.00  0.00    -0.339 N 
ATOM     22  O1  <0> d          -4.365  -9.532  -2.196  0.00  0.00    -0.247 OA
ATOM     23  H8  <0> d          -6.883  -7.775  -1.864  0.00  0.00     0.164 HD
ATOM     24  O2  <0> d          -2.404  -8.358  -1.721  0.00  0.00    -0.272 OA
BRANCH  21  25
ATOM     25  C2  <0> d          -7.034  -9.806  -2.461  0.00  0.00     0.078 C 
ATOM     26  C1  <0> d          -8.467  -9.806  -1.925  0.00  0.00     0.032 C 
ATOM     27  C3  <0> d          -7.062  -9.897  -3.988  0.00  0.00     0.032 C 
ENDBRANCH  21  25
ENDBRANCH  16  17
ENDBRANCH  15  16
ENDBRANCH   1  15
BRANCH  14  28
ATOM     28  C17 <0> d           2.189  -5.605  -0.607  0.00  0.00     0.044 A 
ATOM     29  C22 <0> d           2.546  -6.465   0.422  0.00  0.00     0.030 A 
ATOM     30  C21 <0> d           3.417  -7.508   0.178  0.00  0.00     0.002 A 
ATOM     31  C20 <0> d           3.934  -7.697  -1.091  0.00  0.00     0.000 A 
ATOM     32  C19 <0> d           3.581  -6.841  -2.118  0.00  0.00     0.002 A 
ATOM     33  C18 <0> d           2.705  -5.800  -1.881  0.00  0.00     0.030 A 
ENDBRANCH  14  28
TORSDOF 5
