REMARK  6 active torsions:
REMARK  status: ('A' for Active; 'I' for Inactive)
REMARK    1  A    between atoms: C3_3  and  C12_16 
REMARK    2  A    between atoms: C4_5  and  N2_7 
REMARK    3  A    between atoms: N2_7  and  C5_8 
REMARK    4  A    between atoms: C9_12  and  O1_14 
REMARK    5  A    between atoms: C15_19  and  C16_21 
REMARK    6  A    between atoms: C16_21  and  N3_22 
REMARK       I    between atoms: N3_22  and  C17_23 
ROOT
ATOM      1  C1  <0> d           5.093   7.237   0.371  0.00  0.00     0.059 C 
ATOM      2  C2  <0> d           3.622   6.918   0.294  0.00  0.00     0.014 A 
ATOM      3  C3  <0> d           2.544   7.761   0.326  0.00  0.00     0.106 A 
ATOM      4  N1  <0> d           1.317   7.250   0.242  0.00  0.00    -0.221 NA
ATOM      5  C4  <0> d           1.125   5.949   0.129  0.00  0.00     0.172 A 
ATOM      6  S1  <0> d           2.804   5.336   0.143  0.00  0.00    -0.055 SA
ENDROOT
BRANCH   3   7
ATOM      7  C12 <0> d           2.739   9.220   0.453  0.00  0.00     0.105 A 
ATOM      8  O2  <0> d           3.703   9.829   1.169  0.00  0.00    -0.311 OA
ATOM      9  C15 <0> d           3.574  11.162   1.049  0.00  0.00     0.071 A 
ATOM     10  C14 <0> d           2.516  11.424   0.259  0.00  0.00     0.037 A 
ATOM     11  C13 <0> d           1.973  10.181  -0.129  0.00  0.00     0.042 A 
BRANCH   9  12
ATOM     12  C16 <0> d           4.463  12.193   1.697  0.00  0.00     0.187 C 
BRANCH  12  13
ATOM     13  N3  <0> d           3.927  12.540   3.015  0.00  0.00    -0.355 N 
ATOM     14  C17 <0> d           4.562  13.449   3.782  0.00  0.00     0.213 C 
ATOM     15  O3  <0> d           5.577  13.978   3.381  0.00  0.00    -0.274 OA
ATOM     16  C18 <0> d           4.011  13.807   5.138  0.00  0.00     0.117 C 
ATOM     17  H16 <0> d           3.116  12.117   3.336  0.00  0.00     0.162 HD
ENDBRANCH  12  13
ENDBRANCH   9  12
ENDBRANCH   3   7
BRANCH   5  18
ATOM     18  N2  <0> d          -0.064   5.244   0.031  0.00  0.00    -0.335 N 
ATOM     19  H4  <0> d          -0.911   5.705   0.130  0.00  0.00     0.168 HD
BRANCH  18  20
ATOM     20  C5  <0> d          -0.043   3.867  -0.211  0.00  0.00     0.036 A 
ATOM     21  C10 <0> d           0.961   3.315  -0.995  0.00  0.00     0.066 A 
ATOM     22  C9  <0> d           0.981   1.949  -1.229  0.00  0.00     0.070 A 
ATOM     23  C8  <0> d          -0.006   1.138  -0.687  0.00  0.00     0.037 A 
ATOM     24  C7  <0> d          -1.004   1.690   0.094  0.00  0.00     0.005 A 
ATOM     25  C6  <0> d          -1.026   3.050   0.334  0.00  0.00     0.029 A 
BRANCH  22  26
ATOM     26  O1  <0> d           1.964   1.404  -1.992  0.00  0.00    -0.356 OA
ATOM     27  C11 <0> d           1.920  -0.009  -2.196  0.00  0.00     0.210 C 
ENDBRANCH  22  26
ENDBRANCH  18  20
ENDBRANCH   5  18
TORSDOF 6
