REMARK  4 active torsions:
REMARK  status: ('A' for Active; 'I' for Inactive)
REMARK    1  A    between atoms: C2_2  and  S1_4 
REMARK    2  A    between atoms: S1_4  and  P1_7 
REMARK    3  A    between atoms: C7_14  and  O5_24 
REMARK    4  A    between atoms: C8_15  and  S2_22 
ROOT
ATOM      1  P1  <0> d          -2.582   0.150  -1.747  0.00  0.00     0.417 P 
ATOM      2  O3  <0> d          -2.597   1.629  -1.699  0.00  0.00    -0.248 OA
ATOM      3  N1  <0> d          -4.115  -0.435  -1.928  0.00  0.00    -0.266 N 
ATOM      4  N2  <0> d          -4.258  -1.716  -2.422  0.00  0.00    -0.220 NA
ATOM      5  C4  <0> d          -5.702  -1.972  -2.559  0.00  0.00     0.123 C 
ATOM      6  C5  <0> d          -5.963  -3.385  -3.060  0.00  0.00     0.033 C 
ATOM      7  C6  <0> d          -5.433  -4.401  -2.086  0.00  0.00     0.018 C 
ATOM      8  C7  <0> d          -5.163  -5.638  -2.509  0.00  0.00     0.081 C 
ATOM      9  C8  <0> d          -5.403  -5.988  -3.926  0.00  0.00     0.029 C 
ATOM     10  C9  <0> d          -5.460  -5.019  -4.846  0.00  0.00    -0.000 C 
ATOM     11  C10 <0> d          -5.270  -3.586  -4.411  0.00  0.00     0.020 C 
ATOM     12  C11 <0> d          -3.777  -3.302  -4.240  0.00  0.00     0.033 C 
ATOM     13  C12 <0> d          -3.557  -1.885  -3.699  0.00  0.00     0.104 C 
ATOM     14  C13 <0> d          -2.043  -1.693  -3.538  0.00  0.00     0.200 C 
ATOM     15  O4  <0> d          -1.771  -0.364  -3.060  0.00  0.00    -0.306 OA
ATOM     16  H11 <0> d          -4.888   0.102  -1.695  0.00  0.00     0.185 HD
ENDROOT
BRANCH   1  17
ATOM     17  S1  <0> d          -1.700  -0.632   0.015  0.00  0.00     0.247 S 
ATOM     18  O1  <0> d          -1.703  -2.041  -0.172  0.00  0.00    -0.216 OA
ATOM     19  O2  <0> d          -2.431  -0.041   1.080  0.00  0.00    -0.216 OA
BRANCH  17  20
ATOM     20  C2  <0> d           0.002  -0.004   0.002  0.00  0.00     0.112 C 
ATOM     21  C1  <0> d          -0.019   1.526   0.010  0.00  0.00     0.026 C 
ATOM     22  C3  <0> d           0.742  -0.511   1.242  0.00  0.00     0.026 C 
ENDBRANCH  17  20
ENDBRANCH   1  17
BRANCH   8  23
ATOM     23  O5  <0> d          -4.675  -6.567  -1.646  0.00  0.00    -0.355 OA
ATOM     24  C15 <0> d          -4.471  -6.153  -0.293  0.00  0.00     0.210 C 
ENDBRANCH   8  23
BRANCH   9  25
ATOM     25  S2  <0> d          -5.611  -7.672  -4.400  0.00  0.00    -0.132 SA
ATOM     26  C14 <0> d          -5.872  -7.595  -6.194  0.00  0.00     0.095 C 
ENDBRANCH   9  25
TORSDOF 4
