REMARK  4 active torsions:
REMARK  status: ('A' for Active; 'I' for Inactive)
REMARK    1  A    between atoms: C3_3  and  N3_15 
REMARK    2  A    between atoms: N1_6  and  C6_9 
REMARK    3  A    between atoms: N3_15  and  C12_16 
REMARK       I    between atoms: N4_18  and  C13_19 
REMARK    4  A    between atoms: C13_19  and  C14_21 
ROOT
ATOM      1  N3  <0> d           2.429   1.025   0.606  0.00  0.00    -0.327 N 
ATOM      2  H12 <0> d           2.469   0.251   1.189  0.00  0.00     0.168 HD
ENDROOT
BRANCH   1   3
ATOM      3  C3  <0> d           3.620   1.654   0.189  0.00  0.00     0.129 A 
ATOM      4  C2  <0> d           4.656   1.066  -0.451  0.00  0.00     0.057 A 
ATOM      5  C1  <0> d           4.737  -0.387  -0.843  0.00  0.00     0.072 C 
ATOM      6  N2  <0> d           5.619   2.012  -0.685  0.00  0.00    -0.289 N 
ATOM      7  N1  <0> d           5.189   3.241  -0.171  0.00  0.00    -0.217 N 
ATOM      8  C5  <0> d           6.897   1.774  -1.359  0.00  0.00     0.178 C 
ATOM      9  C4  <0> d           3.967   3.063   0.373  0.00  0.00     0.295 A 
ATOM     10  O1  <0> d           3.284   3.913   0.914  0.00  0.00    -0.264 OA
BRANCH   7  11
ATOM     11  C6  <0> d           5.902   4.443  -0.214  0.00  0.00     0.060 A 
ATOM     12  C11 <0> d           5.286   5.602  -0.670  0.00  0.00     0.031 A 
ATOM     13  C10 <0> d           5.992   6.788  -0.711  0.00  0.00     0.002 A 
ATOM     14  C9  <0> d           7.312   6.823  -0.298  0.00  0.00     0.000 A 
ATOM     15  C8  <0> d           7.928   5.671   0.156  0.00  0.00     0.002 A 
ATOM     16  C7  <0> d           7.226   4.483   0.204  0.00  0.00     0.031 A 
ENDBRANCH   7  11
ENDBRANCH   1   3
BRANCH   1  17
ATOM     17  C12 <0> d           1.237   1.499   0.194  0.00  0.00     0.179 C 
ATOM     18  S1  <0> d           1.162   2.931  -0.741  0.00  0.00    -0.040 SA
ATOM     19  N4  <0> d           0.104   0.845   0.518  0.00  0.00    -0.299 N 
ATOM     20  C13 <0> d          -1.088   1.316   0.101  0.00  0.00     0.260 C 
ATOM     21  H13 <0> d           0.146   0.033   1.047  0.00  0.00     0.171 HD
ATOM     22  O2  <0> d          -1.142   2.333  -0.563  0.00  0.00    -0.267 OA
BRANCH  20  23
ATOM     23  C14 <0> d          -2.329   0.597   0.451  0.00  0.00     0.070 A 
ATOM     24  C19 <0> d          -3.568   1.082   0.020  0.00  0.00     0.132 A 
ATOM     25  C18 <0> d          -4.726   0.402   0.353  0.00  0.00     0.043 A 
ATOM     26  F1  <0> d          -3.634   2.212  -0.718  0.00  0.00    -0.205 F 
ATOM     27  C17 <0> d          -4.658  -0.754   1.107  0.00  0.00     0.003 A 
ATOM     28  C16 <0> d          -3.434  -1.240   1.536  0.00  0.00     0.001 A 
ATOM     29  C15 <0> d          -2.271  -0.576   1.208  0.00  0.00     0.020 A 
ENDBRANCH  20  23
ENDBRANCH   1  17
TORSDOF 4
