REMARK  2 active torsions:
REMARK  status: ('A' for Active; 'I' for Inactive)
REMARK    1  A    between atoms: C2_3  and  C7_13 
REMARK    2  A    between atoms: N3_5  and  C3_6 
ROOT
ATOM      1  C1  <0> d          -0.016   1.341   0.009  0.00  0.00     0.231 A 
ATOM      2  N1  <0> d           1.226   1.755  -0.000  0.00  0.00    -0.218 NA
ATOM      3  C2  <0> d           2.011   0.662  -0.014  0.00  0.00     0.208 A 
ATOM      4  N2  <0> d           1.229  -0.397  -0.012  0.00  0.00    -0.148 NA
ATOM      5  N3  <0> d           0.002  -0.004   0.002  0.00  0.00    -0.256 N 
ENDROOT
BRANCH   5   6
ATOM      6  C3  <0> d          -1.175  -0.876   0.009  0.00  0.00     0.126 C 
ATOM      7  C6  <0> d          -1.658  -1.095   1.471  0.00  0.00     0.167 C 
ATOM      8  S1  <0> d          -3.390  -1.649   1.175  0.00  0.00     0.146 S 
ATOM      9  C5  <0> d          -3.646  -0.960  -0.511  0.00  0.00     0.142 C 
ATOM     10  O1  <0> d          -4.252  -0.978   2.084  0.00  0.00    -0.228 OA
ATOM     11  O2  <0> d          -3.417  -3.068   1.104  0.00  0.00    -0.228 OA
ATOM     12  C4  <0> d          -2.318  -0.212  -0.778  0.00  0.00     0.043 C 
ENDBRANCH   5   6
BRANCH   3  13
ATOM     13  C7  <0> d           3.487   0.652  -0.028  0.00  0.00     0.144 C 
ATOM     14  S2  <0> d           4.333  -0.836  -0.045  0.00  0.00    -0.057 SA
ATOM     15  N4  <0> d           4.168   1.815  -0.028  0.00  0.00    -0.387 N 
ATOM     16  H9  <0> d           3.689   2.658  -0.019  0.00  0.00     0.157 HD
ATOM     17  H10 <0> d           5.138   1.808  -0.038  0.00  0.00     0.157 HD
ENDBRANCH   3  13
TORSDOF 2
