REMARK  4 active torsions:
REMARK  status: ('A' for Active; 'I' for Inactive)
REMARK    1  A    between atoms: C5_5  and  S1_8 
REMARK    2  A    between atoms: S1_8  and  N1_11 
REMARK    3  A    between atoms: N1_11  and  C7_12 
REMARK    4  A    between atoms: C11_16  and  C12_17 
ROOT
ATOM      1  S1  <0> d           1.233  -2.441  -0.024  0.00  0.00     0.262 S 
ATOM      2  O1  <0> d          -0.012  -2.861  -0.564  0.00  0.00    -0.200 OA
ATOM      3  O2  <0> d           2.479  -2.827  -0.589  0.00  0.00    -0.200 OA
ENDROOT
BRANCH   1   4
ATOM      4  C5  <0> d           1.209  -0.679  -0.013  0.00  0.00     0.122 A 
ATOM      5  C4  <0> d           2.398   0.029  -0.021  0.00  0.00     0.060 A 
ATOM      6  C3  <0> d           2.379   1.412  -0.014  0.00  0.00     0.044 A 
ATOM      7 Cl2  <0> d           3.913  -0.818  -0.041  0.00  0.00    -0.083 Cl
ATOM      8  C2  <0> d           1.171   2.087   0.002  0.00  0.00     0.014 A 
ATOM      9  C1  <0> d          -0.017   1.379   0.010  0.00  0.00     0.044 A 
ATOM     10 Br1  <0> d           1.146   3.978   0.013  0.00  0.00    -0.051 Br
ATOM     11  C6  <0> d           0.002  -0.004   0.002  0.00  0.00     0.060 A 
ATOM     12 Cl1  <0> d          -1.489  -0.892   0.012  0.00  0.00    -0.083 Cl
ENDBRANCH   1   4
BRANCH   1  13
ATOM     13  N1  <0> d           1.256  -2.940   1.556  0.00  0.00    -0.310 N 
ATOM     14  H5  <0> d           2.028  -3.414   1.903  0.00  0.00     0.172 HD
BRANCH  13  15
ATOM     15  C7  <0> d           0.111  -2.665   2.427  0.00  0.00     0.104 C 
ATOM     16  C11 <0> d          -0.080  -3.822   3.429  0.00  0.00     0.070 C 
ATOM     17  C10 <0> d          -0.521  -3.121   4.739  0.00  0.00     0.013 C 
ATOM     18  C9  <0> d           0.336  -1.831   4.742  0.00  0.00     0.003 C 
ATOM     19  C8  <0> d           0.376  -1.399   3.261  0.00  0.00     0.026 C 
BRANCH  16  20
ATOM     20  C12 <0> d          -1.153  -4.765   2.947  0.00  0.00     0.077 C 
ATOM     21  S2  <0> d          -1.907  -4.479   1.566  0.00  0.00    -0.065 SA
ATOM     22  N2  <0> d          -1.477  -5.848   3.680  0.00  0.00    -0.393 N 
ATOM     23  H12 <0> d          -1.020  -6.021   4.518  0.00  0.00     0.156 HD
ATOM     24  H13 <0> d          -2.168  -6.455   3.370  0.00  0.00     0.156 HD
ENDBRANCH  16  20
ENDBRANCH  13  15
ENDBRANCH   1  13
TORSDOF 4
