REMARK  3 active torsions:
REMARK  status: ('A' for Active; 'I' for Inactive)
REMARK    1  A    between atoms: C3_3  and  C9_15 
REMARK    2  A    between atoms: N2_5  and  C5_8 
REMARK    3  A    between atoms: C4_6  and  N3_7 
ROOT
ATOM      1  C1  <0> d          -0.018   1.503   0.010  0.00  0.00     0.054 C 
ATOM      2  C2  <0> d           0.002  -0.004   0.002  0.00  0.00     0.007 A 
ATOM      3  C3  <0> d           0.008  -0.821  -1.132  0.00  0.00     0.040 A 
ATOM      4  N1  <0> d           0.028  -2.069  -0.740  0.00  0.00    -0.300 N 
ATOM      5  N2  <0> d           0.035  -2.092   0.661  0.00  0.00    -0.271 N 
ATOM      6  C4  <0> d           0.024  -0.812   1.098  0.00  0.00     0.124 A 
ATOM      7  H22 <0> d           0.036  -2.846  -1.320  0.00  0.00     0.187 HD
ENDROOT
BRANCH   5   8
ATOM      8  C5  <0> d           0.056  -3.290   1.504  0.00  0.00     0.124 C 
ATOM      9  C8  <0> d          -1.202  -4.159   1.213  0.00  0.00     0.167 C 
ATOM     10  S1  <0> d          -0.648  -5.786   1.876  0.00  0.00     0.146 S 
ATOM     11  C7  <0> d           1.173  -5.534   1.820  0.00  0.00     0.142 C 
ATOM     12  O1  <0> d          -1.058  -5.897   3.232  0.00  0.00    -0.228 OA
ATOM     13  O2  <0> d          -1.002  -6.807   0.952  0.00  0.00    -0.228 OA
ATOM     14  C6  <0> d           1.302  -4.130   1.180  0.00  0.00     0.043 C 
ENDBRANCH   5   8
BRANCH   6  15
ATOM     15  N3  <0> d           0.031  -0.396   2.426  0.00  0.00    -0.384 N 
ATOM     16  H5  <0> d           0.019   0.550   2.639  0.00  0.00     0.157 HD
ATOM     17  H6  <0> d           0.047  -1.053   3.140  0.00  0.00     0.157 HD
ENDBRANCH   6  15
BRANCH   3  18
ATOM     18  C9  <0> d          -0.006  -0.346  -2.562  0.00  0.00     0.038 C 
ATOM     19  C13 <0> d           1.250  -0.848  -3.296  0.00  0.00     0.011 C 
ATOM     20  C12 <0> d           0.756  -1.732  -4.460  0.00  0.00     0.001 C 
ATOM     21  C11 <0> d          -0.686  -1.234  -4.730  0.00  0.00     0.001 C 
ATOM     22  C10 <0> d          -1.219  -0.943  -3.305  0.00  0.00     0.011 C 
ENDBRANCH   3  18
TORSDOF 3
