REMARK  2 active torsions:
REMARK  status: ('A' for Active; 'I' for Inactive)
REMARK    1  A    between atoms: C10_12  and  C11_15 
REMARK    2  A    between atoms: C11_15  and  O1_16 
ROOT
ATOM      1  C1  <0> d          -0.018   1.503   0.010  0.00  0.00     0.072 C 
ATOM      2  C2  <0> d           0.002  -0.004   0.002  0.00  0.00     0.049 A 
ATOM      3  C3  <0> d           0.008  -0.786  -1.098  0.00  0.00     0.124 A 
ATOM      4  N1  <0> d           0.027  -2.088  -0.669  0.00  0.00    -0.315 N 
ATOM      5  C4  <0> d           0.040  -3.282  -1.339  0.00  0.00     0.100 A 
ATOM      6  C5  <0> d           0.059  -4.463  -0.698  0.00  0.00     0.048 A 
ATOM      7  C6  <0> d           0.065  -4.517   0.712  0.00  0.00     0.048 A 
ATOM      8  C7  <0> d           0.053  -3.319   1.434  0.00  0.00     0.039 A 
ATOM      9  C8  <0> d           0.033  -2.055   0.702  0.00  0.00     0.146 A 
ATOM     10  N2  <0> d           0.024  -0.790   1.083  0.00  0.00    -0.233 NA
ATOM     11  C9  <0> d           0.064  -3.689   2.844  0.00  0.00     0.045 A 
ATOM     12  C10 <0> d           0.083  -5.034   2.893  0.00  0.00     0.034 A 
ATOM     13  N3  <0> d           0.083  -5.540   1.623  0.00  0.00    -0.357 N 
ATOM     14  H1  <0> d           0.095  -6.484   1.399  0.00  0.00     0.166 HD
ENDROOT
BRANCH  12  15
ATOM     15  C11 <0> d           0.099  -5.857   4.156  0.00  0.00     0.221 C 
BRANCH  15  16
ATOM     16  O1  <0> d           0.092  -4.988   5.290  0.00  0.00    -0.395 OA
ATOM     17  H11 <0> d           0.102  -5.451   6.140  0.00  0.00     0.209 HD
ENDBRANCH  15  16
ENDBRANCH  12  15
TORSDOF 2
