REMARK  5 active torsions:
REMARK  status: ('A' for Active; 'I' for Inactive)
REMARK    1  A    between atoms: C4_6  and  C5_7 
REMARK    2  A    between atoms: C5_7  and  C6_8 
REMARK    3  A    between atoms: C5_7  and  N3_16 
REMARK    4  A    between atoms: C10_12  and  O1_14 
REMARK    5  A    between atoms: N3_16  and  C13_17 
ROOT
ATOM      1  C5  <0> d           0.030  -0.354   2.521  0.00  0.00     0.201 C 
ENDROOT
BRANCH   1   2
ATOM      2  C4  <0> d           0.023  -0.811   1.085  0.00  0.00     0.111 A 
ATOM      3  N1  <0> d           0.002  -0.004   0.002  0.00  0.00    -0.348 N 
ATOM      4  C1  <0> d          -0.018   1.461   0.010  0.00  0.00     0.157 C 
ATOM      5  C2  <0> d           0.009  -0.810  -1.104  0.00  0.00     0.108 A 
ATOM      6  C3  <0> d           0.029  -2.081  -0.660  0.00  0.00     0.106 A 
ATOM      7  N2  <0> d           0.034  -2.052   0.681  0.00  0.00    -0.352 N 
ATOM      8  H22 <0> d           0.048  -2.831   1.260  0.00  0.00     0.166 HD
ENDBRANCH   1   2
BRANCH   1   9
ATOM      9  C6  <0> d           1.449  -0.300   3.024  0.00  0.00    -0.025 A 
ATOM     10  C11 <0> d           2.115   0.909   3.083  0.00  0.00     0.046 A 
ATOM     11  C10 <0> d           3.420   0.959   3.553  0.00  0.00     0.068 A 
ATOM     12  C9  <0> d           4.056  -0.207   3.950  0.00  0.00     0.037 A 
ATOM     13  C8  <0> d           3.389  -1.415   3.883  0.00  0.00     0.003 A 
ATOM     14  C7  <0> d           2.087  -1.462   3.421  0.00  0.00     0.010 A 
BRANCH  11  15
ATOM     15  O1  <0> d           4.074   2.148   3.618  0.00  0.00    -0.356 OA
ATOM     16  C12 <0> d           5.417   2.123   4.105  0.00  0.00     0.210 C 
ENDBRANCH  11  15
ENDBRANCH   1   9
BRANCH   1  17
ATOM     17  N3  <0> d          -0.742  -1.296   3.336  0.00  0.00    -0.208 N 
ATOM     18  H15 <0> d          -0.290  -2.015   3.805  0.00  0.00     0.179 HD
BRANCH  17  19
ATOM     19  C13 <0> d          -2.107  -1.160   3.437  0.00  0.00     0.705 A 
ATOM     20  N5  <0> d          -2.926  -1.968   4.160  0.00  0.00    -0.176 N 
ATOM     21  C15 <0> d          -4.216  -1.483   3.994  0.00  0.00     0.166 A 
ATOM     22  C16 <0> d          -2.524  -3.126   4.963  0.00  0.00     0.176 C 
ATOM     23  C14 <0> d          -4.115  -0.382   3.150  0.00  0.00     0.185 A 
ATOM     24  C17 <0> d          -5.481  -1.867   4.472  0.00  0.00     0.280 A 
ATOM     25  N4  <0> d          -2.826  -0.229   2.843  0.00  0.00    -0.044 NA
ATOM     26  N7  <0> d          -5.268   0.303   2.805  0.00  0.00    -0.286 N 
ATOM     27  C18 <0> d          -6.460  -0.098   3.286  0.00  0.00     0.330 A 
ATOM     28  C19 <0> d          -5.191   1.466   1.918  0.00  0.00     0.163 C 
ATOM     29  N6  <0> d          -6.569  -1.161   4.102  0.00  0.00    -0.273 N 
ATOM     30  O3  <0> d          -7.463   0.515   2.974  0.00  0.00    -0.246 OA
ATOM     31  H2  <0> d          -7.444  -1.423   4.430  0.00  0.00     0.173 HD
ATOM     32  O2  <0> d          -5.594  -2.828   5.213  0.00  0.00    -0.265 OA
ENDBRANCH  17  19
ENDBRANCH   1  17
TORSDOF 5
