REMARK  3 active torsions:
REMARK  status: ('A' for Active; 'I' for Inactive)
REMARK    1  A    between atoms: O1_2  and  C2_3 
REMARK    2  A    between atoms: C6_7  and  N1_9 
REMARK    3  A    between atoms: C10_13  and  C11_14 
ROOT
ATOM      1  N1  <0> d           2.533   5.521  -0.303  0.00  0.00    -0.254 N 
ATOM      2  C8  <0> d           3.708   6.114  -0.006  0.00  0.00     0.270 A 
ATOM      3  O2  <0> d           4.676   5.454   0.322  0.00  0.00    -0.266 OA
ATOM      4  C9  <0> d           3.786   7.583  -0.089  0.00  0.00     0.101 A 
ATOM      5  C10 <0> d           4.961   8.263   0.201  0.00  0.00     0.036 C 
ATOM      6  C19 <0> d           2.563   8.298  -0.495  0.00  0.00     0.263 A 
ATOM      7  O3  <0> d           2.551   9.512  -0.588  0.00  0.00    -0.267 OA
ATOM      8  N3  <0> d           1.459   7.572  -0.763  0.00  0.00    -0.299 N 
ATOM      9  C20 <0> d           1.460   6.235  -0.671  0.00  0.00     0.188 A 
ATOM     10  S1  <0> d           0.014   5.395  -1.036  0.00  0.00    -0.040 SA
ATOM     11  H15 <0> d           0.645   8.027  -1.032  0.00  0.00     0.171 HD
ENDROOT
BRANCH   5  12
ATOM     12  C11 <0> d           4.953   9.669   0.308  0.00  0.00    -0.007 A 
ATOM     13  C14 <0> d           5.941  10.609  -0.260  0.00  0.00     0.002 A 
ATOM     14  C13 <0> d           5.508  11.891   0.111  0.00  0.00     0.043 A 
ATOM     15  C15 <0> d           7.091  10.454  -1.027  0.00  0.00     0.014 A 
ATOM     16  N2  <0> d           4.352  11.746   0.853  0.00  0.00    -0.364 N 
ATOM     17  C18 <0> d           6.245  13.001  -0.289  0.00  0.00     0.030 A 
ATOM     18  C12 <0> d           4.021  10.448   0.973  0.00  0.00     0.100 A 
ATOM     19  H1  <0> d           3.848  12.481   1.236  0.00  0.00     0.165 HD
ATOM     20  C17 <0> d           7.386  12.833  -1.044  0.00  0.00     0.002 A 
ATOM     21  C16 <0> d           7.809  11.566  -1.413  0.00  0.00     0.001 A 
ENDBRANCH   5  12
BRANCH   1  22
ATOM     22  C6  <0> d           2.435   4.125  -0.231  0.00  0.00     0.047 A 
ATOM     23  C5  <0> d           2.660   3.353  -1.363  0.00  0.00     0.030 A 
ATOM     24  C4  <0> d           2.561   1.976  -1.292  0.00  0.00     0.005 A 
ATOM     25  C3  <0> d           2.245   1.364  -0.094  0.00  0.00     0.037 A 
ATOM     26  C2  <0> d           2.014   2.132   1.039  0.00  0.00     0.070 A 
ATOM     27  C7  <0> d           2.111   3.513   0.972  0.00  0.00     0.066 A 
BRANCH  26  28
ATOM     28  O1  <0> d           1.698   1.529   2.216  0.00  0.00    -0.356 OA
ATOM     29  C1  <0> d           1.615   0.102   2.212  0.00  0.00     0.210 C 
ENDBRANCH  26  28
ENDBRANCH   1  22
TORSDOF 3
