REMARK  5 active torsions:
REMARK  status: ('A' for Active; 'I' for Inactive)
REMARK    1  A    between atoms: C2_2  and  S1_4 
REMARK    2  A    between atoms: S1_4  and  C4_7 
REMARK    3  A    between atoms: C12_16  and  C13_17 
REMARK    4  A    between atoms: C18_22  and  O3_23 
REMARK    5  A    between atoms: P1_26  and  S2_29 
ROOT
ATOM      1  C4  <0> d          -0.629   0.011   2.579  0.00  0.00     0.067 C 
ATOM      2  C5  <0> d          -1.204  -0.614   3.604  0.00  0.00     0.004 C 
ATOM      3  C6  <0> d          -1.520   0.166   4.850  0.00  0.00     0.032 C 
ATOM      4  C7  <0> d          -1.637  -0.746   6.066  0.00  0.00     0.123 C 
ATOM      5  N1  <0> d          -1.973   0.053   7.258  0.00  0.00    -0.220 NA
ATOM      6  C8  <0> d          -0.979   1.090   7.541  0.00  0.00     0.104 C 
ATOM      7  C9  <0> d          -0.776   2.006   6.327  0.00  0.00     0.033 C 
ATOM      8  C10 <0> d          -0.387   1.165   5.115  0.00  0.00     0.019 C 
ATOM      9  C11 <0> d          -0.198   2.023   3.894  0.00  0.00    -0.008 C 
ATOM     10  C12 <0> d          -0.319   1.454   2.682  0.00  0.00    -0.005 C 
ATOM     11  C19 <0> d          -1.423   1.992   8.700  0.00  0.00     0.200 C 
ATOM     12  O4  <0> d          -1.581   1.201   9.891  0.00  0.00    -0.309 OA
ATOM     13  P1  <0> d          -2.486  -0.147   9.794  0.00  0.00     0.361 P 
ATOM     14  O5  <0> d          -3.924   0.195   9.864  0.00  0.00    -0.253 OA
ATOM     15  N2  <0> d          -2.111  -0.821   8.318  0.00  0.00    -0.270 N 
ATOM     16  H24 <0> d          -2.008  -1.778   8.198  0.00  0.00     0.185 HD
ENDROOT
BRANCH  10  17
ATOM     17  C13 <0> d          -0.146   2.270   1.456  0.00  0.00     0.008 A 
ATOM     18  C18 <0> d          -1.263   2.662   0.711  0.00  0.00     0.076 A 
ATOM     19  C17 <0> d          -1.093   3.430  -0.430  0.00  0.00     0.037 A 
ATOM     20  C16 <0> d           0.177   3.795  -0.836  0.00  0.00     0.003 A 
ATOM     21  C15 <0> d           1.284   3.403  -0.104  0.00  0.00     0.001 A 
ATOM     22  C14 <0> d           1.129   2.644   1.038  0.00  0.00     0.015 A 
BRANCH  18  23
ATOM     23  O3  <0> d          -2.510   2.298   1.108  0.00  0.00    -0.360 OA
ATOM     24  H21 <0> d          -2.933   2.930   1.705  0.00  0.00     0.217 HD
ENDBRANCH  18  23
ENDBRANCH  10  17
BRANCH   1  25
ATOM     25  S1  <0> d          -0.234  -0.878   1.110  0.00  0.00     0.179 S 
ATOM     26  O1  <0> d          -0.746  -0.078   0.053  0.00  0.00    -0.222 OA
ATOM     27  O2  <0> d          -0.734  -2.189   1.333  0.00  0.00    -0.222 OA
BRANCH  25  28
ATOM     28  C2  <0> d           1.579  -0.902   1.053  0.00  0.00     0.105 C 
ATOM     29  C1  <0> d           2.118  -1.652   2.273  0.00  0.00     0.026 C 
ATOM     30  C3  <0> d           2.040  -1.607  -0.224  0.00  0.00     0.026 C 
ENDBRANCH  25  28
ENDBRANCH   1  25
BRANCH  13  31
ATOM     31  S2  <0> d          -1.975  -1.488  11.355  0.00  0.00    -0.056 SA
ATOM     32  C20 <0> d          -2.321  -0.552  12.869  0.00  0.00     0.102 C 
ENDBRANCH  13  31
TORSDOF 5
