REMARK  6 active torsions:
REMARK  status: ('A' for Active; 'I' for Inactive)
REMARK    1  A    between atoms: C2_2  and  C3_3 
REMARK    2  A    between atoms: C3_3  and  N1_4 
REMARK    3  A    between atoms: C7_8  and  C9_11 
REMARK       I    between atoms: C9_11  and  N3_13 
REMARK    4  A    between atoms: N3_13  and  C10_14 
REMARK    5  A    between atoms: C10_14  and  C11_15 
REMARK    6  A    between atoms: C10_14  and  C17_22 
ROOT
ATOM      1  C9  <0> d           4.463   1.039   1.414  0.00  0.00     0.253 C 
ATOM      2  O1  <0> d           4.596  -0.146   1.175  0.00  0.00    -0.268 OA
ATOM      3  N3  <0> d           3.441   1.727   0.867  0.00  0.00    -0.344 N 
ATOM      4  H12 <0> d           3.321   2.799   1.083  0.00  0.00     0.163 HD
ENDROOT
BRANCH   1   5
ATOM      5  C7  <0> d           5.422   1.725   2.304  0.00  0.00     0.050 A 
ATOM      6  C6  <0> d           6.487   1.019   2.877  0.00  0.00     0.039 A 
ATOM      7  C5  <0> d           7.357   1.719   3.706  0.00  0.00     0.079 A 
ATOM      8  C4  <0> d           7.144   3.092   3.940  0.00  0.00     0.149 A 
ATOM      9  C21 <0> d           8.506   1.065   4.355  0.00  0.00     0.263 A 
ATOM     10  N1  <0> d           8.024   3.762   4.768  0.00  0.00    -0.283 N 
ATOM     11  N2  <0> d           6.122   3.716   3.375  0.00  0.00    -0.241 NA
ATOM     12  C22 <0> d           9.057   3.122   5.338  0.00  0.00     0.331 A 
ATOM     13  N4  <0> d           9.303   1.816   5.147  0.00  0.00    -0.274 N 
ATOM     14  O3  <0> d           9.805   3.753   6.059  0.00  0.00    -0.246 OA
ATOM     15  H2  <0> d          10.169   1.359   5.647  0.00  0.00     0.173 HD
ATOM     16  C8  <0> d           5.282   3.088   2.580  0.00  0.00     0.136 A 
ATOM     17  O2  <0> d           8.731  -0.118   4.184  0.00  0.00    -0.267 OA
BRANCH  10  18
ATOM     18  C3  <0> d           7.826   5.190   5.028  0.00  0.00     0.135 C 
BRANCH  18  19
ATOM     19  C2  <0> d           6.931   5.366   6.256  0.00  0.00     0.016 C 
ATOM     20  C1  <0> d           6.724   6.857   6.528  0.00  0.00     0.006 C 
ENDBRANCH  18  19
ENDBRANCH  10  18
ENDBRANCH   1   5
BRANCH   3  21
ATOM     21  C10 <0> d           2.490   1.046  -0.015  0.00  0.00     0.158 C 
BRANCH  21  22
ATOM     22  C11 <0> d           1.175   1.783   0.000  0.00  0.00    -0.030 A 
ATOM     23  C16 <0> d           1.158   3.165   0.007  0.00  0.00     0.012 A 
ATOM     24  C15 <0> d          -0.047   3.842   0.022  0.00  0.00     0.043 A 
ATOM     25  C14 <0> d          -1.237   3.135   0.029  0.00  0.00     0.116 A 
ATOM     26  C13 <0> d          -1.219   1.750   0.017  0.00  0.00     0.043 A 
ATOM     27  F1  <0> d          -2.416   3.795   0.043  0.00  0.00    -0.206 F 
ATOM     28  C12 <0> d          -0.013   1.076   0.008  0.00  0.00     0.012 A 
ENDBRANCH  21  22
BRANCH  21  29
ATOM     29  C17 <0> d           3.036   1.023  -1.419  0.00  0.00     0.010 A 
ATOM     30  S1  <0> d           3.904   2.304  -2.310  0.00  0.00    -0.104 SA
ATOM     31  C20 <0> d           4.155   1.420  -3.841  0.00  0.00     0.050 A 
ATOM     32  C19 <0> d           3.564   0.229  -3.578  0.00  0.00     0.008 A 
ATOM     33  C18 <0> d           2.990   0.025  -2.336  0.00  0.00     0.017 A 
ENDBRANCH  21  29
ENDBRANCH   3  21
TORSDOF 6
