REMARK  2 active torsions:
REMARK  status: ('A' for Active; 'I' for Inactive)
REMARK    1  A    between atoms: C4_4  and  S1_10 
REMARK    2  A    between atoms: C6_6  and  N1_9 
ROOT
ATOM      1  C1  <0> d          -0.018   1.503   0.010  0.00  0.00     0.050 C 
ATOM      2  C2  <0> d           0.002  -0.004   0.002  0.00  0.00    -0.037 A 
ATOM      3  C3  <0> d           0.006  -0.688  -1.200  0.00  0.00     0.032 A 
ATOM      4  C4  <0> d           0.024  -2.071  -1.212  0.00  0.00     0.061 A 
ATOM      5  C5  <0> d           0.039  -2.774  -0.023  0.00  0.00     0.054 A 
ATOM      6  C6  <0> d           0.035  -2.091   1.186  0.00  0.00     0.049 A 
ATOM      7  C7  <0> d           0.023  -0.701   1.195  0.00  0.00     0.066 A 
ATOM      8 Cl1  <0> d           0.025   0.159   2.703  0.00  0.00    -0.081 Cl
ENDROOT
BRANCH   4   9
ATOM      9  S1  <0> d           0.029  -2.937  -2.746  0.00  0.00     0.172 S 
ATOM     10  O1  <0> d          -0.555  -4.199  -2.452  0.00  0.00    -0.223 OA
ATOM     11  O2  <0> d          -0.590  -2.049  -3.666  0.00  0.00    -0.223 OA
ATOM     12  C8  <0> d           1.783  -3.142  -3.161  0.00  0.00     0.167 C 
ENDBRANCH   4   9
BRANCH   6  13
ATOM     13  N1  <0> d           0.050  -2.799   2.391  0.00  0.00    -0.398 N 
ATOM     14  H6  <0> d           0.062  -3.769   2.383  0.00  0.00     0.156 HD
ATOM     15  H7  <0> d           0.047  -2.321   3.234  0.00  0.00     0.156 HD
ENDBRANCH   6  13
TORSDOF 2
