REMARK  1 active torsions:
REMARK  status: ('A' for Active; 'I' for Inactive)
REMARK    1  A    between atoms: C4_4  and  N1_15 
ROOT
ATOM      1  C1  <0> d           0.552   1.073  -0.476  0.00  0.00     0.026 C 
ATOM      2  C2  <0> d           0.350  -0.442  -0.417  0.00  0.00     0.112 C 
ATOM      3  C3  <0> d          -1.136  -0.765  -0.196  0.00  0.00     0.057 C 
ATOM      4  C4  <0> d          -1.357  -2.253  -0.399  0.00  0.00     0.221 C 
ATOM      5  C5  <0> d          -0.599  -3.117   0.565  0.00  0.00    -0.005 A 
ATOM      6  C6  <0> d          -1.121  -4.387   0.809  0.00  0.00     0.029 A 
ATOM      7  C7  <0> d          -0.487  -5.261   1.665  0.00  0.00     0.011 A 
ATOM      8  C8  <0> d           0.685  -4.883   2.295  0.00  0.00     0.020 A 
ATOM      9  C9  <0> d           1.202  -3.625   2.063  0.00  0.00     0.025 A 
ATOM     10  C10 <0> d           0.558  -2.742   1.208  0.00  0.00     0.068 A 
ATOM     11  S1  <0> d           1.261  -1.135   0.996  0.00  0.00     0.179 S 
ATOM     12  O1  <0> d           2.617  -1.371   0.639  0.00  0.00    -0.222 OA
ATOM     13  O2  <0> d           0.932  -0.433   2.186  0.00  0.00    -0.222 OA
ATOM     14 Br1  <0> d          -1.220  -6.976   1.979  0.00  0.00    -0.051 Br
ENDROOT
BRANCH   4  15
ATOM     15  N1  <0> d          -2.790  -2.538  -0.252  0.00  0.00    -0.071 N 
ATOM     16  C11 <0> d          -3.538  -1.851  -1.314  0.00  0.00     0.267 C 
ATOM     17  H11 <0> d          -2.944  -3.533  -0.321  0.00  0.00     0.277 HD
ATOM     18  H15 <0> d          -3.107  -2.211   0.649  0.00  0.00     0.277 HD
ENDBRANCH   4  15
TORSDOF 1
