REMARK  5 active torsions:
REMARK  status: ('A' for Active; 'I' for Inactive)
REMARK    1  A    between atoms: C2_2  and  N1_4 
REMARK    2  A    between atoms: C4_5  and  C6_10 
REMARK    3  A    between atoms: C6_10  and  N4_11 
REMARK       I    between atoms: N4_11  and  C7_12 
REMARK    4  A    between atoms: C7_12  and  C8_14 
REMARK    5  A    between atoms: C11_17  and  O2_21 
ROOT
ATOM      1  N4  <0> d           3.707  -2.570  -0.460  0.00  0.00    -0.350 N 
ATOM      2  C7  <0> d           4.520  -3.135   0.454  0.00  0.00     0.252 C 
ATOM      3  O1  <0> d           4.300  -2.984   1.640  0.00  0.00    -0.268 OA
ATOM      4  H11 <0> d           3.883  -2.690  -1.407  0.00  0.00     0.163 HD
ENDROOT
BRANCH   1   5
ATOM      5  C6  <0> d           2.557  -1.774  -0.025  0.00  0.00     0.203 C 
BRANCH   5   6
ATOM      6  C4  <0> d           1.816  -1.258  -1.232  0.00  0.00     0.147 A 
ATOM      7  N1  <0> d           0.688  -0.476  -1.203  0.00  0.00    -0.304 N 
ATOM      8  C5  <0> d           0.315  -0.223  -2.474  0.00  0.00     0.196 A 
ATOM      9  N3  <0> d           1.206  -0.831  -3.285  0.00  0.00    -0.251 N 
ATOM     10  S1  <0> d          -1.037   0.704  -2.968  0.00  0.00    -0.039 SA
ATOM     11  N2  <0> d           2.140  -1.480  -2.465  0.00  0.00    -0.157 NA
ATOM     12  H8  <0> d           1.199  -0.824  -4.255  0.00  0.00     0.191 HD
BRANCH   7  13
ATOM     13  C2  <0> d           0.002  -0.004   0.002  0.00  0.00     0.086 C 
ATOM     14  C1  <0> d          -0.019   1.526   0.010  0.00  0.00     0.032 C 
ATOM     15  C3  <0> d          -1.433  -0.534   0.013  0.00  0.00     0.032 C 
ENDBRANCH   7  13
ENDBRANCH   5   6
ENDBRANCH   1   5
BRANCH   2  16
ATOM     16  C8  <0> d           5.679  -3.937   0.015  0.00  0.00     0.033 A 
ATOM     17  C13 <0> d           6.523  -4.524   0.961  0.00  0.00     0.039 A 
ATOM     18  C12 <0> d           7.601  -5.277   0.547  0.00  0.00     0.045 A 
ATOM     19  C11 <0> d           7.854  -5.442  -0.810  0.00  0.00     0.085 A 
ATOM     20 Br1  <0> d           8.739  -6.079   1.825  0.00  0.00    -0.048 Br
ATOM     21  C10 <0> d           7.020  -4.855  -1.754  0.00  0.00     0.039 A 
ATOM     22  C9  <0> d           5.938  -4.107  -1.348  0.00  0.00     0.020 A 
BRANCH  19  23
ATOM     23  O2  <0> d           8.920  -6.180  -1.215  0.00  0.00    -0.355 OA
ATOM     24  C14 <0> d           9.122  -6.310  -2.623  0.00  0.00     0.210 C 
ENDBRANCH  19  23
ENDBRANCH   2  16
TORSDOF 5
