REMARK  3 active torsions:
REMARK  status: ('A' for Active; 'I' for Inactive)
REMARK    1  A    between atoms: C4_4  and  N5_22 
REMARK    2  A    between atoms: C8_9  and  N2_12 
REMARK    3  A    between atoms: N2_12  and  C11_13 
ROOT
ATOM      1  C1  <0> d          -6.136   3.725  -0.204  0.00  0.00     0.049 C 
ATOM      2  C2  <0> d          -6.049   2.237   0.019  0.00  0.00    -0.046 A 
ATOM      3  C3  <0> d          -7.177   1.480   0.130  0.00  0.00     0.052 A 
ATOM      4  C4  <0> d          -7.072   0.098   0.338  0.00  0.00     0.106 A 
ATOM      5  N1  <0> d          -5.901  -0.498   0.430  0.00  0.00    -0.236 NA
ATOM      6  C5  <0> d          -4.760   0.193   0.329  0.00  0.00     0.069 A 
ATOM      7  C6  <0> d          -4.799   1.593   0.119  0.00  0.00     0.001 A 
ATOM      8  C7  <0> d          -3.600   2.314   0.014  0.00  0.00     0.043 A 
ATOM      9  C8  <0> d          -2.398   1.649   0.117  0.00  0.00     0.035 A 
ATOM     10  C9  <0> d          -2.365   0.265   0.319  0.00  0.00     0.032 A 
ATOM     11  C10 <0> d          -3.515  -0.453   0.429  0.00  0.00     0.035 A 
ENDROOT
BRANCH   9  12
ATOM     12  N2  <0> d          -1.199   2.364   0.013  0.00  0.00    -0.333 N 
ATOM     13  H8  <0> d          -1.217   3.461  -0.067  0.00  0.00     0.168 HD
BRANCH  12  14
ATOM     14  C11 <0> d          -0.021   1.707   0.010  0.00  0.00     0.174 C 
ATOM     15  S1  <0> d           0.923   1.638   1.437  0.00  0.00    -0.041 SA
ATOM     16  N3  <0> d           0.410   1.101  -1.114  0.00  0.00    -0.355 N 
ATOM     17  C15 <0> d           1.736   0.468  -1.168  0.00  0.00     0.153 C 
ATOM     18  C12 <0> d          -0.436   1.050  -2.316  0.00  0.00     0.153 C 
ATOM     19  C14 <0> d           2.475   0.991  -2.405  0.00  0.00     0.254 C 
ATOM     20  N4  <0> d           1.638   0.786  -3.595  0.00  0.00    -0.072 N 
ATOM     21  C13 <0> d           0.390   1.556  -3.509  0.00  0.00     0.254 C 
ATOM     22  C16 <0> d           2.377   1.115  -4.821  0.00  0.00     0.269 C 
ATOM     23  H31 <0> d           1.371  -0.281  -3.635  0.00  0.00     0.279 HD
ENDBRANCH  12  14
ENDBRANCH   9  12
BRANCH   4  24
ATOM     24  N5  <0> d          -8.229  -0.660   0.449  0.00  0.00    -0.265 NA
ATOM     25  C20 <0> d          -7.910  -2.079   0.662  0.00  0.00     0.125 C 
ATOM     26  C19 <0> d          -9.207  -2.890   0.700  0.00  0.00     0.249 C 
ATOM     27  N6  <0> d         -10.071  -2.380   1.774  0.00  0.00    -0.073 N 
ATOM     28  C18 <0> d         -10.389  -0.961   1.560  0.00  0.00     0.249 C 
ATOM     29  C21 <0> d         -11.295  -3.182   1.891  0.00  0.00     0.269 C 
ATOM     30  H32 <0> d          -9.520  -2.465   2.722  0.00  0.00     0.279 HD
ATOM     31  C17 <0> d          -9.092  -0.150   1.523  0.00  0.00     0.125 C 
ENDBRANCH   4  24
TORSDOF 3
