REMARK  4 active torsions:
REMARK  status: ('A' for Active; 'I' for Inactive)
REMARK    1  A    between atoms: C2_2  and  C4_4 
REMARK    2  A    between atoms: C6_7  and  N3_13 
REMARK    3  A    between atoms: C7_8  and  C8_10 
REMARK    4  A    between atoms: N3_13  and  C10_15 
ROOT
ATOM      1  C4  <0> d           0.817  -0.282  -1.226  0.00  0.00     0.130 A 
ATOM      2  N1  <0> d           1.878  -1.063  -1.132  0.00  0.00    -0.243 NA
ATOM      3  C5  <0> d           2.442  -1.581  -2.205  0.00  0.00     0.150 A 
ATOM      4  C6  <0> d           1.900  -1.292  -3.463  0.00  0.00     0.084 A 
ATOM      5  C7  <0> d           0.773  -0.458  -3.520  0.00  0.00     0.163 A 
ATOM      6  N2  <0> d           0.268   0.016  -2.381  0.00  0.00    -0.224 NA
ENDROOT
BRANCH   4   7
ATOM      7  N3  <0> d           2.461  -1.815  -4.619  0.00  0.00    -0.377 N 
ATOM      8  C9  <0> d           3.373  -0.999  -5.424  0.00  0.00     0.150 C 
BRANCH   7   9
ATOM      9  C10 <0> d           2.142  -3.183  -5.034  0.00  0.00     0.087 C 
ATOM     10  C14 <0> d           1.590  -3.169  -6.463  0.00  0.00     0.053 C 
ATOM     11  C13 <0> d           1.334  -4.607  -6.919  0.00  0.00     0.236 C 
ATOM     12  N4  <0> d           2.590  -5.366  -6.885  0.00  0.00    -0.075 N 
ATOM     13  C12 <0> d           3.087  -5.445  -5.506  0.00  0.00     0.236 C 
ATOM     14  C15 <0> d           2.354  -6.723  -7.397  0.00  0.00     0.269 C 
ATOM     15  H24 <0> d           3.276  -4.905  -7.463  0.00  0.00     0.279 HD
ATOM     16  C11 <0> d           3.411  -4.039  -4.996  0.00  0.00     0.053 C 
ENDBRANCH   7   9
ENDBRANCH   4   7
BRANCH   5  17
ATOM     17  C8  <0> d           0.155  -0.115  -4.818  0.00  0.00     0.231 C 
ATOM     18  O1  <0> d           0.595  -0.599  -5.851  0.00  0.00    -0.643 OA
ATOM     19  O2  <0> d          -0.795   0.653  -4.859  0.00  0.00    -0.643 OA
ENDBRANCH   5  17
BRANCH   1  20
ATOM     20  C2  <0> d           0.213   0.282   0.035  0.00  0.00     0.049 C 
ATOM     21  C1  <0> d          -0.227  -0.865   0.946  0.00  0.00     0.018 C 
ATOM     22  C3  <0> d           1.254   1.139   0.759  0.00  0.00     0.018 C 
ENDBRANCH   1  20
TORSDOF 4
