REMARK  4 active torsions:
REMARK  status: ('A' for Active; 'I' for Inactive)
REMARK    1  A    between atoms: C2_2  and  N1_3 
REMARK    2  A    between atoms: C5_7  and  N2_10 
REMARK    3  A    between atoms: N2_10  and  C7_11 
REMARK    4  A    between atoms: N3_14  and  S1_17 
ROOT
ATOM      1  N2  <0> d           3.332  -0.250  -3.258  0.00  0.00    -0.058 N 
ATOM      2  H9  <0> d           3.512  -0.436  -4.233  0.00  0.00     0.278 HD
ATOM      3  H22 <0> d           2.896   0.655  -3.163  0.00  0.00     0.278 HD
ENDROOT
BRANCH   1   4
ATOM      4  C5  <0> d           2.438  -1.283  -2.720  0.00  0.00     0.286 A 
ATOM      5  C4  <0> d           3.014  -2.690  -2.981  0.00  0.00     0.146 A 
ATOM      6  C3  <0> d           1.964  -3.348  -3.848  0.00  0.00     0.229 A 
ATOM      7  N1  <0> d           0.960  -2.487  -4.054  0.00  0.00    -0.287 N 
ATOM      8  O1  <0> d           2.021  -4.477  -4.286  0.00  0.00    -0.273 OA
ATOM      9  C6  <0> d           1.125  -1.293  -3.471  0.00  0.00     0.257 A 
ATOM     10  O2  <0> d           0.344  -0.368  -3.532  0.00  0.00    -0.271 OA
BRANCH   7  11
ATOM     11  C2  <0> d          -0.219  -2.821  -4.857  0.00  0.00     0.130 C 
ATOM     12  C1  <0> d           0.039  -2.451  -6.320  0.00  0.00     0.027 C 
ENDBRANCH   7  11
ENDBRANCH   1   4
BRANCH   1  13
ATOM     13  C7  <0> d           4.599  -0.263  -2.515  0.00  0.00     0.190 C 
ATOM     14  C11 <0> d           5.585   0.707  -3.170  0.00  0.00     0.053 C 
ATOM     15  C10 <0> d           6.916   0.665  -2.413  0.00  0.00     0.137 C 
ATOM     16  N3  <0> d           6.661   0.933  -0.992  0.00  0.00    -0.311 N 
ATOM     17  C9  <0> d           5.664   0.116  -0.287  0.00  0.00     0.137 C 
ATOM     18  C8  <0> d           4.346   0.164  -1.067  0.00  0.00     0.053 C 
BRANCH  16  19
ATOM     19  S1  <0> d           7.481   2.133  -0.198  0.00  0.00     0.224 S 
ATOM     20  O3  <0> d           7.843   3.058  -1.215  0.00  0.00    -0.206 OA
ATOM     21  O4  <0> d           6.619   2.522   0.862  0.00  0.00    -0.206 OA
ATOM     22  C12 <0> d           8.963   1.324   0.466  0.00  0.00     0.186 C 
ENDBRANCH  16  19
ENDBRANCH   1  13
TORSDOF 4
