REMARK  7 active torsions:
REMARK  status: ('A' for Active; 'I' for Inactive)
REMARK    1  A    between atoms: N1_2  and  C3_4 
REMARK    2  A    between atoms: C5_6  and  C8_10 
REMARK    3  A    between atoms: C8_10  and  N3_11 
REMARK       I    between atoms: N3_11  and  C9_12 
REMARK       I    between atoms: C9_12  and  N4_14 
REMARK    4  A    between atoms: N4_14  and  C10_15 
REMARK    5  A    between atoms: C10_15  and  C11_16 
REMARK    6  A    between atoms: C11_16  and  C12_17 
REMARK    7  A    between atoms: C11_16  and  O2_27 
ROOT
ATOM      1  N3  <0> d          -1.351  -4.764  -2.463  0.00  0.00    -0.339 N 
ATOM      2  C9  <0> d          -1.585  -6.091  -2.499  0.00  0.00     0.316 C 
ATOM      3  O1  <0> d          -0.653  -6.872  -2.529  0.00  0.00    -0.247 OA
ATOM      4  N4  <0> d          -2.851  -6.552  -2.503  0.00  0.00    -0.340 N 
ATOM      5  H13 <0> d          -2.094  -4.141  -2.439  0.00  0.00     0.164 HD
ATOM      6  H14 <0> d          -3.594  -5.930  -2.479  0.00  0.00     0.164 HD
ENDROOT
BRANCH   4   7
ATOM      7  C10 <0> d          -3.105  -7.995  -2.543  0.00  0.00     0.161 C 
BRANCH   7   8
ATOM      8  C11 <0> d          -4.614  -8.247  -2.539  0.00  0.00     0.169 C 
BRANCH   8   9
ATOM      9  C12 <0> d          -4.875  -9.729  -2.456  0.00  0.00    -0.027 A 
ATOM     10  C21 <0> d          -5.201 -10.286  -1.258  0.00  0.00     0.022 A 
ATOM     11  C20 <0> d          -5.451 -11.667  -1.179  0.00  0.00    -0.025 A 
ATOM     12  C15 <0> d          -5.347 -12.460  -2.348  0.00  0.00    -0.026 A 
ATOM     13  C19 <0> d          -5.795 -12.277   0.040  0.00  0.00     0.012 A 
ATOM     14  C14 <0> d          -5.002 -11.850  -3.566  0.00  0.00     0.013 A 
ATOM     15  C16 <0> d          -5.591 -13.842  -2.268  0.00  0.00     0.012 A 
ATOM     16  C13 <0> d          -4.772 -10.509  -3.607  0.00  0.00     0.011 A 
ATOM     17  C17 <0> d          -5.923 -14.399  -1.071  0.00  0.00     0.001 A 
ATOM     18  C18 <0> d          -6.025 -13.618   0.080  0.00  0.00     0.001 A 
ENDBRANCH   8   9
BRANCH   8  19
ATOM     19  O2  <0> d          -5.187  -7.729  -3.741  0.00  0.00    -0.389 OA
ATOM     20  H24 <0> d          -4.833  -8.127  -4.549  0.00  0.00     0.210 HD
ENDBRANCH   8  19
ENDBRANCH   7   8
ENDBRANCH   4   7
BRANCH   1  21
ATOM     21  C8  <0> d           0.025  -4.262  -2.458  0.00  0.00     0.163 C 
BRANCH  21  22
ATOM     22  C5  <0> d           0.011  -2.756  -2.415  0.00  0.00    -0.035 A 
ATOM     23  C4  <0> d           0.013  -2.084  -1.206  0.00  0.00     0.057 A 
ATOM     24  C3  <0> d           0.000  -0.693  -1.206  0.00  0.00     0.102 A 
ATOM     25  N2  <0> d          -0.020  -0.019  -2.345  0.00  0.00    -0.352 N 
ATOM     26  C7  <0> d          -0.017  -0.633  -3.513  0.00  0.00     0.090 A 
ATOM     27  H25 <0> d          -0.033   0.951  -2.321  0.00  0.00     0.166 HD
ATOM     28  C6  <0> d          -0.004  -2.012  -3.587  0.00  0.00     0.026 A 
BRANCH  24  29
ATOM     29  N1  <0> d           0.002  -0.004   0.002  0.00  0.00    -0.376 N 
ATOM     30  C1  <0> d          -0.018   1.461   0.010  0.00  0.00     0.150 C 
ATOM     31  C2  <0> d           0.024  -0.743   1.267  0.00  0.00     0.150 C 
ENDBRANCH  24  29
ENDBRANCH  21  22
ENDBRANCH   1  21
TORSDOF 7
