REMARK  3 active torsions:
REMARK  status: ('A' for Active; 'I' for Inactive)
REMARK    1  A    between atoms: C3_3  and  N1_12 
REMARK    2  A    between atoms: C4_4  and  C7_8 
REMARK       I    between atoms: N1_12  and  C8_13 
REMARK    3  A    between atoms: C8_13  and  C9_15 
ROOT
ATOM      1  N1  <0> d           3.584   2.124  -0.021  0.00  0.00    -0.324 N 
ATOM      2  C8  <0> d           3.569   3.469  -0.116  0.00  0.00     0.253 C 
ATOM      3  O1  <0> d           2.513   4.066  -0.103  0.00  0.00    -0.270 OA
ATOM      4  H5  <0> d           4.429   1.652   0.034  0.00  0.00     0.169 HD
ENDROOT
BRANCH   1   5
ATOM      5  C3  <0> d           2.381   1.410  -0.003  0.00  0.00     0.050 A 
ATOM      6  C2  <0> d           1.261   1.950   0.617  0.00  0.00     0.032 A 
ATOM      7  C1  <0> d           0.075   1.243   0.633  0.00  0.00     0.021 A 
ATOM      8  C6  <0> d           0.001  -0.002   0.033  0.00  0.00     0.011 A 
ATOM      9  C5  <0> d           1.115  -0.542  -0.585  0.00  0.00     0.037 A 
ATOM     10 Br1  <0> d          -1.625  -0.966   0.059  0.00  0.00    -0.051 Br
ATOM     11  C4  <0> d           2.304   0.161  -0.604  0.00  0.00     0.075 A 
BRANCH  11  12
ATOM     12  C7  <0> d           3.517  -0.428  -1.278  0.00  0.00     0.419 C 
ATOM     13  F1  <0> d           3.194  -1.683  -1.805  0.00  0.00    -0.166 F 
ATOM     14  F2  <0> d           3.933   0.419  -2.310  0.00  0.00    -0.166 F 
ATOM     15  F3  <0> d           4.548  -0.566  -0.343  0.00  0.00    -0.166 F 
ENDBRANCH  11  12
ENDBRANCH   1   5
BRANCH   2  16
ATOM     16  C9  <0> d           4.863   4.231  -0.238  0.00  0.00     0.239 C 
ATOM     17  O2  <0> d           4.583   5.619  -0.438  0.00  0.00    -0.373 OA
ATOM     18  C12 <0> d           5.755   6.435  -0.516  0.00  0.00     0.196 C 
ATOM     19  C11 <0> d           6.574   6.268   0.766  0.00  0.00     0.258 C 
ATOM     20  N2  <0> d           6.915   4.850   0.946  0.00  0.00    -0.070 N 
ATOM     21  C10 <0> d           5.680   4.059   1.045  0.00  0.00     0.274 C 
ATOM     22  H8  <0> d           7.455   4.738   1.790  0.00  0.00     0.277 HD
ATOM     23  H13 <0> d           7.456   4.531   0.156  0.00  0.00     0.277 HD
ENDBRANCH   2  16
TORSDOF 3
