REMARK  6 active torsions:
REMARK  status: ('A' for Active; 'I' for Inactive)
REMARK    1  A    between atoms: N2_6  and  C5_7 
REMARK    2  A    between atoms: C5_7  and  C6_8 
REMARK    3  A    between atoms: C6_8  and  O1_9 
REMARK    4  A    between atoms: O1_9  and  C7_10 
REMARK    5  A    between atoms: C7_10  and  C8_12 
REMARK    6  A    between atoms: C10_14  and  N3_20 
ROOT
ATOM      1  C7  <0> d          -2.594   0.604   4.877  0.00  0.00     0.296 C 
ATOM      2  O2  <0> d          -3.613   0.474   4.229  0.00  0.00    -0.259 OA
ENDROOT
BRANCH   1   3
ATOM      3  O1  <0> d          -1.399   0.335   4.314  0.00  0.00    -0.316 OA
BRANCH   3   4
ATOM      4  C6  <0> d          -1.406  -0.098   2.953  0.00  0.00     0.199 C 
BRANCH   4   5
ATOM      5  C5  <0> d           0.030  -0.353   2.491  0.00  0.00     0.156 C 
BRANCH   5   6
ATOM      6  N2  <0> d           0.023  -0.797   1.095  0.00  0.00    -0.344 N 
ATOM      7  C2  <0> d           0.002  -0.004   0.002  0.00  0.00     0.079 A 
ATOM      8  C1  <0> d          -0.018   1.503   0.010  0.00  0.00     0.089 C 
ATOM      9  N1  <0> d           0.008  -0.759  -1.063  0.00  0.00    -0.355 N 
ATOM     10  C3  <0> d           0.028  -2.047  -0.691  0.00  0.00     0.106 A 
ATOM     11  H14 <0> d          -0.000  -0.438  -1.978  0.00  0.00     0.166 HD
ATOM     12  C4  <0> d           0.034  -2.093   0.655  0.00  0.00     0.109 A 
ENDBRANCH   5   6
ENDBRANCH   4   5
ENDBRANCH   3   4
ENDBRANCH   1   3
BRANCH   1  13
ATOM     13  C8  <0> d          -2.663   1.055   6.279  0.00  0.00     0.080 A 
ATOM     14  C13 <0> d          -3.902   1.335   6.865  0.00  0.00     0.135 A 
ATOM     15  C12 <0> d          -3.964   1.752   8.182  0.00  0.00     0.088 A 
ATOM     16  F1  <0> d          -5.038   1.192   6.148  0.00  0.00    -0.205 F 
ATOM     17  C11 <0> d          -2.802   1.906   8.918  0.00  0.00     0.145 A 
ATOM     18  C10 <0> d          -1.564   1.635   8.339  0.00  0.00     0.066 A 
ATOM     19  F2  <0> d          -2.869   2.319  10.203  0.00  0.00    -0.204 F 
ATOM     20  C9  <0> d          -1.491   1.211   7.025  0.00  0.00     0.053 A 
BRANCH  18  21
ATOM     21  N3  <0> d          -0.392   1.792   9.089  0.00  0.00    -0.397 N 
ATOM     22  H12 <0> d           0.470   1.603   8.687  0.00  0.00     0.156 HD
ATOM     23  H13 <0> d          -0.443   2.089  10.011  0.00  0.00     0.156 HD
ENDBRANCH  18  21
ENDBRANCH   1  13
TORSDOF 6
