REMARK  6 active torsions:
REMARK  status: ('A' for Active; 'I' for Inactive)
REMARK    1  A    between atoms: C9_9  and  C11_14 
REMARK    2  A    between atoms: C11_14  and  C12_15 
REMARK    3  A    between atoms: C11_14  and  N6_24 
REMARK    4  A    between atoms: N5_19  and  C13_20 
REMARK    5  A    between atoms: C13_20  and  C14_21 
REMARK    6  A    between atoms: C14_21  and  O2_22 
ROOT
ATOM      1  C11 <0> d           2.502   1.856  -0.011  0.00  0.00     0.334 C 
ENDROOT
BRANCH   1   2
ATOM      2  C9  <0> d           3.014   2.018  -1.419  0.00  0.00     0.051 A 
ATOM      3  C8  <0> d           3.328   0.922  -2.154  0.00  0.00     0.029 A 
ATOM      4  C6  <0> d           3.823   1.113  -3.518  0.00  0.00    -0.008 A 
ATOM      5  C5  <0> d           3.955   2.422  -4.019  0.00  0.00     0.045 A 
ATOM      6  C7  <0> d           4.163   0.021  -4.324  0.00  0.00     0.020 A 
ATOM      7  C4  <0> d           4.424   2.613  -5.315  0.00  0.00     0.031 A 
ATOM      8  N1  <0> d           3.618   3.494  -3.221  0.00  0.00    -0.322 N 
ATOM      9  C3  <0> d           4.753   1.523  -6.091  0.00  0.00     0.009 A 
ATOM     10  C2  <0> d           4.621   0.233  -5.593  0.00  0.00    -0.061 A 
ATOM     11  C1  <0> d           4.988  -0.943  -6.461  0.00  0.00     0.048 C 
ATOM     12  C10 <0> d           3.159   3.309  -1.971  0.00  0.00     0.254 A 
ATOM     13  H1  <0> d           3.723   4.520  -3.605  0.00  0.00     0.169 HD
ATOM     14  O1  <0> d           2.867   4.280  -1.295  0.00  0.00    -0.268 OA
ENDBRANCH   1   2
BRANCH   1  15
ATOM     15  C12 <0> d           1.070   2.321   0.059  0.00  0.00     0.186 A 
ATOM     16  N5  <0> d          -0.028   1.542   0.077  0.00  0.00    -0.230 N 
ATOM     17  N4  <0> d          -1.050   2.326   0.136  0.00  0.00    -0.044 NA
ATOM     18  N3  <0> d          -0.636   3.545   0.164  0.00  0.00    -0.023 NA
ATOM     19  N2  <0> d           0.651   3.562   0.115  0.00  0.00    -0.111 NA
BRANCH  16  20
ATOM     20  C13 <0> d          -0.056   0.077   0.032  0.00  0.00     0.180 C 
BRANCH  20  21
ATOM     21  C14 <0> d          -0.010  -0.478   1.456  0.00  0.00     0.189 C 
BRANCH  21  22
ATOM     22  O2  <0> d          -0.038  -1.906   1.412  0.00  0.00    -0.394 OA
ATOM     23  C15 <0> d           0.002  -2.528   2.698  0.00  0.00     0.201 C 
ENDBRANCH  21  22
ENDBRANCH  20  21
ENDBRANCH  16  20
ENDBRANCH   1  15
BRANCH   1  24
ATOM     24  N6  <0> d           3.322   2.661   0.904  0.00  0.00     0.108 N 
ATOM     25  C22 <0> d           2.735   2.686   2.257  0.00  0.00     0.307 C 
ATOM     26  C21 <0> d           3.609   3.589   3.116  0.00  0.00     0.216 C 
ATOM     27  N7  <0> d           4.960   2.967   3.177  0.00  0.00    -0.064 N 
ATOM     28  C20 <0> d           3.184   3.671   4.585  0.00  0.00     0.036 C 
ATOM     29  C17 <0> d           5.574   3.043   1.859  0.00  0.00     0.265 C 
ATOM     30  C18 <0> d           5.624   3.692   4.270  0.00  0.00     0.235 C 
ATOM     31  H30 <0> d           5.015   1.891   3.395  0.00  0.00     0.280 HD
ATOM     32  C16 <0> d           4.715   2.204   0.900  0.00  0.00     0.301 C 
ATOM     33  C19 <0> d           4.522   3.789   5.359  0.00  0.00     0.030 C 
ENDBRANCH   1  24
TORSDOF 6
