REMARK  5 active torsions:
REMARK  status: ('A' for Active; 'I' for Inactive)
REMARK    1  A    between atoms: C4_4  and  N1_5 
REMARK    2  A    between atoms: N1_5  and  S1_6 
REMARK    3  A    between atoms: S1_6  and  C5_9 
REMARK    4  A    between atoms: C8_12  and  N2_15 
REMARK       I    between atoms: N2_15  and  C11_16 
REMARK    5  A    between atoms: C11_16  and  C12_18 
ROOT
ATOM      1  C5  <0> d           0.061  -5.059  -3.922  0.00  0.00     0.081 A 
ATOM      2  C6  <0> d          -1.123  -5.468  -4.507  0.00  0.00     0.027 A 
ATOM      3  C7  <0> d          -1.129  -5.934  -5.807  0.00  0.00     0.031 A 
ATOM      4  C8  <0> d           0.057  -5.991  -6.527  0.00  0.00     0.035 A 
ATOM      5  C9  <0> d           1.245  -5.580  -5.937  0.00  0.00     0.031 A 
ATOM      6  C10 <0> d           1.243  -5.110  -4.638  0.00  0.00     0.027 A 
ENDROOT
BRANCH   1   7
ATOM      7  S1  <0> d           0.063  -4.465  -2.263  0.00  0.00     0.285 S 
ATOM      8  O1  <0> d           1.382  -4.651  -1.767  0.00  0.00    -0.198 OA
ATOM      9  O2  <0> d          -1.076  -5.029  -1.629  0.00  0.00    -0.198 OA
BRANCH   7  10
ATOM     10  N1  <0> d          -0.192  -2.830  -2.328  0.00  0.00    -0.140 NA
BRANCH  10  11
ATOM     11  C4  <0> d          -0.239  -2.090  -1.158  0.00  0.00     0.166 A 
ATOM     12  C3  <0> d          -0.454  -0.710  -1.200  0.00  0.00     0.080 A 
ATOM     13  C2  <0> d          -0.492  -0.017  -0.007  0.00  0.00     0.036 A 
ATOM     14  C1  <0> d          -0.721   1.473   0.002  0.00  0.00     0.070 C 
ATOM     15  N4  <0> d          -0.321  -0.676   1.130  0.00  0.00    -0.239 NA
ATOM     16  C16 <0> d          -0.126  -1.979   1.137  0.00  0.00     0.124 A 
ATOM     17  N3  <0> d          -0.082  -2.681   0.022  0.00  0.00    -0.214 NA
ATOM     18  C17 <0> d           0.057  -2.686   2.455  0.00  0.00     0.093 C 
ENDBRANCH  10  11
ENDBRANCH   7  10
ENDBRANCH   1   7
BRANCH   4  19
ATOM     19  N2  <0> d           0.056  -6.463  -7.844  0.00  0.00    -0.321 N 
ATOM     20  C11 <0> d           1.119  -7.143  -8.317  0.00  0.00     0.279 C 
ATOM     21  O3  <0> d           2.038  -7.430  -7.573  0.00  0.00    -0.265 OA
ATOM     22  H9  <0> d          -0.711  -6.301  -8.416  0.00  0.00     0.169 HD
BRANCH  20  23
ATOM     23  C12 <0> d           1.167  -7.537  -9.729  0.00  0.00     0.142 A 
ATOM     24  O4  <0> d           0.220  -7.284 -10.655  0.00  0.00    -0.317 OA
ATOM     25  C15 <0> d           0.605  -7.790 -11.834  0.00  0.00     0.143 A 
ATOM     26  C14 <0> d           1.808  -8.386 -11.679  0.00  0.00     0.027 A 
ATOM     27  C13 <0> d           2.177  -8.229 -10.334  0.00  0.00     0.045 A 
ENDBRANCH  20  23
ENDBRANCH   4  19
TORSDOF 5
