REMARK  4 active torsions:
REMARK  status: ('A' for Active; 'I' for Inactive)
REMARK    1  A    between atoms: C5_5  and  C8_10 
REMARK       I    between atoms: C8_10  and  N1_12 
REMARK    2  A    between atoms: C10_14  and  C17_22 
REMARK       I    between atoms: C17_22  and  N3_24 
REMARK    3  A    between atoms: N3_24  and  C18_25 
REMARK    4  A    between atoms: C18_25  and  C19_26 
ROOT
ATOM      1  C8  <0> d           0.160  -4.532   0.066  0.00  0.00     0.257 C 
ATOM      2  O1  <0> d           0.289  -5.231   1.052  0.00  0.00    -0.267 OA
ATOM      3  N1  <0> d           0.024  -5.098  -1.149  0.00  0.00    -0.346 N 
ATOM      4  C9  <0> d          -0.036  -4.420  -2.466  0.00  0.00     0.141 C 
ATOM      5  C10 <0> d           0.779  -5.332  -3.412  0.00  0.00     0.106 C 
ATOM      6  C11 <0> d           0.731  -6.721  -2.754  0.00  0.00    -0.007 C 
ATOM      7  C12 <0> d          -0.093  -6.541  -1.472  0.00  0.00     0.136 C 
ATOM      8  C13 <0> d           2.141  -7.190  -2.406  0.00  0.00     0.039 C 
ATOM      9  C14 <0> d           2.072  -8.597  -1.806  0.00  0.00     0.233 C 
ATOM     10  N2  <0> d           1.456  -9.513  -2.773  0.00  0.00    -0.075 N 
ATOM     11  C15 <0> d           0.069  -9.109  -3.032  0.00  0.00     0.233 C 
ATOM     12  C16 <0> d           0.052  -7.723  -3.683  0.00  0.00     0.039 C 
ATOM     13  H16 <0> d           1.978  -9.491  -3.636  0.00  0.00     0.277 HD
ATOM     14  H30 <0> d           1.467 -10.451  -2.400  0.00  0.00     0.277 HD
ENDROOT
BRANCH   1  15
ATOM     15  C5  <0> d           0.153  -3.061   0.200  0.00  0.00     0.073 A 
ATOM     16  C4  <0> d          -0.637  -2.283  -0.649  0.00  0.00     0.021 A 
ATOM     17  C3  <0> d          -0.641  -0.910  -0.519  0.00  0.00     0.011 A 
ATOM     18  C2  <0> d           0.137  -0.300   0.450  0.00  0.00    -0.020 A 
ATOM     19  C1  <0> d           0.126   1.201   0.584  0.00  0.00     0.051 C 
ATOM     20  C7  <0> d           0.929  -1.060   1.292  0.00  0.00     0.161 A 
ATOM     21  C6  <0> d           0.938  -2.441   1.177  0.00  0.00     0.171 A 
ATOM     22  F1  <0> d           1.690  -0.457   2.231  0.00  0.00    -0.202 F 
ATOM     23  F2  <0> d           1.706  -3.186   2.002  0.00  0.00    -0.202 F 
ENDBRANCH   1  15
BRANCH   5  24
ATOM     24  C17 <0> d           2.201  -4.845  -3.513  0.00  0.00     0.224 C 
ATOM     25  O2  <0> d           2.714  -4.272  -2.576  0.00  0.00    -0.273 OA
ATOM     26  N3  <0> d           2.903  -5.047  -4.646  0.00  0.00    -0.358 N 
ATOM     27  H21 <0> d           2.493  -5.506  -5.395  0.00  0.00     0.162 HD
BRANCH  26  28
ATOM     28  C18 <0> d           4.286  -4.574  -4.744  0.00  0.00     0.154 C 
BRANCH  28  29
ATOM     29  C19 <0> d           4.849  -4.928  -6.122  0.00  0.00     0.139 C 
ATOM     30  O3  <0> d           4.886  -6.354  -6.295  0.00  0.00    -0.384 OA
ATOM     31  C22 <0> d           6.057  -6.726  -7.034  0.00  0.00     0.168 C 
ATOM     32  C21 <0> d           6.854  -5.436  -7.327  0.00  0.00     0.029 C 
ATOM     33  C20 <0> d           6.324  -4.467  -6.235  0.00  0.00     0.035 C 
ENDBRANCH  28  29
ENDBRANCH  26  28
ENDBRANCH   5  24
TORSDOF 4
