REMARK  4 active torsions:
REMARK  status: ('A' for Active; 'I' for Inactive)
REMARK    1  A    between atoms: C5_5  and  C9_9 
REMARK    2  A    between atoms: C9_9  and  C10_10 
REMARK    3  A    between atoms: C9_9  and  O3_21 
REMARK    4  A    between atoms: C10_10  and  N1_11 
ROOT
ATOM      1  C9  <0> d           0.059  -4.275  -0.021  0.00  0.00     0.170 C 
ENDROOT
BRANCH   1   2
ATOM      2  C5  <0> d           0.040  -2.768  -0.013  0.00  0.00    -0.022 A 
ATOM      3  C4  <0> d           0.025  -2.071  -1.207  0.00  0.00     0.011 A 
ATOM      4  C3  <0> d           0.006  -0.689  -1.199  0.00  0.00     0.007 A 
ATOM      5  C2  <0> d           0.002  -0.004   0.002  0.00  0.00    -0.061 A 
ATOM      6  C1  <0> d          -0.018   1.503   0.010  0.00  0.00     0.048 C 
ATOM      7  C7  <0> d           0.023  -0.702   1.195  0.00  0.00     0.014 A 
ATOM      8  C6  <0> d           0.037  -2.084   1.188  0.00  0.00    -0.053 A 
ATOM      9  C8  <0> d           0.054  -2.845   2.489  0.00  0.00     0.049 C 
ENDBRANCH   1   2
BRANCH   1  10
ATOM     10  C10 <0> d          -1.370  -4.804   0.109  0.00  0.00     0.171 C 
BRANCH  10  11
ATOM     11  N1  <0> d          -1.342  -6.265   0.221  0.00  0.00    -0.286 N 
ATOM     12  C15 <0> d          -1.256  -6.816   1.441  0.00  0.00     0.227 C 
ATOM     13  C14 <0> d          -1.216  -8.310   1.623  0.00  0.00     0.112 C 
ATOM     14  O2  <0> d          -1.214  -6.097   2.417  0.00  0.00    -0.273 OA
ATOM     15  C13 <0> d          -1.970  -8.980   0.469  0.00  0.00    -0.031 C 
ATOM     16  C12 <0> d          -1.360  -8.503  -0.854  0.00  0.00     0.112 C 
ATOM     17  C16 <0> d          -1.832 -10.500   0.579  0.00  0.00     0.016 C 
ATOM     18  C17 <0> d          -3.448  -8.589   0.524  0.00  0.00     0.016 C 
ATOM     19  C11 <0> d          -1.397  -6.998  -0.900  0.00  0.00     0.227 C 
ATOM     20  O1  <0> d          -1.479  -6.439  -1.973  0.00  0.00    -0.273 OA
ENDBRANCH  10  11
ENDBRANCH   1  10
BRANCH   1  21
ATOM     21  O3  <0> d           0.628  -4.738  -1.248  0.00  0.00    -0.389 OA
ATOM     22  H23 <0> d           0.146  -4.454  -2.037  0.00  0.00     0.210 HD
ENDBRANCH   1  21
TORSDOF 4
