REMARK  8 active torsions:
REMARK  status: ('A' for Active; 'I' for Inactive)
REMARK    1  A    between atoms: C2_2  and  S1_3 
REMARK    2  A    between atoms: S1_3  and  C3_4 
REMARK    3  A    between atoms: C4_5  and  C8_10 
REMARK       I    between atoms: C8_10  and  N2_12 
REMARK    4  A    between atoms: C10_14  and  C17_22 
REMARK       I    between atoms: C17_22  and  N4_24 
REMARK    5  A    between atoms: N4_24  and  C18_25 
REMARK    6  A    between atoms: C18_25  and  C19_26 
REMARK    7  A    between atoms: C19_26  and  O3_28 
REMARK    8  A    between atoms: O3_28  and  C21_29 
ROOT
ATOM      1  C8  <0> d          -4.008  -1.715   1.251  0.00  0.00     0.256 C 
ATOM      2  O1  <0> d          -4.239  -0.564   1.567  0.00  0.00    -0.267 OA
ATOM      3  N2  <0> d          -5.022  -2.542   0.928  0.00  0.00    -0.346 N 
ATOM      4  C9  <0> d          -4.951  -3.990   0.621  0.00  0.00     0.141 C 
ATOM      5  C10 <0> d          -6.206  -4.592   1.292  0.00  0.00     0.106 C 
ATOM      6  C11 <0> d          -7.194  -3.418   1.403  0.00  0.00    -0.007 C 
ATOM      7  C12 <0> d          -6.462  -2.208   0.805  0.00  0.00     0.136 C 
ATOM      8  C13 <0> d          -8.461  -3.717   0.609  0.00  0.00     0.039 C 
ATOM      9  C14 <0> d          -9.451  -2.561   0.783  0.00  0.00     0.233 C 
ATOM     10  N3  <0> d          -9.769  -2.396   2.206  0.00  0.00    -0.075 N 
ATOM     11  C15 <0> d          -8.560  -2.018   2.949  0.00  0.00     0.233 C 
ATOM     12  C16 <0> d          -7.533  -3.151   2.867  0.00  0.00     0.039 C 
ATOM     13  H19 <0> d         -10.466  -1.675   2.312  0.00  0.00     0.277 HD
ATOM     14  H35 <0> d         -10.129  -3.265   2.571  0.00  0.00     0.277 HD
ENDROOT
BRANCH   5  15
ATOM     15  C17 <0> d          -5.865  -5.126   2.659  0.00  0.00     0.224 C 
ATOM     16  O2  <0> d          -4.994  -4.598   3.316  0.00  0.00    -0.273 OA
ATOM     17  N4  <0> d          -6.529  -6.191   3.151  0.00  0.00    -0.358 N 
ATOM     18  H24 <0> d          -7.227  -6.613   2.626  0.00  0.00     0.162 HD
BRANCH  17  19
ATOM     19  C18 <0> d          -6.198  -6.710   4.481  0.00  0.00     0.154 C 
BRANCH  19  20
ATOM     20  C19 <0> d          -7.092  -7.911   4.796  0.00  0.00     0.142 C 
ATOM     21  C20 <0> d          -6.746  -8.453   6.185  0.00  0.00     0.042 C 
BRANCH  20  22
ATOM     22  O3  <0> d          -8.461  -7.506   4.771  0.00  0.00    -0.345 OA
BRANCH  22  23
ATOM     23  C21 <0> d          -9.386  -8.469   4.515  0.00  0.00     0.069 A 
ATOM     24  C26 <0> d          -8.995  -9.796   4.409  0.00  0.00     0.037 A 
ATOM     25  C25 <0> d          -9.937 -10.773   4.154  0.00  0.00     0.003 A 
ATOM     26  C24 <0> d         -11.267 -10.429   3.993  0.00  0.00     0.000 A 
ATOM     27  C23 <0> d         -11.657  -9.106   4.092  0.00  0.00     0.003 A 
ATOM     28  C22 <0> d         -10.720  -8.126   4.353  0.00  0.00     0.037 A 
ENDBRANCH  22  23
ENDBRANCH  20  22
ENDBRANCH  19  20
ENDBRANCH  17  19
ENDBRANCH   5  15
BRANCH   1  29
ATOM     29  C4  <0> d          -2.619  -2.207   1.222  0.00  0.00     0.067 A 
ATOM     30  C3  <0> d          -1.682  -1.763   2.172  0.00  0.00     0.108 A 
ATOM     31  N1  <0> d          -0.433  -2.205   2.138  0.00  0.00    -0.253 NA
ATOM     32  C7  <0> d          -0.029  -3.074   1.232  0.00  0.00     0.118 A 
ATOM     33  C6  <0> d          -0.893  -3.556   0.265  0.00  0.00     0.020 A 
ATOM     34  C5  <0> d          -2.208  -3.125   0.249  0.00  0.00     0.021 A 
BRANCH  30  35
ATOM     35  S1  <0> d          -2.168  -0.607   3.410  0.00  0.00    -0.110 SA
BRANCH  35  36
ATOM     36  C2  <0> d          -0.657  -0.335   4.375  0.00  0.00     0.076 C 
ATOM     37  C1  <0> d          -0.942   0.663   5.499  0.00  0.00     0.016 C 
ENDBRANCH  35  36
ENDBRANCH  30  35
ENDBRANCH   1  29
TORSDOF 8
