REMARK  8 active torsions:
REMARK  status: ('A' for Active; 'I' for Inactive)
REMARK    1  A    between atoms: C2_2  and  C4_4 
REMARK    2  A    between atoms: C4_4  and  C5_5 
REMARK    3  A    between atoms: C5_5  and  N1_6 
REMARK    4  A    between atoms: N1_6  and  S1_7 
REMARK    5  A    between atoms: S1_7  and  C6_10 
REMARK    6  A    between atoms: C8_12  and  C11_16 
REMARK    7  A    between atoms: C12_17  and  C13_18 
REMARK    8  A    between atoms: C13_18  and  N3_19 
ROOT
ATOM      1  C6  <0> d          -4.073  -0.532  -3.967  0.00  0.00     0.098 A 
ATOM      2  C7  <0> d          -3.228   0.289  -4.693  0.00  0.00     0.048 A 
ATOM      3  C8  <0> d          -2.823  -0.132  -5.964  0.00  0.00     0.036 A 
ATOM      4  C9  <0> d          -3.285  -1.358  -6.446  0.00  0.00     0.136 A 
ATOM      5  N2  <0> d          -4.088  -2.104  -5.717  0.00  0.00    -0.270 NA
ATOM      6  C10 <0> d          -4.481  -1.735  -4.513  0.00  0.00     0.141 A 
ENDROOT
BRANCH   1   7
ATOM      7  S1  <0> d          -4.616  -0.054  -2.360  0.00  0.00     0.260 S 
ATOM      8  O1  <0> d          -5.830  -0.752  -2.118  0.00  0.00    -0.200 OA
ATOM      9  O2  <0> d          -4.528   1.363  -2.307  0.00  0.00    -0.200 OA
BRANCH   7  10
ATOM     10  N1  <0> d          -3.510  -0.638  -1.275  0.00  0.00    -0.315 N 
ATOM     11  H12 <0> d          -3.772  -1.316  -0.633  0.00  0.00     0.172 HD
BRANCH  10  12
ATOM     12  C5  <0> d          -2.135  -0.131  -1.286  0.00  0.00     0.132 C 
BRANCH  12  13
ATOM     13  C4  <0> d          -1.433  -0.534   0.013  0.00  0.00     0.024 C 
BRANCH  13  14
ATOM     14  C2  <0> d           0.002  -0.004   0.002  0.00  0.00    -0.021 C 
ATOM     15  C1  <0> d          -0.019   1.526   0.010  0.00  0.00     0.009 C 
ATOM     16  C3  <0> d           0.742  -0.511   1.242  0.00  0.00     0.009 C 
ENDBRANCH  13  14
ENDBRANCH  12  13
ENDBRANCH  10  12
ENDBRANCH   7  10
ENDBRANCH   1   7
BRANCH   3  17
ATOM     17  C11 <0> d          -1.951   0.680  -6.757  0.00  0.00    -0.064 C 
ATOM     18  C12 <0> d          -1.235   1.346  -7.407  0.00  0.00    -0.074 C 
BRANCH  18  19
ATOM     19  C13 <0> d          -0.338   2.181  -8.223  0.00  0.00     0.323 C 
BRANCH  19  20
ATOM     20  N3  <0> d          -0.073   1.510  -9.502  0.00  0.00    -0.069 N 
ATOM     21  H18 <0> d           0.364   0.617  -9.329  0.00  0.00     0.275 HD
ATOM     22  H19 <0> d          -0.942   1.370  -9.995  0.00  0.00     0.275 HD
ATOM     23  H20 <0> d           0.542   2.082 -10.061  0.00  0.00     0.275 HD
ENDBRANCH  19  20
ENDBRANCH  18  19
ENDBRANCH   3  17
TORSDOF 8
