REMARK  2 active torsions:
REMARK  status: ('A' for Active; 'I' for Inactive)
REMARK    1  A    between atoms: C5_5  and  C12_17 
REMARK    2  A    between atoms: C6_6  and  C8_12 
ROOT
ATOM      1  C1  <0> d           1.865   3.264   0.001  0.00  0.00     0.073 C 
ATOM      2  C2  <0> d           1.377   1.838  -0.001  0.00  0.00     0.065 A 
ATOM      3  C3  <0> d          -0.017   1.405   0.010  0.00  0.00     0.038 A 
ATOM      4  C4  <0> d          -1.244   2.075   0.030  0.00  0.00     0.031 A 
ATOM      5  C5  <0> d          -2.406   1.310   0.033  0.00  0.00     0.000 A 
ATOM      6  C6  <0> d          -2.304  -0.086   0.024  0.00  0.00     0.054 A 
ATOM      7  N1  <0> d          -1.137  -0.687   0.010  0.00  0.00    -0.232 NA
ATOM      8  C7  <0> d           0.002  -0.004   0.002  0.00  0.00     0.156 A 
ATOM      9  N2  <0> d           1.319  -0.375  -0.013  0.00  0.00    -0.260 N 
ATOM     10  H1  <0> d           1.590  -1.442  -0.021  0.00  0.00     0.191 HD
ATOM     11  N3  <0> d           2.121   0.770  -0.014  0.00  0.00    -0.177 NA
ENDROOT
BRANCH   5  12
ATOM     12  C12 <0> d          -3.737   1.965   0.050  0.00  0.00    -0.024 A 
ATOM     13  C17 <0> d          -4.013   2.964   0.981  0.00  0.00     0.012 A 
ATOM     14  C16 <0> d          -5.253   3.571   0.992  0.00  0.00     0.001 A 
ATOM     15  C15 <0> d          -6.220   3.189   0.080  0.00  0.00     0.000 A 
ATOM     16  C14 <0> d          -5.951   2.198  -0.847  0.00  0.00     0.001 A 
ATOM     17  C13 <0> d          -4.714   1.588  -0.870  0.00  0.00     0.012 A 
ENDBRANCH   5  12
BRANCH   6  18
ATOM     18  C8  <0> d          -3.562  -0.917   0.032  0.00  0.00     0.064 C 
ATOM     19  C11 <0> d          -3.564  -1.885   1.236  0.00  0.00     0.178 C 
ATOM     20  O1  <0> d          -4.165  -3.099   0.729  0.00  0.00    -0.390 OA
ATOM     21  C10 <0> d          -3.624  -3.268  -0.599  0.00  0.00     0.168 C 
ATOM     22  C9  <0> d          -3.604  -1.846  -1.202  0.00  0.00     0.039 C 
ENDBRANCH   6  18
TORSDOF 2
