REMARK  3 active torsions:
REMARK  status: ('A' for Active; 'I' for Inactive)
REMARK    1  A    between atoms: C5_5  and  N1_9 
REMARK    2  A    between atoms: N1_9  and  S1_10 
REMARK    3  A    between atoms: S1_10  and  C9_13 
ROOT
ATOM      1  C9  <0> d           4.566   1.380   1.760  0.00  0.00     0.087 A 
ATOM      2  C10 <0> d           5.548   1.029   2.659  0.00  0.00     0.056 A 
ATOM      3  C11 <0> d           5.544   1.569   3.941  0.00  0.00     0.045 A 
ATOM      4  C12 <0> d           4.529   2.472   4.306  0.00  0.00     0.007 A 
ATOM      5  C13 <0> d           3.543   2.817   3.385  0.00  0.00     0.023 A 
ATOM      6  C14 <0> d           3.569   2.275   2.118  0.00  0.00    -0.038 A 
ATOM      7  C15 <0> d           2.505   2.653   1.119  0.00  0.00     0.050 C 
ATOM      8  C16 <0> d           4.814   2.841   5.694  0.00  0.00     0.045 A 
ATOM      9  C17 <0> d           5.961   2.154   6.062  0.00  0.00     0.024 A 
ATOM     10  N2  <0> d           6.380   1.408   5.032  0.00  0.00    -0.358 N 
ATOM     11  H1  <0> d           7.247   0.735   4.965  0.00  0.00     0.166 HD
ATOM     12  C18 <0> d           6.568   2.294   7.439  0.00  0.00     0.058 C 
ATOM     13  C19 <0> d           6.180   3.672   7.990  0.00  0.00     0.014 C 
ATOM     14  C20 <0> d           4.661   3.843   7.986  0.00  0.00     0.084 C 
ATOM     15  C21 <0> d           4.128   3.711   6.575  0.00  0.00     0.162 C 
ATOM     16  O3  <0> d           3.148   4.329   6.213  0.00  0.00    -0.292 OA
ENDROOT
BRANCH   1  17
ATOM     17  S1  <0> d           4.580   0.692   0.138  0.00  0.00     0.263 S 
ATOM     18  O1  <0> d           5.690  -0.194   0.082  0.00  0.00    -0.200 OA
ATOM     19  O2  <0> d           4.426   1.778  -0.766  0.00  0.00    -0.200 OA
BRANCH  17  20
ATOM     20  N1  <0> d           3.221  -0.243  -0.009  0.00  0.00    -0.280 N 
ATOM     21  H10 <0> d           2.419   0.057  -0.700  0.00  0.00     0.179 HD
BRANCH  20  22
ATOM     22  C5  <0> d           3.092  -1.412   0.744  0.00  0.00     0.054 A 
ATOM     23  C4  <0> d           3.917  -2.500   0.485  0.00  0.00    -0.034 A 
ATOM     24  C3  <0> d           3.787  -3.655   1.231  0.00  0.00     0.015 A 
ATOM     25  C22 <0> d           4.951  -2.421  -0.608  0.00  0.00     0.050 C 
ATOM     26  C2  <0> d           2.838  -3.729   2.234  0.00  0.00    -0.061 A 
ATOM     27  C1  <0> d           2.704  -4.989   3.050  0.00  0.00     0.048 C 
ATOM     28  C7  <0> d           2.016  -2.648   2.494  0.00  0.00     0.015 A 
ATOM     29  C6  <0> d           2.140  -1.490   1.752  0.00  0.00    -0.034 A 
ATOM     30  C8  <0> d           1.244  -0.313   2.035  0.00  0.00     0.050 C 
ENDBRANCH  20  22
ENDBRANCH  17  20
ENDBRANCH   1  17
TORSDOF 3
