REMARK  4 active torsions:
REMARK  status: ('A' for Active; 'I' for Inactive)
REMARK    1  A    between atoms: C4_4  and  N1_7 
REMARK    2  A    between atoms: C9_11  and  C10_12 
REMARK    3  A    between atoms: C13_15  and  O3_19 
REMARK    4  A    between atoms: C14_16  and  O2_18 
ROOT
ATOM      1  N1  <0> d           5.969   2.197  -0.349  0.00  0.00    -0.262 N 
ATOM      2  C7  <0> d           5.001   1.313  -0.529  0.00  0.00     0.271 A 
ATOM      3  O1  <0> d           5.239   0.152  -0.804  0.00  0.00    -0.266 OA
ATOM      4  C8  <0> d           3.618   1.808  -0.383  0.00  0.00     0.077 A 
ATOM      5  C9  <0> d           2.443   1.142  -0.513  0.00  0.00     0.036 C 
ATOM      6  S1  <0> d           3.917   3.524   0.018  0.00  0.00    -0.054 SA
ATOM      7  C16 <0> d           5.701   3.481  -0.036  0.00  0.00     0.153 A 
ATOM      8  S2  <0> d           6.804   4.761   0.240  0.00  0.00    -0.052 SA
ENDROOT
BRANCH   5   9
ATOM      9  C10 <0> d           1.173   1.877  -0.463  0.00  0.00    -0.032 A 
ATOM     10  C15 <0> d           1.171   3.277  -0.468  0.00  0.00     0.051 A 
ATOM     11  C14 <0> d          -0.027   3.963  -0.417  0.00  0.00     0.099 A 
ATOM     12  C13 <0> d          -1.231   3.261  -0.371  0.00  0.00     0.098 A 
ATOM     13  C12 <0> d          -1.231   1.873  -0.367  0.00  0.00     0.040 A 
ATOM     14  C11 <0> d          -0.041   1.180  -0.412  0.00  0.00     0.014 A 
BRANCH  11  15
ATOM     15  O2  <0> d          -0.032   5.323  -0.416  0.00  0.00    -0.358 OA
ATOM     16  H10 <0> d          -0.071   5.716  -1.298  0.00  0.00     0.217 HD
ENDBRANCH  11  15
BRANCH  12  17
ATOM     17  O3  <0> d          -2.408   3.938  -0.326  0.00  0.00    -0.358 OA
ATOM     18  H11 <0> d          -2.713   4.137   0.570  0.00  0.00     0.217 HD
ENDBRANCH  12  17
ENDBRANCH   5   9
BRANCH   1  19
ATOM     19  C4  <0> d           7.303   1.788  -0.480  0.00  0.00     0.044 A 
ATOM     20  C3  <0> d           7.860   0.922   0.451  0.00  0.00     0.030 A 
ATOM     21  C2  <0> d           9.175   0.521   0.319  0.00  0.00     0.002 A 
ATOM     22  C1  <0> d           9.936   0.981  -0.739  0.00  0.00     0.000 A 
ATOM     23  C6  <0> d           9.384   1.843  -1.669  0.00  0.00     0.002 A 
ATOM     24  C5  <0> d           8.068   2.243  -1.545  0.00  0.00     0.030 A 
ENDBRANCH   1  19
TORSDOF 4
