REMARK  8 active torsions:
REMARK  status: ('A' for Active; 'I' for Inactive)
REMARK    1  A    between atoms: C2_2  and  C15_23 
REMARK    2  A    between atoms: N1_3  and  N2_4 
REMARK    3  A    between atoms: N2_4  and  C3_5 
REMARK    4  A    between atoms: C3_5  and  S1_7 
REMARK    5  A    between atoms: S1_7  and  C4_8 
REMARK    6  A    between atoms: N4_12  and  C8_15 
REMARK    7  A    between atoms: C13_20  and  O3_21 
REMARK    8  A    between atoms: C18_26  and  O4_29 
ROOT
ATOM      1  C3  <0> d           0.044  -0.660   3.528  0.00  0.00     0.155 C 
ATOM      2  N3  <0> d           0.062  -1.964   3.521  0.00  0.00    -0.379 N 
ATOM      3  H6  <0> d           0.077  -2.454   4.358  0.00  0.00     0.158 HD
ATOM      4  H21 <0> d           0.061  -2.445   2.678  0.00  0.00     0.158 HD
ENDROOT
BRANCH   1   5
ATOM      5  N2  <0> d           0.024   0.035   2.339  0.00  0.00    -0.257 N 
ATOM      6  H5  <0> d           0.011   1.005   2.345  0.00  0.00     0.191 HD
BRANCH   5   7
ATOM      7  N1  <0> d           0.022  -0.659   1.122  0.00  0.00    -0.177 NA
ATOM      8  C2  <0> d           0.002  -0.004   0.002  0.00  0.00     0.061 C 
ATOM      9  C1  <0> d          -0.018   1.503   0.010  0.00  0.00     0.073 C 
BRANCH   8  10
ATOM     10  C15 <0> d          -0.000  -0.734  -1.279  0.00  0.00    -0.010 A 
ATOM     11  C20 <0> d           0.019  -2.131  -1.289  0.00  0.00     0.016 A 
ATOM     12  C19 <0> d           0.011  -2.810  -2.489  0.00  0.00     0.037 A 
ATOM     13  C18 <0> d          -0.004  -2.107  -3.686  0.00  0.00     0.065 A 
ATOM     14  C17 <0> d          -0.017  -0.718  -3.681  0.00  0.00     0.037 A 
ATOM     15  C16 <0> d          -0.015  -0.031  -2.486  0.00  0.00     0.016 A 
BRANCH  13  16
ATOM     16  O4  <0> d          -0.007  -2.780  -4.867  0.00  0.00    -0.361 OA
ATOM     17  H20 <0> d           0.876  -2.966  -5.215  0.00  0.00     0.217 HD
ENDBRANCH  13  16
ENDBRANCH   8  10
ENDBRANCH   5   7
ENDBRANCH   1   5
BRANCH   1  18
ATOM     18  S1  <0> d           0.047   0.213   5.059  0.00  0.00    -0.078 SA
BRANCH  18  19
ATOM     19  C4  <0> d           0.077  -1.099   6.311  0.00  0.00     0.157 A 
ATOM     20  C7  <0> d          -1.231  -1.859   6.317  0.00  0.00     0.246 A 
ATOM     21  N4  <0> d          -1.813  -1.720   7.519  0.00  0.00    -0.248 N 
ATOM     22  O2  <0> d          -1.680  -2.491   5.385  0.00  0.00    -0.271 OA
ATOM     23  C6  <0> d          -1.120  -0.974   8.388  0.00  0.00     0.232 A 
ATOM     24  C5  <0> d           0.154  -0.494   7.728  0.00  0.00     0.129 A 
ATOM     25  O1  <0> d          -1.460  -0.723   9.524  0.00  0.00    -0.273 OA
BRANCH  21  26
ATOM     26  C8  <0> d          -3.045  -2.311   7.838  0.00  0.00     0.078 A 
ATOM     27  C13 <0> d          -3.085  -3.590   8.386  0.00  0.00     0.095 A 
ATOM     28  C12 <0> d          -4.305  -4.167   8.704  0.00  0.00     0.039 A 
ATOM     29  C11 <0> d          -5.478  -3.476   8.467  0.00  0.00     0.003 A 
ATOM     30  C10 <0> d          -5.439  -2.208   7.917  0.00  0.00     0.002 A 
ATOM     31  C9  <0> d          -4.227  -1.624   7.602  0.00  0.00     0.033 A 
BRANCH  27  32
ATOM     32  O3  <0> d          -1.930  -4.270   8.614  0.00  0.00    -0.354 OA
ATOM     33  C14 <0> d          -2.047  -5.578   9.179  0.00  0.00     0.210 C 
ENDBRANCH  27  32
ENDBRANCH  21  26
ENDBRANCH  18  19
ENDBRANCH   1  18
TORSDOF 8
