REMARK  5 active torsions:
REMARK  status: ('A' for Active; 'I' for Inactive)
REMARK    1  A    between atoms: C2_3  and  C14_21 
REMARK    2  A    between atoms: C3_4  and  C5_7 
REMARK       I    between atoms: C5_7  and  N3_9 
REMARK    3  A    between atoms: N3_9  and  C6_10 
REMARK    4  A    between atoms: C10_14  and  C12_16 
REMARK    5  A    between atoms: C12_16  and  S1_17 
ROOT
ATOM      1  C5  <0> d          -0.542  -3.394  -1.391  0.00  0.00     0.259 C 
ATOM      2  O1  <0> d          -1.082  -3.368  -2.480  0.00  0.00    -0.267 OA
ATOM      3  N3  <0> d           0.060  -4.521  -0.964  0.00  0.00    -0.323 N 
ATOM      4  H5  <0> d           0.549  -4.523  -0.126  0.00  0.00     0.169 HD
ENDROOT
BRANCH   3   5
ATOM      5  C6  <0> d          -0.018  -5.689  -1.730  0.00  0.00     0.035 A 
ATOM      6  C11 <0> d          -0.093  -6.927  -1.106  0.00  0.00     0.037 A 
ATOM      7  C10 <0> d          -0.175  -8.078  -1.865  0.00  0.00    -0.042 A 
ATOM      8  C9  <0> d          -0.172  -7.999  -3.246  0.00  0.00     0.008 A 
ATOM      9  C8  <0> d          -0.092  -6.768  -3.871  0.00  0.00     0.003 A 
ATOM     10  C7  <0> d          -0.015  -5.613  -3.117  0.00  0.00     0.029 A 
BRANCH   7  11
ATOM     11  C12 <0> d          -0.264  -9.421  -1.189  0.00  0.00     0.178 C 
BRANCH  11  12
ATOM     12  S1  <0> d           1.408 -10.074  -0.919  0.00  0.00     0.144 S 
ATOM     13  O2  <0> d           2.002 -10.323  -2.185  0.00  0.00    -0.228 OA
ATOM     14  O3  <0> d           2.078  -9.226   0.004  0.00  0.00    -0.228 OA
ATOM     15  C13 <0> d           1.091 -11.666  -0.110  0.00  0.00     0.161 C 
ENDBRANCH  11  12
ENDBRANCH   7  11
ENDBRANCH   3   5
BRANCH   1  16
ATOM     16  C3  <0> d          -0.547  -2.192  -0.537  0.00  0.00     0.081 A 
ATOM     17  C2  <0> d          -1.122  -0.974  -0.840  0.00  0.00     0.111 A 
ATOM     18  N1  <0> d          -0.902  -0.156   0.202  0.00  0.00    -0.272 N 
ATOM     19  C1  <0> d          -1.341   1.238   0.303  0.00  0.00     0.180 C 
ATOM     20  N2  <0> d          -0.178  -0.858   1.172  0.00  0.00    -0.184 NA
ATOM     21  C4  <0> d           0.034  -2.072   0.745  0.00  0.00     0.158 A 
BRANCH  17  22
ATOM     22  C14 <0> d          -1.861  -0.626  -2.106  0.00  0.00     0.405 C 
ATOM     23  F1  <0> d          -1.702   0.737  -2.379  0.00  0.00    -0.207 F 
ATOM     24  F2  <0> d          -1.345  -1.377  -3.168  0.00  0.00    -0.207 F 
ENDBRANCH  17  22
ENDBRANCH   1  16
TORSDOF 5
