REMARK  2 active torsions:
REMARK  status: ('A' for Active; 'I' for Inactive)
REMARK    1  A    between atoms: C8_9  and  C9_11 
REMARK    2  A    between atoms: C12_16  and  C13_18 
ROOT
ATOM      1  C9  <0> d           1.254  -2.873   1.216  0.00  0.00     0.153 A 
ATOM      2  N3  <0> d           1.347  -4.173   1.169  0.00  0.00    -0.196 NA
ATOM      3  C10 <0> d           1.796  -4.889   2.213  0.00  0.00     0.250 A 
ATOM      4  O1  <0> d           1.881  -6.100   2.164  0.00  0.00    -0.271 OA
ATOM      5  C11 <0> d           2.195  -4.115   3.457  0.00  0.00     0.160 A 
ATOM      6  C12 <0> d           2.037  -2.607   3.375  0.00  0.00     0.027 A 
ATOM      7  N4  <0> d           1.585  -2.111   2.260  0.00  0.00    -0.239 NA
ENDROOT
BRANCH   1   8
ATOM      8  C8  <0> d           0.737  -2.173  -0.014  0.00  0.00     0.183 A 
ATOM      9  C7  <0> d          -0.773  -2.143  -0.006  0.00  0.00    -0.004 A 
ATOM     10  C2  <0> d          -1.140  -0.802   0.003  0.00  0.00     0.053 A 
ATOM     11  C6  <0> d          -1.730  -3.133  -0.007  0.00  0.00     0.011 A 
ATOM     12  N1  <0> d           0.002  -0.004   0.002  0.00  0.00    -0.316 N 
ATOM     13  C3  <0> d          -2.492  -0.470   0.012  0.00  0.00     0.031 A 
ATOM     14  C1  <0> d          -0.018   1.461   0.010  0.00  0.00     0.171 C 
ATOM     15  N2  <0> d           1.139  -0.754  -0.013  0.00  0.00    -0.222 NA
ATOM     16  H9  <0> d           1.721  -0.545   0.784  0.00  0.00     0.148 HD
ATOM     17  C4  <0> d          -3.449  -1.464   0.012  0.00  0.00     0.002 A 
ATOM     18  C5  <0> d          -3.072  -2.795   0.003  0.00  0.00     0.001 A 
ENDBRANCH   1   8
BRANCH   6  19
ATOM     19  C13 <0> d           2.395  -1.719   4.538  0.00  0.00     0.037 C 
ATOM     20  C17 <0> d           2.252  -0.251   4.125  0.00  0.00     0.038 C 
ATOM     21  C16 <0> d           2.539   0.643   5.332  0.00  0.00     0.233 C 
ATOM     22  N5  <0> d           1.587   0.341   6.408  0.00  0.00    -0.075 N 
ATOM     23  C15 <0> d           1.768  -1.044   6.859  0.00  0.00     0.233 C 
ATOM     24  H17 <0> d           0.645   0.463   6.066  0.00  0.00     0.277 HD
ATOM     25  H22 <0> d           1.745   0.969   7.182  0.00  0.00     0.277 HD
ATOM     26  C14 <0> d           1.450  -2.003   5.710  0.00  0.00     0.038 C 
ENDBRANCH   6  19
TORSDOF 2
