REMARK  3 active torsions:
REMARK  status: ('A' for Active; 'I' for Inactive)
REMARK    1  A    between atoms: C3_3  and  C14_20 
REMARK    2  A    between atoms: C4_4  and  N3_7 
REMARK       I    between atoms: N3_7  and  C5_8 
REMARK    3  A    between atoms: C5_8  and  C6_10 
ROOT
ATOM      1  N3  <0> d          -0.954  -2.917  -1.214  0.00  0.00    -0.330 N 
ATOM      2  C5  <0> d          -1.401  -4.186  -1.122  0.00  0.00     0.251 C 
ATOM      3  O1  <0> d          -1.454  -4.733  -0.041  0.00  0.00    -0.270 OA
ATOM      4  H6  <0> d          -0.911  -2.480  -2.079  0.00  0.00     0.165 HD
ENDROOT
BRANCH   1   5
ATOM      5  C4  <0> d          -0.534  -2.200  -0.008  0.00  0.00     0.268 A 
ATOM      6  C3  <0> d          -1.100  -0.790   0.003  0.00  0.00     0.024 A 
ATOM      7  C2  <0> d           0.002  -0.004   0.002  0.00  0.00     0.063 A 
ATOM      8  C1  <0> d          -0.018   1.503   0.010  0.00  0.00     0.073 C 
ATOM      9  N2  <0> d           1.113  -0.752  -0.013  0.00  0.00    -0.157 NA
ATOM     10  N1  <0> d           0.920  -1.969  -0.014  0.00  0.00    -0.162 NA
BRANCH   6  11
ATOM     11  C14 <0> d          -2.513  -0.376   0.013  0.00  0.00    -0.024 A 
ATOM     12  C19 <0> d          -3.049   0.318  -1.076  0.00  0.00     0.012 A 
ATOM     13  C18 <0> d          -4.375   0.697  -1.062  0.00  0.00     0.001 A 
ATOM     14  C17 <0> d          -5.171   0.402   0.031  0.00  0.00     0.000 A 
ATOM     15  C16 <0> d          -4.646  -0.279   1.115  0.00  0.00     0.001 A 
ATOM     16  C15 <0> d          -3.323  -0.670   1.113  0.00  0.00     0.012 A 
ENDBRANCH   6  11
ENDBRANCH   1   5
BRANCH   2  17
ATOM     17  C6  <0> d          -1.833  -4.925  -2.362  0.00  0.00     0.245 C 
ATOM     18  O3  <0> d          -2.359  -6.206  -2.002  0.00  0.00    -0.331 OA
ATOM     19  C13 <0> d          -2.516  -7.108  -3.010  0.00  0.00     0.103 A 
ATOM     20  C8  <0> d          -1.866  -6.936  -4.226  0.00  0.00     0.102 A 
ATOM     21  C12 <0> d          -3.330  -8.213  -2.813  0.00  0.00     0.040 A 
ATOM     22  O2  <0> d          -1.066  -5.857  -4.442  0.00  0.00    -0.345 OA
ATOM     23  C9  <0> d          -2.033  -7.872  -5.236  0.00  0.00     0.039 A 
ATOM     24  C7  <0> d          -0.624  -5.142  -3.283  0.00  0.00     0.218 C 
ATOM     25  C10 <0> d          -2.845  -8.972  -5.033  0.00  0.00     0.003 A 
ATOM     26  C11 <0> d          -3.493  -9.142  -3.824  0.00  0.00     0.003 A 
ENDBRANCH   2  17
TORSDOF 3
