REMARK  5 active torsions:
REMARK  status: ('A' for Active; 'I' for Inactive)
REMARK    1  A    between atoms: C2_2  and  N1_4 
REMARK       I    between atoms: N1_4  and  C4_5 
REMARK    2  A    between atoms: C4_5  and  C5_7 
REMARK    3  A    between atoms: C7_9  and  C10_14 
REMARK    4  A    between atoms: C10_14  and  C11_16 
REMARK    5  A    between atoms: C16_21  and  O4_22 
ROOT
ATOM      1  C5  <0> d          -4.968   1.351  -0.288  0.00  0.00     0.083 A 
ATOM      2  C6  <0> d          -3.793   2.076  -0.186  0.00  0.00     0.039 A 
ATOM      3  C7  <0> d          -2.569   1.373  -0.090  0.00  0.00     0.038 A 
ATOM      4  C8  <0> d          -2.555  -0.005  -0.103  0.00  0.00     0.159 A 
ATOM      5  O2  <0> d          -3.680  -0.718  -0.195  0.00  0.00    -0.304 OA
ATOM      6  C9  <0> d          -4.886  -0.119  -0.291  0.00  0.00     0.156 A 
ATOM      7  N2  <0> d          -5.972  -0.839  -0.386  0.00  0.00    -0.379 N 
ATOM      8  H11 <0> d          -5.906  -1.937  -0.388  0.00  0.00     0.158 HD
ATOM      9  H16 <0> d          -6.953  -0.347  -0.465  0.00  0.00     0.158 HD
ENDROOT
BRANCH   3  10
ATOM     10  C10 <0> d          -1.302   2.118   0.020  0.00  0.00     0.197 C 
ATOM     11  O3  <0> d          -1.316   3.330   0.127  0.00  0.00    -0.286 OA
BRANCH  10  12
ATOM     12  C11 <0> d          -0.017   1.394  -0.001  0.00  0.00     0.049 A 
ATOM     13  C16 <0> d           0.488   0.886  -1.206  0.00  0.00     0.080 A 
ATOM     14  C15 <0> d           1.694   0.202  -1.213  0.00  0.00     0.039 A 
ATOM     15  C14 <0> d           2.395   0.023  -0.037  0.00  0.00     0.022 A 
ATOM     16  C13 <0> d           1.901   0.524   1.158  0.00  0.00     0.012 A 
ATOM     17  C12 <0> d           0.703   1.206   1.183  0.00  0.00     0.037 A 
ATOM     18 Br1  <0> d           2.873   0.270   2.759  0.00  0.00    -0.051 Br
BRANCH  13  19
ATOM     19  O4  <0> d          -0.202   1.062  -2.361  0.00  0.00    -0.360 OA
ATOM     20  H15 <0> d           0.196   0.663  -3.306  0.00  0.00     0.217 HD
ENDBRANCH  13  19
ENDBRANCH  10  12
ENDBRANCH   3  10
BRANCH   1  21
ATOM     21  C4  <0> d          -6.267   2.033  -0.392  0.00  0.00     0.256 C 
ATOM     22  N1  <0> d          -6.324   3.379  -0.389  0.00  0.00    -0.353 N 
ATOM     23  H8  <0> d          -5.398   3.968  -0.308  0.00  0.00     0.163 HD
ATOM     24  O1  <0> d          -7.291   1.381  -0.481  0.00  0.00    -0.268 OA
BRANCH  22  25
ATOM     25  C2  <0> d          -7.618   4.058  -0.492  0.00  0.00     0.076 C 
ATOM     26  C1  <0> d          -8.245   4.174   0.899  0.00  0.00     0.032 C 
ATOM     27  C3  <0> d          -7.414   5.457  -1.078  0.00  0.00     0.032 C 
ENDBRANCH  22  25
ENDBRANCH   1  21
TORSDOF 5
