REMARK  5 active torsions:
REMARK  status: ('A' for Active; 'I' for Inactive)
REMARK    1  A    between atoms: C2_2  and  C3_3 
REMARK    2  A    between atoms: C3_3  and  N1_4 
REMARK    3  A    between atoms: C5_6  and  C8_13 
REMARK    4  A    between atoms: C8_13  and  C9_15 
REMARK    5  A    between atoms: C9_15  and  N4_28 
ROOT
ATOM      1  N1  <0> d          -5.797   7.545  -2.721  0.00  0.00    -0.285 N 
ATOM      2  C4  <0> d          -4.778   7.078  -1.941  0.00  0.00     0.124 A 
ATOM      3  C5  <0> d          -4.152   5.870  -2.293  0.00  0.00     0.123 A 
ATOM      4  C6  <0> d          -4.641   5.165  -3.485  0.00  0.00     0.267 A 
ATOM      5  O1  <0> d          -4.139   4.112  -3.833  0.00  0.00    -0.267 OA
ATOM      6  N2  <0> d          -5.658   5.707  -4.184  0.00  0.00    -0.274 N 
ATOM      7  H1  <0> d          -6.002   5.239  -4.998  0.00  0.00     0.173 HD
ATOM      8  C7  <0> d          -6.214   6.869  -3.803  0.00  0.00     0.331 A 
ATOM      9  O2  <0> d          -7.128   7.324  -4.462  0.00  0.00    -0.246 OA
ATOM     10  N3  <0> d          -4.373   7.773  -0.844  0.00  0.00    -0.384 N 
ATOM     11  H27 <0> d          -3.975   7.306  -0.093  0.00  0.00     0.157 HD
ATOM     12  H28 <0> d          -4.481   8.737  -0.813  0.00  0.00     0.157 HD
ENDROOT
BRANCH   3  13
ATOM     13  C8  <0> d          -3.090   5.349  -1.522  0.00  0.00     0.194 C 
ATOM     14  O3  <0> d          -2.773   5.889  -0.482  0.00  0.00    -0.290 OA
BRANCH  13  15
ATOM     15  C9  <0> d          -2.350   4.122  -1.991  0.00  0.00     0.319 C 
BRANCH  15  16
ATOM     16  N4  <0> d          -1.214   3.827  -1.095  0.00  0.00    -0.060 N 
ATOM     17  C10 <0> d          -0.293   4.983  -1.050  0.00  0.00     0.236 C 
ATOM     18  C11 <0> d           0.932   4.612  -0.211  0.00  0.00     0.028 C 
ATOM     19  C12 <0> d           0.483   4.254   1.208  0.00  0.00     0.008 C 
ATOM     20  C13 <0> d          -0.525   3.103   1.140  0.00  0.00     0.016 C 
ATOM     21  C18 <0> d           0.152   1.873   0.531  0.00  0.00     0.007 C 
ATOM     22  C14 <0> d          -1.708   3.520   0.264  0.00  0.00     0.192 C 
ATOM     23  C17 <0> d          -0.855   0.724   0.449  0.00  0.00     0.001 C 
ATOM     24  C16 <0> d          -2.036   1.142  -0.428  0.00  0.00     0.002 C 
ATOM     25  C15 <0> d          -2.714   2.371   0.182  0.00  0.00     0.034 C 
ATOM     26  H29 <0> d          -0.707   3.011  -1.457  0.00  0.00     0.280 HD
ENDBRANCH  15  16
ENDBRANCH  13  15
ENDBRANCH   3  13
BRANCH   1  27
ATOM     27  C3  <0> d          -6.453   8.806  -2.367  0.00  0.00     0.135 C 
BRANCH  27  28
ATOM     28  C2  <0> d          -7.628   8.525  -1.428  0.00  0.00     0.016 C 
ATOM     29  C1  <0> d          -8.312   9.842  -1.058  0.00  0.00     0.006 C 
ENDBRANCH  27  28
ENDBRANCH   1  27
TORSDOF 5
