REMARK  4 active torsions:
REMARK  status: ('A' for Active; 'I' for Inactive)
REMARK    1  A    between atoms: N2_8  and  C6_9 
REMARK    2  A    between atoms: C6_9  and  C7_10 
REMARK    3  A    between atoms: C8_11  and  C9_12 
REMARK    4  A    between atoms: C9_12  and  N3_13 
ROOT
ATOM      1  C7  <0> d           2.843  -0.536   2.360  0.00  0.00    -0.002 C 
ATOM      2  C8  <0> d           3.885  -1.328   2.318  0.00  0.00     0.001 C 
ENDROOT
BRANCH   1   3
ATOM      3  C6  <0> d           2.138  -0.149   1.086  0.00  0.00     0.263 C 
BRANCH   3   4
ATOM      4  N2  <0> d           0.713  -0.488   1.192  0.00  0.00    -0.050 N 
ATOM      5  C2  <0> d           0.002  -0.004   0.002  0.00  0.00     0.200 C 
ATOM      6  C1  <0> d          -0.019   1.526   0.010  0.00  0.00     0.057 C 
ATOM      7  C3  <0> d          -1.408  -0.521  -0.004  0.00  0.00     0.253 C 
ATOM      8  C16 <0> d           0.725  -0.495  -1.254  0.00  0.00     0.057 C 
ATOM      9  O1  <0> d          -2.226   0.028  -0.712  0.00  0.00    -0.271 OA
ATOM     10  N1  <0> d          -1.799  -1.563   0.739  0.00  0.00    -0.357 N 
ATOM     11  C4  <0> d          -0.893  -2.271   1.640  0.00  0.00     0.150 C 
ATOM     12  H4  <0> d          -2.720  -1.861   0.676  0.00  0.00     0.162 HD
ATOM     13  C5  <0> d           0.558  -1.948   1.278  0.00  0.00     0.256 C 
ATOM     14  H29 <0> d           0.322  -0.057   2.017  0.00  0.00     0.281 HD
ENDBRANCH   3   4
ENDBRANCH   1   3
BRANCH   2  15
ATOM     15  C9  <0> d           4.590  -1.715   3.592  0.00  0.00     0.301 C 
BRANCH  15  16
ATOM     16  N3  <0> d           4.653  -3.180   3.692  0.00  0.00     0.111 N 
ATOM     17  C13 <0> d           5.534  -3.595   4.792  0.00  0.00     0.232 C 
ATOM     18  C12 <0> d           5.462  -5.085   4.972  0.00  0.00     0.256 C 
ATOM     19  C14 <0> d           6.974  -3.191   4.469  0.00  0.00     0.059 C 
ATOM     20  C15 <0> d           5.093  -2.905   6.084  0.00  0.00     0.059 C 
ATOM     21  N4  <0> d           4.473  -5.828   4.465  0.00  0.00    -0.357 N 
ATOM     22  O2  <0> d           6.338  -5.637   5.604  0.00  0.00    -0.271 OA
ATOM     23  C11 <0> d           3.392  -5.268   3.660  0.00  0.00     0.153 C 
ATOM     24  H19 <0> d           4.474  -6.782   4.640  0.00  0.00     0.162 HD
ATOM     25  C10 <0> d           3.311  -3.755   3.872  0.00  0.00     0.294 C 
ENDBRANCH  15  16
ENDBRANCH   2  15
TORSDOF 4
