REMARK  7 active torsions:
REMARK  status: ('A' for Active; 'I' for Inactive)
REMARK    1  A    between atoms: C2_2  and  C3_3 
REMARK    2  A    between atoms: C2_2  and  C5_6 
REMARK    3  A    between atoms: C3_3  and  S1_4 
REMARK       I    between atoms: C5_6  and  N1_8 
REMARK    4  A    between atoms: N1_8  and  C6_9 
REMARK    5  A    between atoms: C6_9  and  C7_10 
REMARK    6  A    between atoms: C10_13  and  S2_16 
REMARK    7  A    between atoms: S2_16  and  N2_19 
ROOT
ATOM      1  C7  <0> d           0.281  -0.190   4.880  0.00  0.00    -0.040 A 
ATOM      2  C8  <0> d           0.631   1.022   5.444  0.00  0.00     0.010 A 
ATOM      3  C9  <0> d          -0.016   1.468   6.581  0.00  0.00     0.026 A 
ATOM      4  C10 <0> d          -1.013   0.702   7.154  0.00  0.00     0.079 A 
ATOM      5  C11 <0> d          -1.364  -0.510   6.590  0.00  0.00     0.026 A 
ATOM      6  C12 <0> d          -0.720  -0.954   5.450  0.00  0.00     0.010 A 
ENDROOT
BRANCH   1   7
ATOM      7  C6  <0> d           0.986  -0.676   3.640  0.00  0.00     0.161 C 
BRANCH   7   8
ATOM      8  N1  <0> d           0.278  -0.191   2.453  0.00  0.00    -0.356 N 
ATOM      9  C5  <0> d           0.731  -0.503   1.223  0.00  0.00     0.222 C 
ATOM     10  O1  <0> d           1.725  -1.187   1.099  0.00  0.00    -0.273 OA
ATOM     11  H10 <0> d          -0.517   0.356   2.553  0.00  0.00     0.162 HD
BRANCH   9  12
ATOM     12  C2  <0> d           0.002  -0.004   0.002  0.00  0.00     0.083 C 
ATOM     13  C1  <0> d          -0.019   1.526   0.010  0.00  0.00     0.020 C 
BRANCH  12  14
ATOM     14  C3  <0> d           0.718  -0.497  -1.257  0.00  0.00     0.087 C 
BRANCH  14  15
ATOM     15  S1  <0> d          -0.239  -0.022  -2.723  0.00  0.00    -0.173 SA
ATOM     16  C4  <0> d           0.732  -0.673  -4.110  0.00  0.00     0.089 C 
ENDBRANCH  14  15
ENDBRANCH  12  14
ENDBRANCH   9  12
ENDBRANCH   7   8
ENDBRANCH   1   7
BRANCH   4  17
ATOM     17  S2  <0> d          -1.837   1.270   8.605  0.00  0.00     0.258 S 
ATOM     18  O2  <0> d          -2.354   0.117   9.256  0.00  0.00    -0.201 OA
ATOM     19  O3  <0> d          -0.950   2.175   9.248  0.00  0.00    -0.201 OA
BRANCH  17  20
ATOM     20  N2  <0> d          -3.144   2.159   8.109  0.00  0.00    -0.320 N 
ATOM     21  C13 <0> d          -4.238   1.510   7.382  0.00  0.00     0.159 C 
ATOM     22  H17 <0> d          -3.184   3.109   8.300  0.00  0.00     0.171 HD
ENDBRANCH  17  20
ENDBRANCH   4  17
TORSDOF 7
