REMARK  2 active torsions:
REMARK  status: ('A' for Active; 'I' for Inactive)
REMARK    1  A    between atoms: C9_10  and  O2_11 
REMARK    2  A    between atoms: C15_19  and  N2_28 
ROOT
ATOM      1  C1  <0> d           2.000  -2.757   0.009  0.00  0.00     0.051 C 
ATOM      2  C2  <0> d           1.730  -1.274   0.004  0.00  0.00    -0.024 A 
ATOM      3  C3  <0> d           2.641  -0.291  -0.001  0.00  0.00     0.150 A 
ATOM      4  O1  <0> d           2.028   0.906  -0.004  0.00  0.00    -0.318 OA
ATOM      5  C4  <0> d           0.686   0.760  -0.000  0.00  0.00     0.121 A 
ATOM      6  C5  <0> d           0.418  -0.616   0.004  0.00  0.00     0.042 A 
ATOM      7  C6  <0> d          -0.904  -1.083   0.008  0.00  0.00     0.093 A 
ATOM      8  C7  <0> d          -1.933  -0.155   0.009  0.00  0.00    -0.011 A 
ATOM      9  C8  <0> d          -1.674   1.201   0.005  0.00  0.00     0.050 A 
ATOM     10  C9  <0> d          -0.371   1.668   0.005  0.00  0.00     0.101 A 
ATOM     11  C10 <0> d          -3.239  -0.947   0.015  0.00  0.00     0.096 C 
ATOM     12  C11 <0> d          -3.682  -1.070  -1.447  0.00  0.00     0.016 C 
ATOM     13  C12 <0> d          -5.162  -1.360  -1.562  0.00  0.00     0.020 C 
ATOM     14  C13 <0> d          -5.604  -2.123  -0.309  0.00  0.00     0.122 C 
ATOM     15  N1  <0> d          -4.848  -3.362  -0.209  0.00  0.00    -0.357 N 
ATOM     16  C14 <0> d          -3.574  -3.452   0.127  0.00  0.00     0.283 C 
ATOM     17  O3  <0> d          -3.062  -4.551   0.106  0.00  0.00    -0.268 OA
ATOM     18  C15 <0> d          -2.726  -2.305   0.528  0.00  0.00     0.322 C 
ATOM     19  O4  <0> d          -1.394  -2.360   0.015  0.00  0.00    -0.302 OA
ATOM     20  H14 <0> d          -5.318  -4.188  -0.405  0.00  0.00     0.162 HD
ENDROOT
BRANCH  18  21
ATOM     21  N2  <0> d          -2.644  -2.233   2.002  0.00  0.00    -0.028 N 
ATOM     22  C16 <0> d          -2.044  -3.475   2.535  0.00  0.00     0.239 C 
ATOM     23  C17 <0> d          -1.861  -3.328   4.047  0.00  0.00     0.028 C 
ATOM     24  C18 <0> d          -3.225  -3.092   4.702  0.00  0.00     0.003 C 
ATOM     25  C19 <0> d          -3.868  -1.845   4.087  0.00  0.00     0.028 C 
ATOM     26  C20 <0> d          -3.993  -2.035   2.574  0.00  0.00     0.239 C 
ATOM     27  H25 <0> d          -2.051  -1.437   2.264  0.00  0.00     0.284 HD
ENDBRANCH  18  21
BRANCH  10  28
ATOM     28  O2  <0> d          -0.124   3.005   0.001  0.00  0.00    -0.358 OA
ATOM     29  H7  <0> d          -0.059   3.390  -0.884  0.00  0.00     0.217 HD
ENDBRANCH  10  28
TORSDOF 2
