REMARK  4 active torsions:
REMARK  status: ('A' for Active; 'I' for Inactive)
REMARK    1  A    between atoms: C2_2  and  C3_3 
REMARK    2  A    between atoms: C5_5  and  N2_18 
REMARK    3  A    between atoms: C8_8  and  C14_15 
REMARK    4  A    between atoms: C14_15  and  N1_17 
REMARK       I    between atoms: N2_18  and  C16_19 
ROOT
ATOM      1  C3  <0> d           0.718  -0.497  -1.257  0.00  0.00     0.066 C 
ATOM      2  C4  <0> d           0.656  -2.029  -1.320  0.00  0.00     0.068 C 
ATOM      3  C5  <0> d           1.282  -2.482  -2.641  0.00  0.00     0.123 C 
ATOM      4  C6  <0> d           2.606  -1.787  -2.840  0.00  0.00    -0.001 A 
ATOM      5  C7  <0> d           3.502  -2.313  -3.755  0.00  0.00     0.022 A 
ATOM      6  C8  <0> d           4.723  -1.701  -3.966  0.00  0.00    -0.021 A 
ATOM      7  C9  <0> d           5.053  -0.557  -3.261  0.00  0.00    -0.045 A 
ATOM      8  C10 <0> d           4.164  -0.031  -2.347  0.00  0.00    -0.021 A 
ATOM      9  C11 <0> d           2.935  -0.646  -2.131  0.00  0.00     0.084 A 
ATOM     10  O1  <0> d           2.090  -0.104  -1.215  0.00  0.00    -0.339 OA
ATOM     11  C12 <0> d           4.526   1.215  -1.580  0.00  0.00     0.052 C 
ATOM     12  C13 <0> d           6.383   0.112  -3.491  0.00  0.00     0.049 C 
ATOM     13  C18 <0> d           0.049   0.098  -2.497  0.00  0.00     0.046 C 
ENDROOT
BRANCH   6  14
ATOM     14  C14 <0> d           5.694  -2.279  -4.963  0.00  0.00     0.212 C 
ATOM     15  C15 <0> d           6.687  -3.189  -4.238  0.00  0.00     0.045 C 
BRANCH  14  16
ATOM     16  N1  <0> d           4.958  -3.058  -5.967  0.00  0.00    -0.071 N 
ATOM     17  H20 <0> d           4.303  -2.458  -6.445  0.00  0.00     0.275 HD
ATOM     18  H21 <0> d           5.609  -3.445  -6.635  0.00  0.00     0.275 HD
ATOM     19  H29 <0> d           4.458  -3.807  -5.512  0.00  0.00     0.275 HD
ENDBRANCH  14  16
ENDBRANCH   6  14
BRANCH   3  20
ATOM     20  N2  <0> d           1.492  -3.931  -2.610  0.00  0.00    -0.353 N 
ATOM     21  C16 <0> d           1.544  -4.630  -3.761  0.00  0.00     0.214 C 
ATOM     22  O2  <0> d           1.417  -4.058  -4.824  0.00  0.00    -0.274 OA
ATOM     23  C17 <0> d           1.761  -6.120  -3.729  0.00  0.00     0.117 C 
ATOM     24  H22 <0> d           1.595  -4.388  -1.760  0.00  0.00     0.163 HD
ENDBRANCH   3  20
BRANCH   1  25
ATOM     25  C2  <0> d           0.002  -0.004   0.002  0.00  0.00     0.034 C 
ATOM     26  C1  <0> d          -0.019   1.526   0.010  0.00  0.00     0.008 C 
ENDBRANCH   1  25
TORSDOF 4
