REMARK  3 active torsions:
REMARK  status: ('A' for Active; 'I' for Inactive)
REMARK    1  A    between atoms: N1_2  and  C2_3 
REMARK    2  A    between atoms: C6_7  and  C7_8 
REMARK    3  A    between atoms: C7_8  and  N2_9 
ROOT
ATOM      1  N2  <0> d           2.418  -3.889   1.018  0.00  0.00    -0.071 N 
ATOM      2  C8  <0> d           1.940  -4.262  -0.319  0.00  0.00     0.235 C 
ATOM      3  C9  <0> d           1.968  -5.785  -0.466  0.00  0.00     0.037 C 
ATOM      4  C10 <0> d           3.397  -6.286  -0.261  0.00  0.00    -0.037 C 
ATOM      5  C11 <0> d           3.428  -7.823  -0.334  0.00  0.00     0.010 C 
ATOM      6  C12 <0> d           3.830  -8.124  -1.800  0.00  0.00     0.001 C 
ATOM      7  C13 <0> d           4.862  -7.010  -2.109  0.00  0.00     0.001 C 
ATOM      8  C14 <0> d           4.303  -5.766  -1.387  0.00  0.00     0.010 C 
ATOM      9  C15 <0> d           3.925  -5.819   1.094  0.00  0.00     0.037 C 
ATOM     10  C16 <0> d           3.819  -4.294   1.180  0.00  0.00     0.235 C 
ATOM     11  H32 <0> d           1.853  -4.350   1.716  0.00  0.00     0.279 HD
ENDROOT
BRANCH   1  12
ATOM     12  C7  <0> d           2.309  -2.433   1.186  0.00  0.00     0.241 C 
BRANCH  12  13
ATOM     13  C6  <0> d           0.835  -2.024   1.143  0.00  0.00     0.042 C 
ATOM     14  C2  <0> d           0.713  -0.491   1.192  0.00  0.00     0.191 C 
ATOM     15  C3  <0> d          -0.093  -0.153   2.463  0.00  0.00     0.033 C 
ATOM     16  C4  <0> d          -0.903  -1.441   2.753  0.00  0.00     0.002 C 
ATOM     17  C5  <0> d           0.098  -2.564   2.387  0.00  0.00     0.008 C 
BRANCH  14  18
ATOM     18  N1  <0> d           0.002  -0.004   0.002  0.00  0.00    -0.074 N 
ATOM     19  C1  <0> d          -0.018   1.465   0.010  0.00  0.00     0.267 C 
ATOM     20  H6  <0> d          -0.945  -0.353   0.009  0.00  0.00     0.277 HD
ATOM     21  H31 <0> d           0.474  -0.330  -0.828  0.00  0.00     0.277 HD
ENDBRANCH  14  18
ENDBRANCH  12  13
ENDBRANCH   1  12
TORSDOF 3
