REMARK  4 active torsions:
REMARK  status: ('A' for Active; 'I' for Inactive)
REMARK    1  A    between atoms: C3_3  and  N6_21 
REMARK    2  A    between atoms: C4_4  and  C7_8 
REMARK    3  A    between atoms: N4_12  and  C8_13 
REMARK    4  A    between atoms: N5_16  and  C12_18 
ROOT
ATOM      1  C7  <0> d           3.692  -0.701  -0.083  0.00  0.00     0.184 A 
ATOM      2  N1  <0> d           4.891  -0.160  -0.159  0.00  0.00    -0.108 NA
ATOM      3  N2  <0> d           5.798  -1.067  -0.090  0.00  0.00    -0.023 NA
ATOM      4  N3  <0> d           5.260  -2.232   0.033  0.00  0.00    -0.043 NA
ATOM      5  N4  <0> d           3.868  -2.039   0.049  0.00  0.00    -0.224 N 
ENDROOT
BRANCH   1   6
ATOM      6  C4  <0> d           2.400   0.016  -0.125  0.00  0.00     0.041 A 
ATOM      7  C3  <0> d           2.156   0.970  -1.124  0.00  0.00     0.040 A 
ATOM      8  C2  <0> d           0.940   1.637  -1.155  0.00  0.00     0.031 A 
ATOM      9  C1  <0> d          -0.025   1.362  -0.206  0.00  0.00     0.026 A 
ATOM     10  C6  <0> d           0.213   0.420   0.782  0.00  0.00     0.035 A 
ATOM     11  C5  <0> d           1.417  -0.252   0.827  0.00  0.00     0.041 A 
ATOM     12 Cl1  <0> d          -1.010   0.085   1.968  0.00  0.00    -0.084 Cl
BRANCH   7  13
ATOM     13  N6  <0> d           3.131   1.246  -2.081  0.00  0.00    -0.398 N 
ATOM     14  H16 <0> d           2.960   1.906  -2.771  0.00  0.00     0.156 HD
ATOM     15  H17 <0> d           3.981   0.778  -2.057  0.00  0.00     0.156 HD
ENDBRANCH   7  13
ENDBRANCH   1   6
BRANCH   5  16
ATOM     16  C8  <0> d           2.829  -3.065   0.176  0.00  0.00     0.141 C 
ATOM     17  C11 <0> d           3.005  -4.169  -0.896  0.00  0.00     0.262 C 
ATOM     18  N5  <0> d           2.358  -5.365  -0.315  0.00  0.00    -0.065 N 
ATOM     19  C10 <0> d           2.351  -5.229   1.153  0.00  0.00     0.237 C 
ATOM     20  H18 <0> d           1.410  -5.436  -0.654  0.00  0.00     0.280 HD
ATOM     21  C9  <0> d           3.004  -3.872   1.490  0.00  0.00     0.057 C 
BRANCH  18  22
ATOM     22  C12 <0> d           3.110  -6.568  -0.697  0.00  0.00     0.188 A 
ATOM     23  C14 <0> d           2.585  -7.916  -0.200  0.00  0.00     0.035 A 
ATOM     24  C13 <0> d           2.443  -7.537  -1.675  0.00  0.00     0.035 A 
ENDBRANCH  18  22
ENDBRANCH   5  16
TORSDOF 4
