REMARK  4 active torsions:
REMARK  status: ('A' for Active; 'I' for Inactive)
REMARK    1  A    between atoms: C5_5  and  C9_12 
REMARK       I    between atoms: C9_12  and  N4_14 
REMARK    2  A    between atoms: C11_16  and  C18_24 
REMARK       I    between atoms: C18_24  and  N6_26 
REMARK    3  A    between atoms: N6_26  and  C19_27 
REMARK    4  A    between atoms: C19_27  and  C20_28 
ROOT
ATOM      1  C9  <0> d          -0.102  -1.393  -5.144  0.00  0.00     0.257 C 
ATOM      2  O1  <0> d          -0.233  -0.321  -5.702  0.00  0.00    -0.267 OA
ATOM      3  N4  <0> d           0.048  -2.517  -5.872  0.00  0.00    -0.346 N 
ATOM      4  C10 <0> d           0.114  -3.914  -5.382  0.00  0.00     0.141 C 
ATOM      5  C11 <0> d          -0.686  -4.731  -6.421  0.00  0.00     0.106 C 
ATOM      6  C12 <0> d          -0.636  -3.888  -7.706  0.00  0.00    -0.007 C 
ATOM      7  C13 <0> d           0.177  -2.636  -7.344  0.00  0.00     0.136 C 
ATOM      8  C14 <0> d          -2.046  -3.489  -8.132  0.00  0.00     0.039 C 
ATOM      9  C15 <0> d          -1.974  -2.700  -9.443  0.00  0.00     0.233 C 
ATOM     10  N5  <0> d          -1.343  -3.526 -10.479  0.00  0.00    -0.075 N 
ATOM     11  C16 <0> d           0.043  -3.828 -10.104  0.00  0.00     0.233 C 
ATOM     12  C17 <0> d           0.057  -4.664  -8.822  0.00  0.00     0.039 C 
ATOM     13  H18 <0> d          -1.858  -4.388 -10.580  0.00  0.00     0.277 HD
ATOM     14  H32 <0> d          -1.352  -3.027 -11.357  0.00  0.00     0.277 HD
ENDROOT
BRANCH   1  15
ATOM     15  C5  <0> d          -0.107  -1.464  -3.670  0.00  0.00     0.072 A 
ATOM     16  C4  <0> d          -0.921  -0.608  -2.923  0.00  0.00     0.067 A 
ATOM     17  C3  <0> d          -0.884  -0.720  -1.530  0.00  0.00     0.060 A 
ATOM     18 Cl1  <0> d          -1.946   0.558  -3.701  0.00  0.00    -0.082 Cl
ATOM     19  C2  <0> d          -1.563  -0.031  -0.437  0.00  0.00     0.067 A 
ATOM     20  C7  <0> d          -0.040  -1.679  -0.934  0.00  0.00     0.159 A 
ATOM     21  C1  <0> d          -2.569   1.083  -0.576  0.00  0.00     0.073 C 
ATOM     22  N3  <0> d          -1.138  -0.549   0.679  0.00  0.00    -0.175 NA
ATOM     23  N2  <0> d          -0.211  -1.562   0.416  0.00  0.00    -0.256 N 
ATOM     24  C8  <0> d           0.474  -2.367   1.430  0.00  0.00     0.182 C 
ATOM     25  N1  <0> d           0.715  -2.469  -1.692  0.00  0.00    -0.240 NA
ATOM     26  C6  <0> d           0.705  -2.390  -3.001  0.00  0.00     0.138 A 
ENDBRANCH   1  15
BRANCH   5  27
ATOM     27  C18 <0> d          -2.111  -4.909  -5.963  0.00  0.00     0.224 C 
ATOM     28  O2  <0> d          -2.635  -4.064  -5.269  0.00  0.00    -0.273 OA
ATOM     29  N6  <0> d          -2.803  -6.008  -6.325  0.00  0.00    -0.358 N 
ATOM     30  H23 <0> d          -2.384  -6.684  -6.881  0.00  0.00     0.162 HD
BRANCH  29  31
ATOM     31  C19 <0> d          -4.188  -6.181  -5.880  0.00  0.00     0.154 C 
BRANCH  31  32
ATOM     32  C20 <0> d          -4.737  -7.501  -6.426  0.00  0.00     0.139 C 
ATOM     33  O3  <0> d          -4.764  -7.474  -7.862  0.00  0.00    -0.384 OA
ATOM     34  C23 <0> d          -5.926  -8.163  -8.341  0.00  0.00     0.168 C 
ATOM     35  C22 <0> d          -6.729  -8.638  -7.111  0.00  0.00     0.029 C 
ATOM     36  C21 <0> d          -6.214  -7.687  -5.995  0.00  0.00     0.035 C 
ENDBRANCH  31  32
ENDBRANCH  29  31
ENDBRANCH   5  27
TORSDOF 4
