REMARK  6 active torsions:
REMARK  status: ('A' for Active; 'I' for Inactive)
REMARK    1  A    between atoms: C2_2  and  C3_3 
REMARK    2  A    between atoms: C2_2  and  S1_12 
REMARK       I    between atoms: C3_3  and  N1_5 
REMARK    3  A    between atoms: N1_5  and  C4_6 
REMARK    4  A    between atoms: C4_6  and  C5_7 
REMARK    5  A    between atoms: S1_12  and  C9_13 
REMARK    6  A    between atoms: C10_16  and  C11_18 
ROOT
ATOM      1  C9  <0> d          -0.166  -0.072   2.855  0.00  0.00     0.311 A 
ATOM      2  N2  <0> d          -0.333   1.391   2.839  0.00  0.00    -0.273 N 
ATOM      3  N3  <0> d          -1.710   1.610   2.685  0.00  0.00    -0.150 NA
ATOM      4  C10 <0> d          -2.341   0.468   2.613  0.00  0.00     0.195 A 
ATOM      5  O3  <0> d          -1.495  -0.590   2.707  0.00  0.00    -0.296 OA
ATOM      6  H12 <0> d           0.362   2.063   2.918  0.00  0.00     0.186 HD
ENDROOT
BRANCH   1   7
ATOM      7  S1  <0> d           0.879  -0.605   1.472  0.00  0.00    -0.101 SA
BRANCH   7   8
ATOM      8  C2  <0> d           0.002  -0.004   0.002  0.00  0.00     0.139 C 
ATOM      9  C1  <0> d          -0.019   1.526   0.010  0.00  0.00     0.031 C 
BRANCH   8  10
ATOM     10  C3  <0> d           0.707  -0.490  -1.238  0.00  0.00     0.231 C 
ATOM     11  O1  <0> d           1.864  -0.849  -1.176  0.00  0.00    -0.272 OA
ATOM     12  N1  <0> d           0.053  -0.526  -2.415  0.00  0.00    -0.354 N 
ATOM     13  H6  <0> d          -0.873  -0.239  -2.465  0.00  0.00     0.162 HD
BRANCH  12  14
ATOM     14  C4  <0> d           0.738  -0.999  -3.621  0.00  0.00     0.187 C 
BRANCH  14  15
ATOM     15  C5  <0> d          -0.207  -0.940  -4.792  0.00  0.00     0.070 A 
ATOM     16  O2  <0> d          -1.027  -1.926  -5.191  0.00  0.00    -0.325 OA
ATOM     17  C8  <0> d          -1.726  -1.522  -6.264  0.00  0.00     0.142 A 
ATOM     18  C7  <0> d          -1.349  -0.268  -6.569  0.00  0.00     0.027 A 
ATOM     19  C6  <0> d          -0.370   0.108  -5.620  0.00  0.00     0.036 A 
ENDBRANCH  14  15
ENDBRANCH  12  14
ENDBRANCH   8  10
ENDBRANCH   7   8
ENDBRANCH   1   7
BRANCH   4  20
ATOM     20  C11 <0> d          -3.729   0.349   2.458  0.00  0.00     0.026 A 
ATOM     21  C18 <0> d          -4.533  -0.930   2.366  0.00  0.00     0.164 A 
ATOM     22  N4  <0> d          -5.932  -0.519   2.212  0.00  0.00    -0.385 N 
ATOM     23  C17 <0> d          -6.000   0.798   2.200  0.00  0.00     0.039 A 
ATOM     24  H19 <0> d          -6.688  -1.121   2.130  0.00  0.00     0.160 HD
ATOM     25  C12 <0> d          -4.659   1.385   2.349  0.00  0.00     0.003 A 
ATOM     26  C16 <0> d          -7.105   1.679   2.072  0.00  0.00     0.030 A 
ATOM     27  C13 <0> d          -4.526   2.789   2.359  0.00  0.00     0.014 A 
ATOM     28  C14 <0> d          -5.628   3.571   2.232  0.00  0.00     0.001 A 
ATOM     29  C15 <0> d          -6.904   3.020   2.090  0.00  0.00     0.002 A 
ENDBRANCH   4  20
TORSDOF 6
