REMARK  7 active torsions:
REMARK  status: ('A' for Active; 'I' for Inactive)
REMARK    1  A    between atoms: C4_4  and  C7_7 
REMARK    2  A    between atoms: C7_7  and  C8_8 
REMARK    3  A    between atoms: C8_8  and  C9_9 
REMARK    4  A    between atoms: C8_8  and  N5_26 
REMARK    5  A    between atoms: C10_11  and  C12_14 
REMARK    6  A    between atoms: C13_17  and  N4_19 
REMARK    7  A    between atoms: N4_19  and  C14_20 
ROOT
ATOM      1  C9  <0> d           5.279  -2.075   0.545  0.00  0.00     0.176 A 
ATOM      2  N1  <0> d           5.373  -3.276   1.037  0.00  0.00    -0.220 NA
ATOM      3  C10 <0> d           6.671  -3.672   0.964  0.00  0.00     0.136 A 
ATOM      4  C11 <0> d           7.371  -2.654   0.400  0.00  0.00     0.180 A 
ATOM      5  O1  <0> d           6.490  -1.669   0.140  0.00  0.00    -0.303 OA
ENDROOT
BRANCH   3   6
ATOM      6  C12 <0> d           7.218  -4.969   1.413  0.00  0.00     0.225 A 
ATOM      7  O2  <0> d           8.509  -5.362   1.339  0.00  0.00    -0.253 OA
ATOM      8  C13 <0> d           8.557  -6.603   1.860  0.00  0.00     0.272 A 
ATOM      9  N3  <0> d           7.338  -6.927   2.218  0.00  0.00    -0.103 NA
ATOM     10  N2  <0> d           6.540  -5.954   1.951  0.00  0.00    -0.118 NA
BRANCH   8  11
ATOM     11  N4  <0> d           9.685  -7.393   1.989  0.00  0.00    -0.319 N 
ATOM     12  H10 <0> d          10.559  -7.031   1.772  0.00  0.00     0.169 HD
BRANCH  11  13
ATOM     13  C14 <0> d           9.567  -8.713   2.432  0.00  0.00     0.035 A 
ATOM     14  C19 <0> d          10.612  -9.312   3.124  0.00  0.00     0.029 A 
ATOM     15  C18 <0> d          10.490 -10.615   3.564  0.00  0.00     0.002 A 
ATOM     16  C17 <0> d           9.332 -11.328   3.308  0.00  0.00     0.000 A 
ATOM     17  C16 <0> d           8.292 -10.736   2.615  0.00  0.00     0.002 A 
ATOM     18  C15 <0> d           8.405  -9.432   2.177  0.00  0.00     0.029 A 
ENDBRANCH  11  13
ENDBRANCH   8  11
ENDBRANCH   3   6
BRANCH   1  19
ATOM     19  C8  <0> d           4.009  -1.272   0.440  0.00  0.00     0.264 C 
BRANCH  19  20
ATOM     20  C7  <0> d           3.530  -1.262  -1.013  0.00  0.00     0.080 C 
BRANCH  20  21
ATOM     21  C4  <0> d           2.197  -0.563  -1.097  0.00  0.00    -0.056 A 
ATOM     22  C3  <0> d           2.144   0.801  -1.313  0.00  0.00     0.007 A 
ATOM     23  C2  <0> d           0.921   1.442  -1.391  0.00  0.00     0.001 A 
ATOM     24  C1  <0> d          -0.248   0.718  -1.255  0.00  0.00     0.000 A 
ATOM     25  C6  <0> d          -0.195  -0.647  -1.039  0.00  0.00     0.001 A 
ATOM     26  C5  <0> d           1.027  -1.287  -0.960  0.00  0.00     0.007 A 
ENDBRANCH  20  21
ENDBRANCH  19  20
BRANCH  19  27
ATOM     27  N5  <0> d           4.263   0.106   0.882  0.00  0.00    -0.067 N 
ATOM     28  H16 <0> d           3.413   0.644   0.812  0.00  0.00     0.275 HD
ATOM     29  H17 <0> d           4.579   0.100   1.840  0.00  0.00     0.275 HD
ATOM     30  H18 <0> d           4.973   0.521   0.296  0.00  0.00     0.275 HD
ENDBRANCH  19  27
ENDBRANCH   1  19
TORSDOF 7
