REMARK  5 active torsions:
REMARK  status: ('A' for Active; 'I' for Inactive)
REMARK    1  A    between atoms: C4_4  and  O4_28 
REMARK    2  A    between atoms: C5_5  and  N1_7 
REMARK    3  A    between atoms: C11_12  and  C12_13 
REMARK    4  A    between atoms: C11_12  and  N5_32 
REMARK       I    between atoms: C12_13  and  N2_15 
REMARK    5  A    between atoms: N2_15  and  N3_16 
ROOT
ATOM      1  C12 <0> d           3.437   3.501   1.490  0.00  0.00     0.262 C 
ATOM      2  O1  <0> d           2.362   4.051   1.604  0.00  0.00    -0.270 OA
ATOM      3  N2  <0> d           4.574   4.217   1.589  0.00  0.00    -0.255 N 
ATOM      4  H15 <0> d           5.434   3.777   1.498  0.00  0.00     0.191 HD
ENDROOT
BRANCH   1   5
ATOM      5  C11 <0> d           3.501   2.017   1.237  0.00  0.00     0.338 C 
BRANCH   5   6
ATOM      6  N5  <0> d           2.124   1.480   1.193  0.00  0.00    -0.060 N 
ATOM      7  C8  <0> d           1.419   1.992  -0.001  0.00  0.00     0.250 C 
ATOM      8  C7  <0> d          -0.018   1.465   0.010  0.00  0.00     0.123 C 
ATOM      9  N1  <0> d           0.002  -0.004   0.002  0.00  0.00    -0.278 NA
ATOM     10  C10 <0> d           0.721  -0.525   1.173  0.00  0.00     0.123 C 
ATOM     11  C9  <0> d           2.158   0.003   1.162  0.00  0.00     0.250 C 
ATOM     12  H28 <0> d           1.620   1.784   2.034  0.00  0.00     0.280 HD
BRANCH   9  13
ATOM     13  C5  <0> d          -1.296  -0.523  -0.061  0.00  0.00     0.044 A 
ATOM     14  C4  <0> d          -1.673  -1.335  -1.128  0.00  0.00     0.087 A 
ATOM     15  C3  <0> d          -2.959  -1.846  -1.186  0.00  0.00     0.038 A 
ATOM     16  C2  <0> d          -3.866  -1.550  -0.185  0.00  0.00     0.003 A 
ATOM     17  C1  <0> d          -3.493  -0.744   0.875  0.00  0.00     0.002 A 
ATOM     18  C6  <0> d          -2.210  -0.234   0.942  0.00  0.00     0.026 A 
BRANCH  14  19
ATOM     19  O4  <0> d          -0.779  -1.627  -2.112  0.00  0.00    -0.359 OA
ATOM     20  H27 <0> d          -0.258  -2.424  -1.946  0.00  0.00     0.217 HD
ENDBRANCH  14  19
ENDBRANCH   9  13
ENDBRANCH   5   6
ENDBRANCH   1   5
BRANCH   3  21
ATOM     21  N3  <0> d           4.514   5.597   1.825  0.00  0.00    -0.167 N 
ATOM     22  C20 <0> d           4.181   6.504   0.899  0.00  0.00     0.345 A 
ATOM     23  N4  <0> d           4.196   7.761   1.383  0.00  0.00    -0.323 N 
ATOM     24  O3  <0> d           3.895   6.225  -0.249  0.00  0.00    -0.245 OA
ATOM     25  C14 <0> d           4.596   7.659   2.792  0.00  0.00     0.117 A 
ATOM     26  H26 <0> d           3.987   8.573   0.895  0.00  0.00     0.165 HD
ATOM     27  C13 <0> d           4.791   6.176   3.011  0.00  0.00     0.275 A 
ATOM     28  C19 <0> d           3.494   8.190   3.701  0.00  0.00     0.041 C 
ATOM     29  C15 <0> d           5.902   8.408   3.032  0.00  0.00     0.041 C 
ATOM     30  O2  <0> d           5.126   5.624   4.037  0.00  0.00    -0.268 OA
ATOM     31  C18 <0> d           3.292   9.686   3.444  0.00  0.00     0.003 C 
ATOM     32  C17 <0> d           4.602  10.429   3.714  0.00  0.00     0.000 C 
ATOM     33  C16 <0> d           5.691   9.902   2.778  0.00  0.00     0.003 C 
ENDBRANCH   3  21
TORSDOF 5
