REMARK  3 active torsions:
REMARK  status: ('A' for Active; 'I' for Inactive)
REMARK    1  A    between atoms: C2_2  and  C5_9 
REMARK    2  A    between atoms: C10_14  and  C11_15 
REMARK    3  A    between atoms: C10_14  and  N3_27 
ROOT
ATOM      1  C5  <0> d           1.748   2.588  -1.259  0.00  0.00     0.026 C 
ATOM      2  C6  <0> d           1.480   1.734  -2.502  0.00  0.00     0.035 C 
ATOM      3  C7  <0> d           1.850   2.534  -3.753  0.00  0.00     0.235 C 
ATOM      4  C8  <0> d           3.539   3.771  -2.534  0.00  0.00     0.235 C 
ATOM      5  C9  <0> d           3.220   3.009  -1.246  0.00  0.00     0.035 C 
ATOM      6  N3  <0> d           3.284   2.887  -3.691  0.00  0.00    -0.067 N 
ATOM      7  H21 <0> d           3.834   2.027  -3.580  0.00  0.00     0.280 HD
ENDROOT
BRANCH   6   8
ATOM      8  C10 <0> d           3.693   3.561  -4.940  0.00  0.00     0.275 C 
BRANCH   8   9
ATOM      9  C11 <0> d           3.183   2.770  -6.117  0.00  0.00    -0.008 A 
ATOM     10  C16 <0> d           3.787   1.574  -6.460  0.00  0.00     0.044 A 
ATOM     11  C15 <0> d           3.321   0.845  -7.539  0.00  0.00     0.064 A 
ATOM     12 Cl1  <0> d           5.132   0.986  -5.533  0.00  0.00    -0.084 Cl
ATOM     13  C14 <0> d           2.247   1.312  -8.279  0.00  0.00     0.106 A 
ATOM     14  C13 <0> d           1.639   2.516  -7.934  0.00  0.00     0.105 A 
ATOM     15  O3  <0> d           1.605   0.795  -9.368  0.00  0.00    -0.323 OA
ATOM     16  C12 <0> d           2.107   3.239  -6.849  0.00  0.00     0.050 A 
ATOM     17  O4  <0> d           0.616   2.754  -8.806  0.00  0.00    -0.323 OA
ATOM     18  C17 <0> d           0.863   1.892  -9.933  0.00  0.00     0.352 C 
ENDBRANCH   8   9
ENDBRANCH   6   8
BRANCH   1  19
ATOM     19  C2  <0> d           1.437   1.773  -0.002  0.00  0.00     0.116 A 
ATOM     20  C1  <0> d           1.772   2.575   1.257  0.00  0.00     0.049 C 
ATOM     21  N2  <0> d           2.175   0.498  -0.016  0.00  0.00    -0.325 N 
ATOM     22  C4  <0> d           1.252  -0.481  -0.013  0.00  0.00     0.323 A 
ATOM     23  H5  <0> d           3.139   0.386  -0.026  0.00  0.00     0.165 HD
ATOM     24  N1  <0> d           0.002  -0.004   0.002  0.00  0.00    -0.277 N 
ATOM     25  O2  <0> d           1.524  -1.665  -0.021  0.00  0.00    -0.247 OA
ATOM     26  C3  <0> d          -0.016   1.343   0.009  0.00  0.00     0.254 A 
ATOM     27  H4  <0> d          -0.793  -0.560   0.007  0.00  0.00     0.173 HD
ATOM     28  O1  <0> d          -0.992   2.062   0.018  0.00  0.00    -0.270 OA
ENDBRANCH   1  19
TORSDOF 3
