REMARK  5 active torsions:
REMARK  status: ('A' for Active; 'I' for Inactive)
REMARK    1  A    between atoms: C2_2  and  C3_3 
REMARK    2  A    between atoms: C3_3  and  C13_19 
REMARK    3  A    between atoms: N1_6  and  C6_10 
REMARK    4  A    between atoms: C6_10  and  N3_11 
REMARK    5  A    between atoms: C9_14  and  O3_17 
ROOT
ATOM      1  C3  <0> d          -1.433  -0.534   0.013  0.00  0.00     0.143 A 
ATOM      2  C4  <0> d          -2.192  -0.043  -1.205  0.00  0.00     0.262 A 
ATOM      3  O1  <0> d          -1.933  -0.267  -2.368  0.00  0.00    -0.270 OA
ATOM      4  N1  <0> d          -3.214   0.692  -0.725  0.00  0.00    -0.239 N 
ATOM      5  C5  <0> d          -3.207   0.734   0.612  0.00  0.00     0.328 A 
ATOM      6  O2  <0> d          -4.031   1.335   1.273  0.00  0.00    -0.247 OA
ATOM      7  N2  <0> d          -2.187   0.036   1.143  0.00  0.00    -0.320 N 
ATOM      8  H6  <0> d          -1.987  -0.072   2.086  0.00  0.00     0.165 HD
ENDROOT
BRANCH   4   9
ATOM      9  C6  <0> d          -4.210   1.363  -1.565  0.00  0.00     0.409 C 
BRANCH   9  10
ATOM     10  N3  <0> d          -5.339   0.455  -1.806  0.00  0.00     0.106 N 
ATOM     11  C11 <0> d          -6.038   0.802  -3.050  0.00  0.00     0.277 C 
ATOM     12  C10 <0> d          -7.112  -0.247  -3.344  0.00  0.00     0.062 C 
ATOM     13  C9  <0> d          -8.102  -0.298  -2.178  0.00  0.00     0.124 C 
ATOM     14  C8  <0> d          -7.342  -0.614  -0.886  0.00  0.00     0.062 C 
ATOM     15  C7  <0> d          -6.261   0.446  -0.663  0.00  0.00     0.277 C 
BRANCH  13  16
ATOM     16  O3  <0> d          -9.075  -1.316  -2.421  0.00  0.00    -0.391 OA
ATOM     17  C12 <0> d         -10.233  -0.858  -3.121  0.00  0.00     0.202 C 
ENDBRANCH  13  16
ENDBRANCH   9  10
ENDBRANCH   4   9
BRANCH   1  18
ATOM     18  C2  <0> d           0.002  -0.004   0.002  0.00  0.00     0.042 C 
ATOM     19  C1  <0> d          -0.019   1.526   0.010  0.00  0.00     0.008 C 
ENDBRANCH   1  18
BRANCH   1  20
ATOM     20  C13 <0> d          -1.441  -2.039   0.076  0.00  0.00    -0.021 A 
ATOM     21  C18 <0> d          -2.486  -2.700   0.694  0.00  0.00     0.010 A 
ATOM     22  C17 <0> d          -2.495  -4.082   0.748  0.00  0.00     0.001 A 
ATOM     23  C16 <0> d          -1.454  -4.802   0.191  0.00  0.00     0.000 A 
ATOM     24  C15 <0> d          -0.407  -4.141  -0.423  0.00  0.00     0.001 A 
ATOM     25  C14 <0> d          -0.400  -2.759  -0.480  0.00  0.00     0.010 A 
ENDBRANCH   1  20
TORSDOF 5
