REMARK  7 active torsions:
REMARK  status: ('A' for Active; 'I' for Inactive)
REMARK    1  A    between atoms: C3_3  and  S1_9 
REMARK    2  A    between atoms: S1_9  and  N3_12 
REMARK    3  A    between atoms: N3_12  and  C8_14 
REMARK    4  A    between atoms: C8_14  and  C9_15 
REMARK    5  A    between atoms: C9_15  and  C10_16 
REMARK    6  A    between atoms: C9_15  and  O4_19 
REMARK    7  A    between atoms: C10_16  and  O3_17 
ROOT
ATOM      1  S1  <0> d          -0.009  -0.263  -2.808  0.00  0.00     0.264 S 
ATOM      2  O1  <0> d          -0.549  -1.324  -3.583  0.00  0.00    -0.200 OA
ATOM      3  O2  <0> d          -0.578   1.039  -2.797  0.00  0.00    -0.200 OA
ENDROOT
BRANCH   1   4
ATOM      4  C3  <0> d           0.008  -0.818  -1.135  0.00  0.00     0.129 A 
ATOM      5  C2  <0> d           0.002  -0.004   0.002  0.00  0.00     0.076 A 
ATOM      6  C1  <0> d          -0.018   1.503   0.010  0.00  0.00     0.074 C 
ATOM      7  N2  <0> d           0.023  -0.777   1.058  0.00  0.00    -0.176 NA
ATOM      8  N1  <0> d           0.034  -2.109   0.625  0.00  0.00    -0.277 N 
ATOM      9  C4  <0> d           0.028  -2.107  -0.725  0.00  0.00     0.051 A 
ATOM     10  C5  <0> d           0.055  -3.295   1.485  0.00  0.00     0.179 C 
ATOM     11  C6  <0> d           0.040  -3.323  -1.615  0.00  0.00     0.072 C 
ENDBRANCH   1   4
BRANCH   1  12
ATOM     12  N3  <0> d           1.569  -0.086  -3.280  0.00  0.00    -0.308 N 
ATOM     13  C7  <0> d           2.281  -1.212  -3.890  0.00  0.00     0.163 C 
BRANCH  12  14
ATOM     14  C8  <0> d           2.252   1.196  -3.090  0.00  0.00     0.168 C 
BRANCH  14  15
ATOM     15  C9  <0> d           3.031   1.167  -1.774  0.00  0.00     0.160 C 
BRANCH  15  16
ATOM     16  C10 <0> d           3.642   2.546  -1.513  0.00  0.00     0.200 C 
BRANCH  16  17
ATOM     17  O3  <0> d           4.272   2.553  -0.230  0.00  0.00    -0.393 OA
ATOM     18  C11 <0> d           4.877   3.801   0.114  0.00  0.00     0.201 C 
ENDBRANCH  16  17
ENDBRANCH  15  16
BRANCH  15  19
ATOM     19  O4  <0> d           4.073   0.193  -1.858  0.00  0.00    -0.392 OA
ATOM     20  H21 <0> d           4.712   0.360  -2.565  0.00  0.00     0.210 HD
ENDBRANCH  15  19
ENDBRANCH  14  15
ENDBRANCH  12  14
ENDBRANCH   1  12
TORSDOF 7
