REMARK  4 active torsions:
REMARK  status: ('A' for Active; 'I' for Inactive)
REMARK    1  A    between atoms: C6_7  and  N2_8 
REMARK    2  A    between atoms: C9_11  and  N3_14 
REMARK       I    between atoms: N3_14  and  C12_15 
REMARK    3  A    between atoms: C12_15  and  C13_17 
REMARK       I    between atoms: N4_19  and  C21_27 
REMARK    4  A    between atoms: C21_27  and  C22_29 
ROOT
ATOM      1  C13 <0> d           3.495   1.769   7.222  0.00  0.00     0.106 C 
ATOM      2  C14 <0> d           3.852   3.231   6.874  0.00  0.00     0.141 C 
ATOM      3  N4  <0> d           3.594   3.987   8.123  0.00  0.00    -0.345 N 
ATOM      4  C15 <0> d           4.071   3.089   9.202  0.00  0.00     0.136 C 
ATOM      5  C16 <0> d           3.644   1.679   8.751  0.00  0.00    -0.007 C 
ATOM      6  C17 <0> d           4.718   0.659   9.118  0.00  0.00     0.039 C 
ATOM      7  C18 <0> d           4.807   0.544  10.642  0.00  0.00     0.233 C 
ATOM      8  N5  <0> d           3.505   0.130  11.180  0.00  0.00    -0.075 N 
ATOM      9  C19 <0> d           2.498   1.161  10.903  0.00  0.00     0.233 C 
ATOM     10  C20 <0> d           2.311   1.302   9.390  0.00  0.00     0.039 C 
ATOM     11  C21 <0> d           3.048   5.213   8.249  0.00  0.00     0.272 C 
ATOM     12  O2  <0> d           2.785   5.651   9.353  0.00  0.00    -0.266 OA
ATOM     13  H26 <0> d           3.225  -0.737  10.748  0.00  0.00     0.277 HD
ATOM     14  H36 <0> d           3.582  -0.004  12.177  0.00  0.00     0.277 HD
ENDROOT
BRANCH   1  15
ATOM     15  C12 <0> d           2.077   1.463   6.814  0.00  0.00     0.224 C 
ATOM     16  N3  <0> d           1.731   0.207   6.469  0.00  0.00    -0.356 N 
ATOM     17  H17 <0> d           2.395  -0.500   6.484  0.00  0.00     0.162 HD
ATOM     18  O1  <0> d           1.247   2.347   6.797  0.00  0.00    -0.273 OA
BRANCH  16  19
ATOM     19  C9  <0> d           0.353  -0.090   6.073  0.00  0.00     0.087 C 
ATOM     20  C8  <0> d           0.337  -1.327   5.171  0.00  0.00     0.045 C 
ATOM     21  C7  <0> d          -1.102  -1.614   4.731  0.00  0.00     0.126 C 
ATOM     22  N2  <0> d          -1.949  -1.728   5.926  0.00  0.00    -0.367 N 
ATOM     23  C11 <0> d          -1.944  -0.630   6.902  0.00  0.00     0.126 C 
ATOM     24  C10 <0> d          -0.491  -0.356   7.321  0.00  0.00     0.045 C 
BRANCH  22  25
ATOM     25  C6  <0> d          -2.745  -2.850   6.126  0.00  0.00     0.109 A 
ATOM     26  C2  <0> d          -4.013  -2.906   5.557  0.00  0.00    -0.018 A 
ATOM     27  C1  <0> d          -4.528  -1.759   4.726  0.00  0.00     0.052 C 
ATOM     28  C3  <0> d          -4.792  -4.031   5.760  0.00  0.00     0.012 A 
ATOM     29  C4  <0> d          -4.277  -5.063   6.532  0.00  0.00     0.018 A 
ATOM     30  C5  <0> d          -3.012  -4.938   7.072  0.00  0.00     0.089 A 
ATOM     31  N1  <0> d          -2.292  -3.853   6.862  0.00  0.00    -0.352 N 
ATOM     32  H37 <0> d          -1.406  -3.790   7.253  0.00  0.00     0.166 HD
ENDBRANCH  22  25
ENDBRANCH  16  19
ENDBRANCH   1  15
BRANCH  11  33
ATOM     33  C22 <0> d           2.772   6.019   7.054  0.00  0.00     0.121 A 
ATOM     34  N7  <0> d           2.076   7.211   7.002  0.00  0.00    -0.340 N 
ATOM     35  C24 <0> d           2.062   7.604   5.716  0.00  0.00     0.209 A 
ATOM     36  C25 <0> d           1.470   7.916   8.134  0.00  0.00     0.157 C 
ATOM     37  N6  <0> d           2.698   6.721   4.990  0.00  0.00    -0.253 NA
ATOM     38  C23 <0> d           3.147   5.737   5.771  0.00  0.00     0.153 A 
ENDBRANCH  11  33
TORSDOF 4
