REMARK  7 active torsions:
REMARK  status: ('A' for Active; 'I' for Inactive)
REMARK    1  A    between atoms: C3_3  and  C12_17 
REMARK    2  A    between atoms: C6_6  and  C7_7 
REMARK    3  A    between atoms: C7_7  and  S1_8 
REMARK    4  A    between atoms: S1_8  and  C8_9 
REMARK    5  A    between atoms: C9_11  and  N4_16 
REMARK    6  A    between atoms: C11_13  and  N3_15 
REMARK       I    between atoms: C12_17  and  N5_19 
REMARK    7  A    between atoms: N5_19  and  C13_20 
ROOT
ATOM      1  C1  <0> d           2.427   4.196   0.002  0.00  0.00     0.009 A 
ATOM      2  C2  <0> d           1.238   3.496   0.009  0.00  0.00     0.017 A 
ATOM      3  C3  <0> d           1.254   2.100   0.001  0.00  0.00     0.032 A 
ATOM      4  C4  <0> d           2.474   1.421  -0.008  0.00  0.00     0.017 A 
ATOM      5  C5  <0> d           3.655   2.134  -0.021  0.00  0.00     0.009 A 
ATOM      6  C6  <0> d           3.633   3.517  -0.013  0.00  0.00    -0.048 A 
ENDROOT
BRANCH   6   7
ATOM      7  C7  <0> d           4.927   4.288  -0.021  0.00  0.00     0.121 C 
BRANCH   7   8
ATOM      8  S1  <0> d           5.461   4.588   1.683  0.00  0.00    -0.085 SA
BRANCH   8   9
ATOM      9  C8  <0> d           6.952   5.479   1.384  0.00  0.00     0.192 A 
ATOM     10  N2  <0> d           7.672   5.896   2.415  0.00  0.00    -0.206 NA
ATOM     11  C11 <0> d           8.803   6.572   2.227  0.00  0.00     0.127 A 
ATOM     12  C10 <0> d           9.226   6.838   0.928  0.00  0.00     0.100 A 
ATOM     13  C9  <0> d           8.443   6.383  -0.129  0.00  0.00     0.127 A 
ATOM     14  N1  <0> d           7.327   5.709   0.134  0.00  0.00    -0.206 NA
BRANCH  11  15
ATOM     15  N3  <0> d           9.550   7.006   3.312  0.00  0.00    -0.384 N 
ATOM     16  H8  <0> d           9.249   6.817   4.214  0.00  0.00     0.157 HD
ATOM     17  H9  <0> d          10.373   7.498   3.167  0.00  0.00     0.157 HD
ENDBRANCH  11  15
BRANCH  13  18
ATOM     18  N4  <0> d           8.825   6.625  -1.440  0.00  0.00    -0.384 N 
ATOM     19  H10 <0> d           9.642   7.114  -1.625  0.00  0.00     0.157 HD
ATOM     20  H11 <0> d           8.275   6.306  -2.172  0.00  0.00     0.157 HD
ENDBRANCH  13  18
ENDBRANCH   8   9
ENDBRANCH   7   8
ENDBRANCH   6   7
BRANCH   3  21
ATOM     21  C12 <0> d          -0.016   1.344   0.009  0.00  0.00     0.257 C 
ATOM     22  O1  <0> d          -1.077   1.937   0.018  0.00  0.00    -0.267 OA
ATOM     23  N5  <0> d           0.002  -0.004   0.002  0.00  0.00    -0.301 N 
ATOM     24  H12 <0> d           0.849  -0.478  -0.009  0.00  0.00     0.171 HD
BRANCH  23  25
ATOM     25  C13 <0> d          -1.191  -0.715   0.010  0.00  0.00     0.173 A 
ATOM     26  S2  <0> d          -1.437  -2.434   0.003  0.00  0.00    -0.062 SA
ATOM     27  C15 <0> d          -3.224  -2.413   0.020  0.00  0.00     0.072 A 
ATOM     28  C14 <0> d          -3.460  -1.078   0.029  0.00  0.00     0.126 A 
ATOM     29  N6  <0> d          -2.428  -0.257   0.030  0.00  0.00    -0.236 NA
ENDBRANCH  23  25
ENDBRANCH   3  21
TORSDOF 7
