REMARK  4 active torsions:
REMARK  status: ('A' for Active; 'I' for Inactive)
REMARK    1  A    between atoms: C2_2  and  C4_4 
REMARK    2  A    between atoms: C2_2  and  N1_6 
REMARK    3  A    between atoms: C4_4  and  O1_5 
REMARK       I    between atoms: N1_6  and  C5_7 
REMARK    4  A    between atoms: C5_7  and  C6_9 
ROOT
ATOM      1  N1  <0> d           0.688  -0.476  -1.203  0.00  0.00    -0.346 N 
ATOM      2  C5  <0> d           1.972  -0.132  -1.427  0.00  0.00     0.253 C 
ATOM      3  O2  <0> d           2.560   0.570  -0.629  0.00  0.00    -0.268 OA
ATOM      4  H10 <0> d           0.218  -1.037  -1.840  0.00  0.00     0.163 HD
ENDROOT
BRANCH   2   5
ATOM      5  C6  <0> d           2.663  -0.609  -2.643  0.00  0.00     0.050 A 
ATOM      6  C10 <0> d           1.999  -1.416  -3.567  0.00  0.00     0.133 A 
ATOM      7  N2  <0> d           2.613  -1.836  -4.654  0.00  0.00    -0.271 NA
ATOM      8  C9  <0> d           3.870  -1.527  -4.908  0.00  0.00     0.135 A 
ATOM      9  C8  <0> d           4.601  -0.736  -4.038  0.00  0.00     0.029 A 
ATOM     10  C7  <0> d           3.999  -0.263  -2.885  0.00  0.00     0.039 A 
ATOM     11 Br1  <0> d           6.401  -0.304  -4.423  0.00  0.00    -0.050 Br
ENDBRANCH   2   5
BRANCH   1  12
ATOM     12  C2  <0> d           0.002  -0.004   0.002  0.00  0.00     0.047 C 
ATOM     13  C1  <0> d          -0.019   1.526   0.010  0.00  0.00     0.040 C 
ATOM     14  C3  <0> d           0.742  -0.511   1.242  0.00  0.00     0.040 C 
BRANCH  12  15
ATOM     15  C4  <0> d          -1.433  -0.534   0.013  0.00  0.00     0.194 C 
BRANCH  15  16
ATOM     16  O1  <0> d          -2.102  -0.073   1.189  0.00  0.00    -0.398 OA
ATOM     17  H9  <0> d          -3.019  -0.371   1.262  0.00  0.00     0.209 HD
ENDBRANCH  15  16
ENDBRANCH  12  15
ENDBRANCH   1  12
TORSDOF 4
