REMARK  4 active torsions:
REMARK  status: ('A' for Active; 'I' for Inactive)
REMARK    1  A    between atoms: C7_7  and  C8_8 
REMARK       I    between atoms: C8_8  and  N1_10 
REMARK    2  A    between atoms: N1_10  and  C9_11 
REMARK    3  A    between atoms: C10_13  and  C12_16 
REMARK       I    between atoms: C12_16  and  N3_18 
REMARK    4  A    between atoms: N4_21  and  C17_24 
ROOT
ATOM      1  C9  <0> d           0.087  -0.038   4.931  0.00  0.00     0.174 A 
ATOM      2  N2  <0> d           0.422  -0.492   6.121  0.00  0.00    -0.218 NA
ATOM      3  C10 <0> d           0.718   0.393   7.078  0.00  0.00     0.134 A 
ATOM      4  C11 <0> d           0.663   1.726   6.785  0.00  0.00     0.090 A 
ATOM      5  S1  <0> d           0.202   1.727   5.167  0.00  0.00    -0.061 SA
ENDROOT
BRANCH   3   6
ATOM      6  C12 <0> d           1.098  -0.062   8.425  0.00  0.00     0.273 C 
ATOM      7  O2  <0> d           1.178   0.739   9.338  0.00  0.00    -0.266 OA
ATOM      8  N3  <0> d           1.358  -1.366   8.649  0.00  0.00    -0.344 N 
ATOM      9  C16 <0> d           1.710  -1.847   9.993  0.00  0.00     0.154 C 
ATOM     10  C13 <0> d           1.303  -2.346   7.553  0.00  0.00     0.154 C 
ATOM     11  C15 <0> d           2.981  -2.690   9.894  0.00  0.00     0.255 C 
ATOM     12  N4  <0> d           2.789  -3.753   8.900  0.00  0.00    -0.065 N 
ATOM     13  C14 <0> d           2.599  -3.164   7.569  0.00  0.00     0.255 C 
ATOM     14  H25 <0> d           1.975  -4.298   9.145  0.00  0.00     0.280 HD
BRANCH  12  15
ATOM     15  C17 <0> d           3.970  -4.626   8.884  0.00  0.00     0.180 C 
ATOM     16  C18 <0> d           4.170  -5.240  10.271  0.00  0.00     0.039 C 
ATOM     17  C19 <0> d           3.767  -5.741   7.856  0.00  0.00     0.039 C 
ENDBRANCH  12  15
ENDBRANCH   3   6
BRANCH   1  18
ATOM     18  N1  <0> d          -0.259  -0.747   3.789  0.00  0.00    -0.301 N 
ATOM     19  C8  <0> d          -0.567  -0.089   2.655  0.00  0.00     0.258 C 
ATOM     20  O1  <0> d          -0.542   1.126   2.631  0.00  0.00    -0.267 OA
ATOM     21  H8  <0> d          -0.279  -1.717   3.808  0.00  0.00     0.171 HD
BRANCH  19  22
ATOM     22  C7  <0> d          -0.936  -0.844   1.439  0.00  0.00     0.038 A 
ATOM     23  C2  <0> d          -1.177  -0.170   0.241  0.00  0.00    -0.046 A 
ATOM     24  C1  <0> d          -1.062   1.332   0.183  0.00  0.00     0.049 C 
ATOM     25  C3  <0> d          -1.515  -0.882  -0.892  0.00  0.00     0.007 A 
ATOM     26  C4  <0> d          -1.620  -2.260  -0.841  0.00  0.00     0.001 A 
ATOM     27  C5  <0> d          -1.388  -2.934   0.345  0.00  0.00     0.001 A 
ATOM     28  C6  <0> d          -1.050  -2.235   1.485  0.00  0.00     0.017 A 
ENDBRANCH  19  22
ENDBRANCH   1  18
TORSDOF 4
