REMARK  2 active torsions:
REMARK  status: ('A' for Active; 'I' for Inactive)
REMARK    1  A    between atoms: C4_5  and  C5_6 
REMARK    2  A    between atoms: C6_8  and  C9_12 
ROOT
ATOM      1  C5  <0> d          -0.980  -0.932   0.388  0.00  0.00     0.288 C 
ATOM      2  N1  <0> d          -0.709  -2.279   0.911  0.00  0.00    -0.043 N 
ATOM      3  C6  <0> d          -1.903  -3.117   0.795  0.00  0.00     0.288 C 
ATOM      4  C7  <0> d          -2.131  -3.546  -0.652  0.00  0.00     0.054 C 
ATOM      5  C8  <0> d          -2.600  -2.341  -1.477  0.00  0.00     0.079 C 
ATOM      6  S2  <0> d          -1.315  -1.054  -1.396  0.00  0.00    -0.131 SA
ATOM      7  H5  <0> d           0.045  -2.696   0.386  0.00  0.00     0.280 HD
ATOM      8  H10 <0> d          -0.440  -2.213   1.882  0.00  0.00     0.280 HD
ENDROOT
BRANCH   1   9
ATOM      9  C4  <0> d           0.219  -0.049   0.618  0.00  0.00     0.024 A 
ATOM     10  C1  <0> d           0.267   1.291   0.815  0.00  0.00     0.019 A 
ATOM     11  C2  <0> d           1.494   1.897   1.008  0.00  0.00     0.028 A 
ATOM     12  C3  <0> d           2.615   1.132   0.994  0.00  0.00     0.051 A 
ATOM     13  S1  <0> d           1.945  -0.497   0.702  0.00  0.00    -0.084 SA
ATOM     14 Br1  <0> d           4.417   1.656   1.224  0.00  0.00    -0.043 Br
ENDBRANCH   1   9
BRANCH   3  15
ATOM     15  C9  <0> d          -3.102  -2.340   1.274  0.00  0.00     0.204 C 
ATOM     16  O1  <0> d          -4.216  -2.625   0.869  0.00  0.00    -0.646 OA
ATOM     17  O2  <0> d          -2.958  -1.425   2.068  0.00  0.00    -0.646 OA
ENDBRANCH   3  15
TORSDOF 2
