REMARK  5 active torsions:
REMARK  status: ('A' for Active; 'I' for Inactive)
REMARK    1  A    between atoms: C3_3  and  N3_13 
REMARK    2  A    between atoms: C6_6  and  C7_7 
REMARK    3  A    between atoms: C7_7  and  N1_8 
REMARK    4  A    between atoms: N3_13  and  S1_14 
REMARK    5  A    between atoms: S1_14  and  C11_17 
ROOT
ATOM      1  S1  <0> d           4.781  -0.241  -1.144  0.00  0.00     0.263 S 
ATOM      2  O1  <0> d           4.995   1.157  -1.007  0.00  0.00    -0.200 OA
ATOM      3  O2  <0> d           5.830  -1.190  -1.006  0.00  0.00    -0.200 OA
ENDROOT
BRANCH   1   4
ATOM      4  N3  <0> d           3.621  -0.653  -0.037  0.00  0.00    -0.281 N 
ATOM      5  H12 <0> d           3.802  -1.479   0.668  0.00  0.00     0.179 HD
BRANCH   4   6
ATOM      6  C3  <0> d           2.413   0.048   0.004  0.00  0.00     0.042 A 
ATOM      7  C2  <0> d           2.412   1.436  -0.038  0.00  0.00     0.031 A 
ATOM      8  C1  <0> d           1.216   2.126   0.001  0.00  0.00     0.011 A 
ATOM      9  C6  <0> d           0.021   1.435   0.082  0.00  0.00    -0.040 A 
ATOM     10  C5  <0> d           0.018   0.053   0.124  0.00  0.00     0.011 A 
ATOM     11  C4  <0> d           1.211  -0.643   0.085  0.00  0.00     0.031 A 
BRANCH   9  12
ATOM     12  C7  <0> d          -1.282   2.191   0.118  0.00  0.00     0.167 C 
BRANCH  12  13
ATOM     13  N1  <0> d          -1.642   2.478   1.510  0.00  0.00    -0.346 N 
ATOM     14  C10 <0> d          -2.387   1.697   2.321  0.00  0.00     0.209 A 
ATOM     15  N2  <0> d          -2.489   2.280   3.484  0.00  0.00    -0.255 NA
ATOM     16  C9  <0> d          -1.828   3.447   3.454  0.00  0.00     0.135 A 
ATOM     17  C8  <0> d          -1.290   3.589   2.227  0.00  0.00     0.111 A 
ENDBRANCH  12  13
ENDBRANCH   9  12
ENDBRANCH   4   6
ENDBRANCH   1   4
BRANCH   1  18
ATOM     18  C11 <0> d           4.085  -0.489  -2.744  0.00  0.00     0.081 A 
ATOM     19  C16 <0> d           3.507   0.570  -3.412  0.00  0.00     0.044 A 
ATOM     20  C15 <0> d           2.959   0.366  -4.676  0.00  0.00     0.060 A 
ATOM     21  C14 <0> d           2.998  -0.910  -5.263  0.00  0.00     0.052 A 
ATOM     22  C17 <0> d           2.330   1.463  -5.434  0.00  0.00     0.261 A 
ATOM     23  C13 <0> d           3.584  -1.963  -4.576  0.00  0.00     0.032 A 
ATOM     24  N5  <0> d           2.445  -1.083  -6.524  0.00  0.00    -0.308 N 
ATOM     25  C12 <0> d           4.128  -1.747  -3.326  0.00  0.00     0.027 A 
ATOM     26  C18 <0> d           1.883  -0.049  -7.173  0.00  0.00     0.327 A 
ATOM     27  H2  <0> d           2.464  -2.073  -7.002  0.00  0.00     0.170 HD
ATOM     28  N4  <0> d           1.821   1.188  -6.654  0.00  0.00    -0.275 N 
ATOM     29  O4  <0> d           1.410  -0.242  -8.276  0.00  0.00    -0.247 OA
ATOM     30  H1  <0> d           1.345   1.985  -7.244  0.00  0.00     0.173 HD
ATOM     31  O3  <0> d           2.270   2.586  -4.972  0.00  0.00    -0.267 OA
ENDBRANCH   1  18
TORSDOF 5
