REMARK  4 active torsions:
REMARK  status: ('A' for Active; 'I' for Inactive)
REMARK    1  A    between atoms: C2_2  and  O1_4 
REMARK    2  A    between atoms: O1_4  and  C4_5 
REMARK    3  A    between atoms: C7_8  and  C11_13 
REMARK    4  A    between atoms: C9_10  and  O2_11 
ROOT
ATOM      1  C11 <0> d           2.900   0.596  -0.099  0.00  0.00     0.100 C 
ATOM      2  C12 <0> d           2.983  -0.874  -0.392  0.00  0.00     0.067 A 
ATOM      3  C13 <0> d           1.868  -1.655  -0.376  0.00  0.00     0.122 A 
ATOM      4  N1  <0> d           1.976  -2.999  -0.641  0.00  0.00    -0.294 N 
ATOM      5  H2  <0> d           1.160  -3.576  -0.628  0.00  0.00     0.172 HD
ATOM      6  C14 <0> d           3.176  -3.542  -0.918  0.00  0.00     0.328 A 
ATOM      7  O3  <0> d           3.256  -4.733  -1.149  0.00  0.00    -0.247 OA
ATOM      8  N2  <0> d           4.289  -2.786  -0.942  0.00  0.00    -0.275 N 
ATOM      9  H3  <0> d           5.171  -3.209  -1.152  0.00  0.00     0.173 HD
ATOM     10  C15 <0> d           4.226  -1.464  -0.687  0.00  0.00     0.260 A 
ATOM     11  O4  <0> d           5.238  -0.785  -0.712  0.00  0.00    -0.267 OA
ATOM     12  N3  <0> d           0.643  -1.102  -0.097  0.00  0.00    -0.345 N 
ATOM     13  C16 <0> d           0.441   0.246  -0.226  0.00  0.00     0.022 C 
ATOM     14  C17 <0> d           1.486   1.100  -0.232  0.00  0.00     0.024 C 
ATOM     15  C18 <0> d           1.287   2.486  -0.360  0.00  0.00     0.159 C 
ATOM     16  O5  <0> d           2.250   3.227  -0.380  0.00  0.00    -0.293 OA
ATOM     17  C19 <0> d          -0.095   3.070  -0.472  0.00  0.00     0.092 C 
ATOM     18  C20 <0> d          -1.085   2.148   0.247  0.00  0.00    -0.036 C 
ATOM     19  C21 <0> d          -0.975   0.748  -0.366  0.00  0.00     0.067 C 
ATOM     20  C22 <0> d          -0.743   2.087   1.737  0.00  0.00     0.015 C 
ATOM     21  C23 <0> d          -2.508   2.681   0.068  0.00  0.00     0.015 C 
ATOM     22  H17 <0> d          -0.086  -1.672   0.194  0.00  0.00     0.167 HD
ENDROOT
BRANCH   1  23
ATOM     23  C7  <0> d           3.382   0.847   1.307  0.00  0.00    -0.042 A 
ATOM     24  C6  <0> d           2.734   0.254   2.375  0.00  0.00     0.011 A 
ATOM     25  C5  <0> d           3.177   0.477   3.665  0.00  0.00     0.040 A 
ATOM     26  C4  <0> d           4.265   1.305   3.892  0.00  0.00     0.102 A 
ATOM     27  C9  <0> d           4.913   1.906   2.817  0.00  0.00     0.102 A 
ATOM     28  C8  <0> d           4.468   1.674   1.526  0.00  0.00     0.047 A 
BRANCH  26  29
ATOM     29  O1  <0> d           4.697   1.530   5.161  0.00  0.00    -0.344 OA
BRANCH  29  30
ATOM     30  C2  <0> d           3.914   0.978   6.221  0.00  0.00     0.121 C 
ATOM     31  C1  <0> d           4.331  -0.474   6.461  0.00  0.00     0.040 C 
ATOM     32  C3  <0> d           4.138   1.791   7.498  0.00  0.00     0.040 C 
ENDBRANCH  29  30
ENDBRANCH  26  29
BRANCH  27  33
ATOM     33  O2  <0> d           5.981   2.719   3.034  0.00  0.00    -0.353 OA
ATOM     34  C10 <0> d           6.597   3.302   1.884  0.00  0.00     0.210 C 
ENDBRANCH  27  33
ENDBRANCH   1  23
TORSDOF 4
