REMARK  7 active torsions:
REMARK  status: ('A' for Active; 'I' for Inactive)
REMARK    1  A    between atoms: N1_5  and  C7_8 
REMARK    2  A    between atoms: C7_8  and  C8_9 
REMARK    3  A    between atoms: C8_9  and  C9_10 
REMARK    4  A    between atoms: C8_9  and  O2_24 
REMARK    5  A    between atoms: C9_10  and  N2_11 
REMARK    6  A    between atoms: N2_11  and  C10_12 
REMARK    7  A    between atoms: C10_12  and  C11_13 
ROOT
ATOM      1  N2  <0> d           3.966  -6.215   1.961  0.00  0.00    -0.069 N 
ATOM      2  H18 <0> d           4.808  -5.662   1.893  0.00  0.00     0.277 HD
ATOM      3  H29 <0> d           3.540  -6.068   2.864  0.00  0.00     0.277 HD
ENDROOT
BRANCH   1   4
ATOM      4  C9  <0> d           3.028  -5.812   0.905  0.00  0.00     0.265 C 
BRANCH   4   5
ATOM      5  C8  <0> d           2.681  -4.331   1.070  0.00  0.00     0.169 C 
BRANCH   5   6
ATOM      6  C7  <0> d           1.704  -3.911  -0.029  0.00  0.00     0.268 C 
BRANCH   6   7
ATOM      7  N1  <0> d           1.385  -2.484   0.118  0.00  0.00    -0.069 N 
ATOM      8  C4  <0> d           2.590  -1.686  -0.138  0.00  0.00     0.235 C 
ATOM      9  C3  <0> d           2.284  -0.205   0.093  0.00  0.00     0.032 C 
ATOM     10  C2  <0> d           1.167   0.235  -0.859  0.00  0.00    -0.015 C 
ATOM     11  C1  <0> d           0.801   1.694  -0.579  0.00  0.00     0.010 C 
ATOM     12  C6  <0> d          -0.060  -0.654  -0.635  0.00  0.00     0.032 C 
ATOM     13  C5  <0> d           0.333  -2.118  -0.839  0.00  0.00     0.235 C 
ATOM     14  H28 <0> d           1.060  -2.309   1.057  0.00  0.00     0.280 HD
ENDBRANCH   6   7
ENDBRANCH   5   6
BRANCH   5  15
ATOM     15  O2  <0> d           2.077  -4.123   2.349  0.00  0.00    -0.392 OA
ATOM     16  H27 <0> d           1.262  -4.624   2.485  0.00  0.00     0.210 HD
ENDBRANCH   5  15
ENDBRANCH   4   5
ENDBRANCH   1   4
BRANCH   1  17
ATOM     17  C10 <0> d           4.300  -7.637   1.803  0.00  0.00     0.268 C 
BRANCH  17  18
ATOM     18  C11 <0> d           5.262  -8.051   2.886  0.00  0.00    -0.030 C 
ATOM     19  C19 <0> d           6.740  -7.831   2.701  0.00  0.00     0.211 C 
ATOM     20  O1  <0> d           7.378  -7.603   3.960  0.00  0.00    -0.346 OA
ATOM     21  C18 <0> d           7.073  -8.451   4.976  0.00  0.00     0.079 A 
ATOM     22  C13 <0> d           5.774  -8.972   5.056  0.00  0.00    -0.001 A 
ATOM     23  C17 <0> d           8.008  -8.786   5.938  0.00  0.00     0.039 A 
ATOM     24  C12 <0> d           4.804  -8.614   4.000  0.00  0.00     0.021 C 
ATOM     25  C14 <0> d           5.424  -9.809   6.109  0.00  0.00     0.038 A 
ATOM     26  C15 <0> d           6.367 -10.130   7.068  0.00  0.00     0.035 A 
ATOM     27  C16 <0> d           7.653  -9.623   6.979  0.00  0.00     0.026 A 
ATOM     28 Cl1  <0> d           5.937 -11.173   8.388  0.00  0.00    -0.084 Cl
ENDBRANCH  17  18
ENDBRANCH   1  17
TORSDOF 7
