REMARK  10 active torsions:
REMARK  status: ('A' for Active; 'I' for Inactive)
REMARK    1  A    between atoms: C2_2  and  C3_3 
REMARK    2  A    between atoms: C3_3  and  C4_4 
REMARK    3  A    between atoms: C4_4  and  N1_5 
REMARK    4  A    between atoms: N1_5  and  C5_6 
REMARK    5  A    between atoms: N1_5  and  C7_10 
REMARK    6  A    between atoms: C5_6  and  C6_7 
REMARK       I    between atoms: C6_7  and  N2_9 
REMARK    7  A    between atoms: C12_15  and  C13_16 
REMARK    8  A    between atoms: C13_16  and  N3_17 
REMARK    9  A    between atoms: N3_17  and  C14_18 
REMARK   10  A    between atoms: C14_18  and  C15_19 
ROOT
ATOM      1  C7  <0> d          -3.498  -3.179   1.202  0.00  0.00     0.040 A 
ATOM      2  C8  <0> d          -4.136  -2.323   2.091  0.00  0.00     0.049 A 
ATOM      3  C9  <0> d          -4.745  -2.832   3.221  0.00  0.00     0.013 A 
ATOM      4  C10 <0> d          -4.720  -4.194   3.468  0.00  0.00     0.020 A 
ATOM      5  C11 <0> d          -4.086  -5.048   2.585  0.00  0.00     0.012 A 
ATOM      6  C12 <0> d          -3.480  -4.545   1.450  0.00  0.00    -0.006 A 
ATOM      7 Br1  <0> d          -5.614  -1.668   4.432  0.00  0.00    -0.051 Br
ENDROOT
BRANCH   1   8
ATOM      8  N1  <0> d          -2.881  -2.667   0.058  0.00  0.00    -0.372 N 
BRANCH   8   9
ATOM      9  C4  <0> d          -3.663  -2.457  -1.164  0.00  0.00     0.123 C 
BRANCH   9  10
ATOM     10  C3  <0> d          -3.678  -3.747  -1.987  0.00  0.00     0.019 C 
BRANCH  10  11
ATOM     11  C2  <0> d          -4.374  -3.489  -3.325  0.00  0.00    -0.003 C 
ATOM     12  C1  <0> d          -4.390  -4.779  -4.149  0.00  0.00     0.005 C 
ENDBRANCH  10  11
ENDBRANCH   9  10
ENDBRANCH   8   9
BRANCH   8  13
ATOM     13  C5  <0> d          -1.453  -2.341   0.079  0.00  0.00     0.225 C 
BRANCH  13  14
ATOM     14  C6  <0> d          -1.278  -0.871   0.361  0.00  0.00     0.233 C 
ATOM     15  O1  <0> d          -2.246  -0.180   0.600  0.00  0.00    -0.272 OA
ATOM     16  N2  <0> d          -0.046  -0.324   0.349  0.00  0.00    -0.369 N 
ATOM     17  H12 <0> d           0.728  -0.877   0.158  0.00  0.00     0.159 HD
ATOM     18  H13 <0> d           0.066   0.622   0.530  0.00  0.00     0.159 HD
ENDBRANCH  13  14
ENDBRANCH   8  13
ENDBRANCH   1   8
BRANCH   6  19
ATOM     19  C13 <0> d          -2.794  -5.478   0.486  0.00  0.00     0.273 C 
BRANCH  19  20
ATOM     20  N3  <0> d          -1.366  -5.563   0.818  0.00  0.00    -0.071 N 
ATOM     21  H19 <0> d          -0.968  -4.636   0.834  0.00  0.00     0.277 HD
ATOM     22  H27 <0> d          -1.256  -5.992   1.725  0.00  0.00     0.277 HD
BRANCH  20  23
ATOM     23  C14 <0> d          -0.675  -6.375  -0.194  0.00  0.00     0.232 C 
BRANCH  23  24
ATOM     24  C15 <0> d           0.813  -6.463   0.153  0.00  0.00     0.023 C 
ATOM     25  C16 <0> d           1.532  -7.308  -0.901  0.00  0.00     0.007 C 
ENDBRANCH  23  24
ENDBRANCH  20  23
ENDBRANCH  19  20
ENDBRANCH   6  19
TORSDOF 10
