REMARK  1 active torsions:
REMARK  status: ('A' for Active; 'I' for Inactive)
REMARK       I    between atoms: N3_10  and  C6_11 
REMARK       I    between atoms: C6_11  and  N4_12 
REMARK    1  A    between atoms: C9_16  and  N6_19 
ROOT
ATOM      1  C1  <0> d          -1.202  -0.947   0.973  0.00  0.00     0.071 C 
ATOM      2  C2  <0> d           0.004  -0.095   0.673  0.00  0.00     0.055 A 
ATOM      3  C3  <0> d          -0.128   1.261   0.572  0.00  0.00     0.102 A 
ATOM      4  C4  <0> d           1.008   2.039   0.292  0.00  0.00     0.261 A 
ATOM      5  O1  <0> d           0.922   3.252   0.196  0.00  0.00    -0.268 OA
ATOM      6  N1  <0> d           2.197   1.419   0.131  0.00  0.00    -0.152 N 
ATOM      7  H1  <0> d           2.994   1.937  -0.063  0.00  0.00     0.187 HD
ATOM      8  C5  <0> d           2.272   0.058   0.243  0.00  0.00     0.745 A 
ATOM      9  N2  <0> d           1.194  -0.664   0.513  0.00  0.00    -0.067 NA
ATOM     10  N3  <0> d           3.455  -0.554   0.082  0.00  0.00     0.128 NA
ATOM     11  C6  <0> d           3.521  -1.875   0.075  0.00  0.00     0.711 C 
ATOM     12  N4  <0> d           2.374  -2.615   0.095  0.00  0.00    -0.232 N 
ATOM     13  N5  <0> d           4.735  -2.498   0.047  0.00  0.00    -0.216 N 
ATOM     14  C7  <0> d           4.827  -3.963   0.124  0.00  0.00     0.143 C 
ATOM     15  C8  <0> d           5.656  -4.467  -1.061  0.00  0.00     0.053 C 
ATOM     16  C9  <0> d           7.009  -3.752  -1.073  0.00  0.00     0.191 C 
ATOM     17  C10 <0> d           6.792  -2.247  -1.242  0.00  0.00     0.053 C 
ATOM     18  C11 <0> d           5.975  -1.718  -0.065  0.00  0.00     0.143 C 
ATOM     19  H6  <0> d           1.611  -2.342  -0.438  0.00  0.00     0.174 HD
ATOM     20  H27 <0> d           2.322  -3.415   0.642  0.00  0.00     0.174 HD
ENDROOT
BRANCH  16  21
ATOM     21  N6  <0> d           7.820  -4.258  -2.189  0.00  0.00    -0.067 N 
ATOM     22  C16 <0> d           9.118  -3.572  -2.200  0.00  0.00     0.235 C 
ATOM     23  C15 <0> d           9.935  -4.036  -3.407  0.00  0.00     0.028 C 
ATOM     24  C14 <0> d          10.156  -5.548  -3.316  0.00  0.00     0.003 C 
ATOM     25  C13 <0> d           8.797  -6.249  -3.231  0.00  0.00     0.028 C 
ATOM     26  C12 <0> d           8.022  -5.703  -2.030  0.00  0.00     0.235 C 
ATOM     27  H26 <0> d           7.340  -4.082  -3.059  0.00  0.00     0.280 HD
ENDBRANCH  16  21
TORSDOF 1
