REMARK  6 active torsions:
REMARK  status: ('A' for Active; 'I' for Inactive)
REMARK    1  A    between atoms: O1_2  and  C2_3 
REMARK    2  A    between atoms: C6_7  and  C7_9 
REMARK    3  A    between atoms: C10_12  and  O3_24 
REMARK    4  A    between atoms: C11_13  and  C13_15 
REMARK    5  A    between atoms: C13_15  and  N2_16 
REMARK    6  A    between atoms: N3_19  and  C18_22 
ROOT
ATOM      1  C7  <0> d           2.331   0.453  -4.105  0.00  0.00    -0.007 A 
ATOM      2  C8  <0> d           2.957  -0.115  -5.213  0.00  0.00     0.016 A 
ATOM      3  C9  <0> d           3.505   0.695  -6.185  0.00  0.00     0.038 A 
ATOM      4  C10 <0> d           3.433   2.076  -6.060  0.00  0.00     0.073 A 
ATOM      5  C11 <0> d           2.811   2.646  -4.958  0.00  0.00     0.004 A 
ATOM      6  C12 <0> d           2.256   1.840  -3.986  0.00  0.00     0.025 A 
ENDROOT
BRANCH   5   7
ATOM      7  C13 <0> d           2.736   4.145  -4.826  0.00  0.00     0.314 C 
BRANCH   7   8
ATOM      8  N2  <0> d           4.052   4.668  -4.436  0.00  0.00     0.095 N 
ATOM      9  C17 <0> d           4.083   6.134  -4.527  0.00  0.00     0.292 C 
ATOM     10  C16 <0> d           5.515   6.627  -4.290  0.00  0.00     0.155 C 
ATOM     11  N3  <0> d           5.994   6.073  -3.014  0.00  0.00    -0.356 N 
ATOM     12  C15 <0> d           5.868   4.624  -2.794  0.00  0.00     0.155 C 
ATOM     13  C14 <0> d           4.423   4.210  -3.090  0.00  0.00     0.292 C 
BRANCH  11  14
ATOM     14  C18 <0> d           6.535   6.871  -2.072  0.00  0.00     0.350 C 
ATOM     15  O2  <0> d           6.631   8.064  -2.271  0.00  0.00    -0.284 OA
ENDBRANCH  11  14
ENDBRANCH   7   8
ENDBRANCH   5   7
BRANCH   4  16
ATOM     16  O3  <0> d           3.975   2.873  -7.019  0.00  0.00    -0.360 OA
ATOM     17  H21 <0> d           3.362   3.103  -7.731  0.00  0.00     0.217 HD
ENDBRANCH   4  16
BRANCH   1  18
ATOM     18  C6  <0> d           1.741  -0.416  -3.058  0.00  0.00     0.070 A 
ATOM     19  C5  <0> d           1.821  -1.800  -3.185  0.00  0.00     0.032 A 
ATOM     20  C4  <0> d           1.267  -2.602  -2.200  0.00  0.00     0.007 A 
ATOM     21  C3  <0> d           0.650  -1.994  -1.120  0.00  0.00     0.058 A 
ATOM     22  C2  <0> d           0.605  -0.606  -1.054  0.00  0.00     0.164 A 
ATOM     23  N1  <0> d           1.137   0.134  -2.011  0.00  0.00    -0.224 NA
BRANCH  22  24
ATOM     24  O1  <0> d           0.002  -0.004   0.002  0.00  0.00    -0.339 OA
ATOM     25  C1  <0> d          -0.017   1.425   0.010  0.00  0.00     0.211 C 
ENDBRANCH  22  24
ENDBRANCH   1  18
TORSDOF 6
