REMARK  5 active torsions:
REMARK  status: ('A' for Active; 'I' for Inactive)
REMARK    1  A    between atoms: C2_2  and  C3_3 
REMARK    2  A    between atoms: C2_2  and  O4_25 
REMARK    3  A    between atoms: C3_3  and  O3_24 
REMARK    4  A    between atoms: C9_9  and  O2_22 
REMARK    5  A    between atoms: C18_18  and  O1_20 
ROOT
ATOM      1  C3  <0> d           0.809  -4.020   0.779  0.00  0.00     0.091 C 
ATOM      2  C4  <0> d           2.321  -3.773   0.536  0.00  0.00     0.042 C 
ATOM      3  C5  <0> d           2.500  -2.237   0.396  0.00  0.00     0.009 C 
ATOM      4  C6  <0> d           1.163  -1.669   0.893  0.00  0.00     0.001 C 
ATOM      5  C7  <0> d           0.151  -2.696   0.347  0.00  0.00    -0.004 C 
ATOM      6  C8  <0> d          -1.225  -2.424   0.884  0.00  0.00     0.044 C 
ATOM      7  C9  <0> d          -1.576  -0.930   0.831  0.00  0.00     0.124 C 
ATOM      8  C10 <0> d          -0.601  -0.106   0.011  0.00  0.00     0.027 C 
ATOM      9  C11 <0> d           0.839  -0.262   0.487  0.00  0.00    -0.002 C 
ATOM     10  C12 <0> d           1.812   0.302  -0.545  0.00  0.00     0.006 C 
ATOM     11  C13 <0> d           1.295   1.666  -1.031  0.00  0.00     0.006 C 
ATOM     12  C14 <0> d           0.326   2.202   0.010  0.00  0.00    -0.004 C 
ATOM     13  C15 <0> d          -0.966   1.382   0.024  0.00  0.00    -0.034 C 
ATOM     14  C16 <0> d          -1.774   1.789   1.249  0.00  0.00     0.012 C 
ATOM     15  C17 <0> d          -2.103   3.284   1.174  0.00  0.00     0.032 C 
ATOM     16  C18 <0> d          -0.843   4.132   1.037  0.00  0.00     0.118 C 
ATOM     17  C19 <0> d           0.009   3.680  -0.155  0.00  0.00     0.037 C 
ATOM     18  C20 <0> d          -1.779   1.662  -1.241  0.00  0.00     0.016 C 
ATOM     19  C21 <0> d           0.132  -2.721  -1.189  0.00  0.00     0.019 C 
ENDROOT
BRANCH   1  20
ATOM     20  C2  <0> d           0.559  -4.338   2.247  0.00  0.00     0.149 C 
ATOM     21  C1  <0> d           1.313  -5.614   2.628  0.00  0.00     0.042 C 
BRANCH  20  22
ATOM     22  O4  <0> d          -0.841  -4.530   2.461  0.00  0.00    -0.393 OA
ATOM     23  H36 <0> d          -1.222  -5.253   1.944  0.00  0.00     0.210 HD
ENDBRANCH  20  22
ENDBRANCH   1  20
BRANCH   1  24
ATOM     24  O3  <0> d           0.343  -5.082  -0.055  0.00  0.00    -0.386 OA
ATOM     25  H35 <0> d           0.776  -5.931   0.110  0.00  0.00     0.210 HD
ENDBRANCH   1  24
BRANCH   7  26
ATOM     26  O2  <0> d          -2.897  -0.805   0.280  0.00  0.00    -0.395 OA
ATOM     27  H31 <0> d          -3.571  -1.308   0.756  0.00  0.00     0.210 HD
ENDBRANCH   7  26
BRANCH  16  28
ATOM     28  O1  <0> d          -1.215   5.501   0.852  0.00  0.00    -0.396 OA
ATOM     29  H27 <0> d          -1.757   5.861   1.568  0.00  0.00     0.210 HD
ENDBRANCH  16  28
TORSDOF 5
