REMARK  6 active torsions:
REMARK  status: ('A' for Active; 'I' for Inactive)
REMARK    1  A    between atoms: C5_5  and  C6_7 
REMARK       I    between atoms: C6_7  and  N1_9 
REMARK    2  A    between atoms: N1_9  and  C7_10 
REMARK    3  A    between atoms: C7_10  and  C8_11 
REMARK       I    between atoms: C8_11  and  N2_13 
REMARK    4  A    between atoms: N2_13  and  C9_14 
REMARK    5  A    between atoms: C14_19  and  O3_20 
REMARK    6  A    between atoms: O3_20  and  C15_21 
ROOT
ATOM      1  C9  <0> d           6.626  -6.461  -0.145  0.00  0.00     0.070 A 
ATOM      2  C10 <0> d           7.294  -5.250  -0.105  0.00  0.00     0.055 A 
ATOM      3  C11 <0> d           8.690  -5.224  -0.164  0.00  0.00     0.046 A 
ATOM      4  C12 <0> d           9.405  -6.421  -0.263  0.00  0.00     0.025 A 
ATOM      5  C13 <0> d           8.733  -7.624  -0.303  0.00  0.00     0.040 A 
ATOM      6  C14 <0> d           7.347  -7.652  -0.239  0.00  0.00     0.096 A 
ATOM      7  C18 <0> d           9.387  -3.974  -0.124  0.00  0.00     0.099 C 
ATOM      8  N3  <0> d           9.940  -2.982  -0.092  0.00  0.00    -0.191 NA
ENDROOT
BRANCH   1   9
ATOM      9  N2  <0> d           5.226  -6.491  -0.086  0.00  0.00    -0.323 N 
ATOM     10  C8  <0> d           4.506  -5.508  -0.660  0.00  0.00     0.239 C 
ATOM     11  O2  <0> d           5.069  -4.559  -1.164  0.00  0.00    -0.271 OA
ATOM     12  H9  <0> d           4.776  -7.220   0.368  0.00  0.00     0.169 HD
BRANCH  10  13
ATOM     13  C7  <0> d           3.001  -5.587  -0.677  0.00  0.00     0.226 C 
BRANCH  13  14
ATOM     14  N1  <0> d           2.457  -4.407  -1.353  0.00  0.00    -0.348 N 
ATOM     15  C6  <0> d           1.124  -4.261  -1.487  0.00  0.00     0.258 C 
ATOM     16  O1  <0> d           0.372  -5.111  -1.046  0.00  0.00    -0.267 OA
ATOM     17  H6  <0> d           3.057  -3.730  -1.704  0.00  0.00     0.163 HD
BRANCH  15  18
ATOM     18  C5  <0> d           0.580  -3.080  -2.164  0.00  0.00     0.073 A 
ATOM     19  C4  <0> d          -0.743  -2.743  -2.404  0.00  0.00     0.025 A 
ATOM     20  C3  <0> d          -0.946  -1.557  -3.069  0.00  0.00     0.015 A 
ATOM     21  C2  <0> d           0.129  -0.816  -3.437  0.00  0.00    -0.020 A 
ATOM     22  C1  <0> d           0.138   0.502  -4.168  0.00  0.00     0.056 C 
ATOM     23  S1  <0> d           1.447  -1.707  -2.898  0.00  0.00    -0.090 SA
ENDBRANCH  15  18
ENDBRANCH  13  14
ENDBRANCH  10  13
ENDBRANCH   1   9
BRANCH   6  24
ATOM     24  O3  <0> d           6.690  -8.840  -0.272  0.00  0.00    -0.344 OA
BRANCH  24  25
ATOM     25  C15 <0> d           7.491 -10.024  -0.278  0.00  0.00     0.120 C 
ATOM     26  C16 <0> d           7.878 -10.385   1.157  0.00  0.00     0.040 C 
ATOM     27  C17 <0> d           6.696 -11.175  -0.897  0.00  0.00     0.040 C 
ENDBRANCH  24  25
ENDBRANCH   6  24
TORSDOF 6
