REMARK  4 active torsions:
REMARK  status: ('A' for Active; 'I' for Inactive)
REMARK    1  A    between atoms: C5_5  and  C14_20 
REMARK    2  A    between atoms: N2_11  and  C8_13 
REMARK    3  A    between atoms: C14_20  and  N4_21 
REMARK    4  A    between atoms: N4_21  and  C15_22 
ROOT
ATOM      1  C1  <0> d          -0.013   1.086   0.008  0.00  0.00     0.073 C 
ATOM      2  C2  <0> d          -0.718   1.572   1.248  0.00  0.00     0.065 A 
ATOM      3  C3  <0> d          -2.103   1.834   1.364  0.00  0.00     0.037 A 
ATOM      4  C4  <0> d          -3.190   1.730   0.466  0.00  0.00     0.032 A 
ATOM      5  C5  <0> d          -4.437   2.058   0.895  0.00  0.00     0.028 A 
ATOM      6  C6  <0> d          -4.635   2.489   2.219  0.00  0.00     0.255 A 
ATOM      7  O1  <0> d          -5.757   2.781   2.597  0.00  0.00    -0.268 OA
ATOM      8  N1  <0> d          -3.600   2.583   3.076  0.00  0.00    -0.307 N 
ATOM      9  H1  <0> d          -3.770   2.922   4.109  0.00  0.00     0.170 HD
ATOM     10  C7  <0> d          -2.332   2.260   2.675  0.00  0.00     0.144 A 
ATOM     11  N2  <0> d          -1.129   2.258   3.305  0.00  0.00    -0.216 N 
ATOM     12  N3  <0> d          -0.156   1.828   2.395  0.00  0.00    -0.170 NA
ENDROOT
BRANCH   5  13
ATOM     13  C14 <0> d          -5.608   1.961  -0.048  0.00  0.00     0.164 C 
BRANCH  13  14
ATOM     14  N4  <0> d          -6.269   0.665   0.126  0.00  0.00    -0.385 N 
ATOM     15  H12 <0> d          -5.884  -0.054   0.864  0.00  0.00     0.160 HD
BRANCH  14  16
ATOM     16  C15 <0> d          -7.389   0.343  -0.645  0.00  0.00     0.028 A 
ATOM     17  C20 <0> d          -8.013  -0.886  -0.485  0.00  0.00     0.037 A 
ATOM     18  C19 <0> d          -9.126  -1.204  -1.244  0.00  0.00    -0.050 A 
ATOM     19  C18 <0> d          -9.610  -0.300  -2.171  0.00  0.00    -0.052 A 
ATOM     20  C21 <0> d          -9.978  -2.455  -1.257  0.00  0.00     0.039 C 
ATOM     21  C17 <0> d          -8.983   0.925  -2.336  0.00  0.00     0.010 A 
ATOM     22  C23 <0> d         -10.819  -0.882  -2.871  0.00  0.00     0.039 C 
ATOM     23  C16 <0> d          -7.877   1.249  -1.577  0.00  0.00     0.029 A 
ATOM     24  C22 <0> d         -10.759  -2.398  -2.587  0.00  0.00     0.009 C 
ENDBRANCH  14  16
ENDBRANCH  13  14
ENDBRANCH   5  13
BRANCH  11  25
ATOM     25  C8  <0> d          -0.901   2.623   4.639  0.00  0.00     0.060 A 
ATOM     26  C13 <0> d           0.068   1.965   5.384  0.00  0.00     0.033 A 
ATOM     27  C12 <0> d           0.292   2.327   6.698  0.00  0.00     0.026 A 
ATOM     28  C11 <0> d          -0.449   3.345   7.272  0.00  0.00     0.034 A 
ATOM     29  C10 <0> d          -1.416   4.003   6.531  0.00  0.00     0.026 A 
ATOM     30 Cl1  <0> d          -0.166   3.799   8.924  0.00  0.00    -0.084 Cl
ATOM     31  C9  <0> d          -1.639   3.648   5.215  0.00  0.00     0.033 A 
ENDBRANCH  11  25
TORSDOF 4
