REMARK  4 active torsions:
REMARK  status: ('A' for Active; 'I' for Inactive)
REMARK    1  A    between atoms: S1_2  and  N1_5 
REMARK    2  A    between atoms: C5_9  and  N2_11 
REMARK       I    between atoms: N2_11  and  C7_12 
REMARK    3  A    between atoms: C7_12  and  C8_14 
REMARK    4  A    between atoms: C10_16  and  C11_19 
ROOT
ATOM      1  N2  <0> d           4.030  -2.107  -2.128  0.00  0.00    -0.353 N 
ATOM      2  C7  <0> d           4.589  -3.334  -2.137  0.00  0.00     0.250 C 
ATOM      3  O3  <0> d           3.890  -4.319  -2.033  0.00  0.00    -0.271 OA
ATOM      4  H13 <0> d           4.590  -1.319  -2.211  0.00  0.00     0.163 HD
ENDROOT
BRANCH   2   5
ATOM      5  C8  <0> d           6.082  -3.481  -2.276  0.00  0.00     0.252 C 
ATOM      6  O4  <0> d           6.476  -4.865  -2.180  0.00  0.00    -0.241 OA
ATOM      7  N3  <0> d           7.549  -5.068  -3.078  0.00  0.00    -0.136 NA
ATOM      8  C10 <0> d           7.645  -4.130  -3.966  0.00  0.00     0.081 C 
ATOM      9  C9  <0> d           6.543  -3.120  -3.709  0.00  0.00     0.107 C 
BRANCH   8  10
ATOM     10  C11 <0> d           8.645  -4.058  -5.035  0.00  0.00     0.033 A 
ATOM     11  S2  <0> d           8.855  -2.813  -6.298  0.00  0.00    -0.076 SA
ATOM     12  C14 <0> d          10.270  -3.523  -7.122  0.00  0.00     0.075 A 
ATOM     13  C13 <0> d          10.489  -4.654  -6.398  0.00  0.00     0.033 A 
ATOM     14 Cl1  <0> d          11.142  -2.925  -8.499  0.00  0.00    -0.076 Cl
ATOM     15  C12 <0> d           9.670  -4.939  -5.333  0.00  0.00     0.023 A 
ENDBRANCH   8  10
ENDBRANCH   2   5
BRANCH   1  16
ATOM     16  C5  <0> d           2.579  -1.965  -1.993  0.00  0.00     0.103 C 
ATOM     17  C4  <0> d           1.922  -2.092  -3.369  0.00  0.00     0.028 C 
ATOM     18  C3  <0> d           0.403  -1.976  -3.225  0.00  0.00     0.023 C 
ATOM     19  C2  <0> d           0.053  -0.601  -2.648  0.00  0.00     0.135 C 
ATOM     20  N1  <0> d           0.795  -0.411  -1.394  0.00  0.00    -0.309 N 
ATOM     21  C6  <0> d           2.254  -0.584  -1.403  0.00  0.00     0.160 C 
BRANCH  20  22
ATOM     22  S1  <0> d           0.002  -0.004   0.002  0.00  0.00     0.224 S 
ATOM     23  C1  <0> d          -0.022   1.810   0.012  0.00  0.00     0.186 C 
ATOM     24  O1  <0> d           0.835  -0.488   1.046  0.00  0.00    -0.206 OA
ATOM     25  O2  <0> d          -1.315  -0.510  -0.168  0.00  0.00    -0.206 OA
ENDBRANCH  20  22
ENDBRANCH   1  16
TORSDOF 4
