REMARK  7 active torsions:
REMARK  status: ('A' for Active; 'I' for Inactive)
REMARK    1  A    between atoms: C4_4  and  S1_25 
REMARK    2  A    between atoms: C6_6  and  N1_9 
REMARK       I    between atoms: N1_9  and  C9_10 
REMARK    3  A    between atoms: C9_10  and  C10_12 
REMARK    4  A    between atoms: C10_12  and  N3_32 
REMARK    5  A    between atoms: C12_14  and  C13_15 
REMARK    6  A    between atoms: C12_14  and  N3_32 
REMARK    7  A    between atoms: S1_25  and  N2_28 
ROOT
ATOM      1  N1  <0> d          -3.492   0.539   3.694  0.00  0.00    -0.325 N 
ATOM      2  C9  <0> d          -3.768  -0.635   3.092  0.00  0.00     0.248 C 
ATOM      3  O1  <0> d          -3.146  -0.973   2.108  0.00  0.00    -0.271 OA
ATOM      4  H9  <0> d          -3.945   0.780   4.518  0.00  0.00     0.169 HD
ENDROOT
BRANCH   2   5
ATOM      5  C10 <0> d          -4.851  -1.527   3.642  0.00  0.00     0.337 C 
BRANCH   5   6
ATOM      6  N3  <0> d          -4.959  -2.728   2.788  0.00  0.00    -0.063 N 
ATOM      7  C11 <0> d          -3.741  -3.555   2.922  0.00  0.00     0.270 C 
ATOM      8  H26 <0> d          -5.056  -2.434   1.809  0.00  0.00     0.280 HD
BRANCH   6   9
ATOM      9  C12 <0> d          -6.149  -3.516   3.171  0.00  0.00     0.273 C 
BRANCH   9  10
ATOM     10  C13 <0> d          -6.360  -4.606   2.152  0.00  0.00    -0.032 A 
ATOM     11  C22 <0> d          -5.782  -5.824   2.344  0.00  0.00     0.021 A 
ATOM     12  C21 <0> d          -5.977  -6.843   1.395  0.00  0.00    -0.025 A 
ATOM     13  C16 <0> d          -6.774  -6.585   0.252  0.00  0.00    -0.026 A 
ATOM     14  C20 <0> d          -5.397  -8.112   1.559  0.00  0.00     0.012 A 
ATOM     15  C15 <0> d          -7.354  -5.315   0.089  0.00  0.00     0.013 A 
ATOM     16  C17 <0> d          -6.969  -7.604  -0.696  0.00  0.00     0.012 A 
ATOM     17  C14 <0> d          -7.148  -4.354   1.030  0.00  0.00     0.010 A 
ATOM     18  C18 <0> d          -6.392  -8.821  -0.504  0.00  0.00     0.001 A 
ATOM     19  C19 <0> d          -5.608  -9.075   0.620  0.00  0.00     0.001 A 
ENDBRANCH   9  10
ENDBRANCH   6   9
ENDBRANCH   5   6
ENDBRANCH   2   5
BRANCH   1  20
ATOM     20  C6  <0> d          -2.554   1.410   3.131  0.00  0.00     0.042 A 
ATOM     21  C5  <0> d          -1.441   0.903   2.473  0.00  0.00     0.055 A 
ATOM     22  C4  <0> d          -0.516   1.766   1.917  0.00  0.00     0.082 A 
ATOM     23  C3  <0> d          -0.694   3.133   2.021  0.00  0.00     0.032 A 
ATOM     24  C2  <0> d          -1.804   3.641   2.671  0.00  0.00    -0.052 A 
ATOM     25  C1  <0> d          -1.998   5.132   2.777  0.00  0.00     0.049 C 
ATOM     26  C7  <0> d          -2.733   2.784   3.229  0.00  0.00    -0.029 A 
ATOM     27  C8  <0> d          -3.939   3.339   3.942  0.00  0.00     0.051 C 
BRANCH  22  28
ATOM     28  S1  <0> d           0.896   1.123   1.082  0.00  0.00     0.256 S 
ATOM     29  O2  <0> d           1.116  -0.181   1.601  0.00  0.00    -0.201 OA
ATOM     30  O3  <0> d           1.890   2.138   1.126  0.00  0.00    -0.201 OA
BRANCH  28  31
ATOM     31  N2  <0> d           0.480   0.936  -0.510  0.00  0.00    -0.324 N 
ATOM     32  H24 <0> d          -0.412   1.172  -0.809  0.00  0.00     0.169 HD
ATOM     33  H25 <0> d           1.128   0.590  -1.143  0.00  0.00     0.169 HD
ENDBRANCH  28  31
ENDBRANCH  22  28
ENDBRANCH   1  20
TORSDOF 7
