REMARK  4 active torsions:
REMARK  status: ('A' for Active; 'I' for Inactive)
REMARK    1  A    between atoms: C5_5  and  S1_7 
REMARK    2  A    between atoms: S1_7  and  N1_10 
REMARK    3  A    between atoms: N1_10  and  C7_11 
REMARK    4  A    between atoms: C7_11  and  C8_12 
ROOT
ATOM      1  S1  <0> d           1.266  -2.566   0.024  0.00  0.00     0.259 S 
ATOM      2  O1  <0> d           2.202  -3.175   0.903  0.00  0.00    -0.201 OA
ATOM      3  O2  <0> d          -0.124  -2.857   0.071  0.00  0.00    -0.201 OA
ENDROOT
BRANCH   1   4
ATOM      4  C5  <0> d           1.424  -0.826   0.248  0.00  0.00     0.086 A 
ATOM      5  C4  <0> d           0.671   0.041  -0.529  0.00  0.00    -0.025 A 
ATOM      6  C3  <0> d           0.791   1.403  -0.352  0.00  0.00    -0.022 A 
ATOM      7  C13 <0> d          -0.261  -0.543  -1.560  0.00  0.00     0.070 C 
ATOM      8  C2  <0> d           1.669   1.897   0.602  0.00  0.00     0.009 A 
ATOM      9  C15 <0> d          -0.011   2.384  -1.165  0.00  0.00     0.308 C 
ATOM     10  C1  <0> d           2.420   1.034   1.373  0.00  0.00     0.002 A 
ATOM     11  C6  <0> d           2.297  -0.332   1.197  0.00  0.00     0.026 A 
ATOM     12  N2  <0> d          -0.547   1.737  -2.367  0.00  0.00     0.087 N 
ATOM     13  C14 <0> d          -1.276   0.511  -2.003  0.00  0.00     0.274 C 
ATOM     14  H20 <0> d           0.187   1.538  -3.029  0.00  0.00     0.316 HD
ENDBRANCH   1   4
BRANCH   1  15
ATOM     15  N1  <0> d           1.770  -2.910  -1.515  0.00  0.00    -0.315 N 
ATOM     16  H5  <0> d           1.139  -3.256  -2.166  0.00  0.00     0.172 HD
BRANCH  15  17
ATOM     17  C7  <0> d           3.167  -2.691  -1.895  0.00  0.00     0.138 C 
BRANCH  17  18
ATOM     18  C8  <0> d           3.463  -3.430  -3.201  0.00  0.00     0.028 C 
ATOM     19  C12 <0> d           3.341  -4.939  -2.973  0.00  0.00     0.173 C 
ATOM     20  O3  <0> d           3.676  -5.630  -4.179  0.00  0.00    -0.391 OA
ATOM     21  C11 <0> d           5.011  -5.401  -4.633  0.00  0.00     0.167 C 
ATOM     22  C10 <0> d           5.199  -3.910  -4.927  0.00  0.00     0.027 C 
ATOM     23  C9  <0> d           4.887  -3.104  -3.663  0.00  0.00     0.010 C 
ENDBRANCH  17  18
ENDBRANCH  15  17
ENDBRANCH   1  15
TORSDOF 4
