REMARK  7 active torsions:
REMARK  status: ('A' for Active; 'I' for Inactive)
REMARK    1  A    between atoms: C2_2  and  C4_4 
REMARK    2  A    between atoms: C17_17  and  C19_19 
REMARK    3  A    between atoms: C19_19  and  N1_20 
REMARK       I    between atoms: N1_20  and  C20_21 
REMARK    4  A    between atoms: C20_21  and  C21_23 
REMARK    5  A    between atoms: C23_26  and  C24_28 
REMARK    6  A    between atoms: C24_28  and  C25_29 
REMARK    7  A    between atoms: C25_29  and  N3_30 
ROOT
ATOM      1  C4  <0> d          -1.317  -0.483   0.035  0.00  0.00    -0.054 A 
ATOM      2  C5  <0> d          -2.168  -0.169   1.078  0.00  0.00     0.008 A 
ATOM      3  C6  <0> d          -3.458  -0.658   1.081  0.00  0.00     0.009 A 
ATOM      4  C7  <0> d          -3.906  -1.465   0.044  0.00  0.00    -0.043 A 
ATOM      5  C8  <0> d          -3.059  -1.785  -0.992  0.00  0.00    -0.051 A 
ATOM      6  C9  <0> d          -1.763  -1.282  -0.997  0.00  0.00     0.015 A 
ATOM      7  C10 <0> d          -3.468  -2.671  -2.140  0.00  0.00     0.039 C 
ATOM      8  C11 <0> d          -4.989  -2.809  -2.204  0.00  0.00     0.011 C 
ATOM      9  C12 <0> d          -5.495  -3.171  -0.806  0.00  0.00     0.008 C 
ATOM     10  C13 <0> d          -5.332  -1.957   0.103  0.00  0.00    -0.012 C 
ATOM     11  C14 <0> d          -6.254  -0.827  -0.364  0.00  0.00     0.014 C 
ATOM     12  C15 <0> d          -7.705  -1.306  -0.368  0.00  0.00     0.002 C 
ATOM     13  C16 <0> d          -7.842  -2.484  -1.337  0.00  0.00     0.011 C 
ATOM     14  C17 <0> d          -6.952  -3.613  -0.858  0.00  0.00    -0.023 C 
ATOM     15  C18 <0> d          -7.092  -4.785  -1.831  0.00  0.00     0.017 C 
ATOM     16  C26 <0> d          -5.681  -2.346   1.541  0.00  0.00     0.021 C 
ENDROOT
BRANCH  14  17
ATOM     17  C19 <0> d          -7.396  -4.058   0.536  0.00  0.00     0.132 C 
BRANCH  17  18
ATOM     18  N1  <0> d          -8.739  -4.638   0.459  0.00  0.00    -0.355 N 
ATOM     19  C20 <0> d          -9.339  -5.102   1.573  0.00  0.00     0.272 C 
ATOM     20  O1  <0> d          -8.765  -5.039   2.643  0.00  0.00    -0.266 OA
ATOM     21  H27 <0> d          -9.197  -4.689  -0.395  0.00  0.00     0.162 HD
BRANCH  19  22
ATOM     22  C21 <0> d         -10.690  -5.686   1.494  0.00  0.00     0.149 A 
ATOM     23  N2  <0> d         -11.448  -5.822   0.373  0.00  0.00    -0.221 NA
ATOM     24  C23 <0> d         -12.574  -6.381   0.702  0.00  0.00     0.147 A 
ATOM     25  O2  <0> d         -12.583  -6.613   2.022  0.00  0.00    -0.305 OA
ATOM     26  C22 <0> d         -11.416  -6.186   2.531  0.00  0.00     0.181 A 
BRANCH  24  27
ATOM     27  C24 <0> d         -13.694  -6.713  -0.250  0.00  0.00     0.113 C 
BRANCH  27  28
ATOM     28  C25 <0> d         -13.497  -8.128  -0.796  0.00  0.00     0.237 C 
BRANCH  28  29
ATOM     29  N3  <0> d         -14.590  -8.452  -1.724  0.00  0.00    -0.079 N 
ATOM     30  H33 <0> d         -15.472  -8.399  -1.236  0.00  0.00     0.274 HD
ATOM     31  H34 <0> d         -14.588  -7.793  -2.488  0.00  0.00     0.274 HD
ATOM     32  H38 <0> d         -14.460  -9.385  -2.084  0.00  0.00     0.274 HD
ENDBRANCH  28  29
ENDBRANCH  27  28
ENDBRANCH  24  27
ENDBRANCH  19  22
ENDBRANCH  17  18
ENDBRANCH  14  17
BRANCH   1  33
ATOM     33  C2  <0> d           0.092   0.051   0.021  0.00  0.00     0.010 C 
ATOM     34  C1  <0> d           0.058   1.581   0.028  0.00  0.00     0.015 C 
ATOM     35  C3  <0> d           0.838  -0.447   1.261  0.00  0.00     0.015 C 
ENDBRANCH   1  33
TORSDOF 7
