REMARK  2 active torsions:
REMARK  status: ('A' for Active; 'I' for Inactive)
REMARK    1  A    between atoms: N1_5  and  C5_7 
REMARK    2  A    between atoms: C9_12  and  N4_16 
ROOT
ATOM      1  C5  <0> d           0.052  -3.233   1.448  0.00  0.00     0.195 A 
ATOM      2  N3  <0> d           0.074  -4.499   1.107  0.00  0.00    -0.222 NA
ATOM      3  C6  <0> d           0.091  -5.497   2.016  0.00  0.00     0.077 A 
ATOM      4  C7  <0> d           0.113  -6.892   1.781  0.00  0.00     0.035 A 
ATOM      5  C8  <0> d           0.127  -7.775   2.814  0.00  0.00     0.031 A 
ATOM      6  C9  <0> d           0.119  -7.347   4.141  0.00  0.00     0.027 A 
ATOM      7  C10 <0> d           0.097  -5.985   4.412  0.00  0.00     0.050 A 
ATOM      8  C11 <0> d           0.084  -5.091   3.370  0.00  0.00     0.039 A 
ATOM      9  S1  <0> d           0.062  -3.320   3.233  0.00  0.00    -0.048 SA
ENDROOT
BRANCH   1  10
ATOM     10  N1  <0> d           0.034  -2.108   0.629  0.00  0.00    -0.212 N 
ATOM     11  C4  <0> d           0.027  -2.107  -0.731  0.00  0.00     0.059 A 
ATOM     12  C3  <0> d           0.008  -0.817  -1.138  0.00  0.00     0.084 A 
ATOM     13  C12 <0> d           0.039  -3.322  -1.622  0.00  0.00     0.072 C 
ATOM     14  C2  <0> d           0.002  -0.004   0.002  0.00  0.00     0.075 A 
ATOM     15 Cl1  <0> d          -0.007  -0.267  -2.785  0.00  0.00    -0.080 Cl
ATOM     16  C1  <0> d          -0.018   1.503   0.010  0.00  0.00     0.074 C 
ATOM     17  N2  <0> d           0.023  -0.775   1.059  0.00  0.00    -0.169 NA
ENDBRANCH   1  10
BRANCH   6  18
ATOM     18  N4  <0> d           0.133  -8.277   5.185  0.00  0.00    -0.399 N 
ATOM     19  H7  <0> d           0.148  -9.227   4.989  0.00  0.00     0.156 HD
ATOM     20  H8  <0> d           0.128  -7.973   6.106  0.00  0.00     0.156 HD
ENDBRANCH   6  18
TORSDOF 2
