REMARK  5 active torsions:
REMARK  status: ('A' for Active; 'I' for Inactive)
REMARK    1  A    between atoms: C2_2  and  C3_3 
REMARK    2  A    between atoms: C2_2  and  N2_18 
REMARK       I    between atoms: C3_3  and  N1_5 
REMARK    3  A    between atoms: N1_5  and  C4_6 
REMARK    4  A    between atoms: C8_10  and  S1_12 
REMARK    5  A    between atoms: S1_12  and  C10_15 
ROOT
ATOM      1  C4  <0> d          -3.582  -0.601   1.046  0.00  0.00     0.036 A 
ATOM      2  C5  <0> d          -4.084  -1.412   0.037  0.00  0.00     0.029 A 
ATOM      3  C6  <0> d          -5.412  -1.790   0.053  0.00  0.00     0.004 A 
ATOM      4  C7  <0> d          -6.242  -1.359   1.072  0.00  0.00     0.024 A 
ATOM      5  C8  <0> d          -5.746  -0.551   2.078  0.00  0.00     0.067 A 
ATOM      6  C9  <0> d          -4.417  -0.176   2.071  0.00  0.00     0.053 A 
ENDROOT
BRANCH   1   7
ATOM      7  N1  <0> d          -2.236  -0.217   1.033  0.00  0.00    -0.325 N 
ATOM      8  C3  <0> d          -1.615   0.024  -0.139  0.00  0.00     0.246 C 
ATOM      9  O1  <0> d          -2.197  -0.173  -1.185  0.00  0.00    -0.271 OA
ATOM     10  H5  <0> d          -1.750  -0.124   1.867  0.00  0.00     0.169 HD
BRANCH   8  11
ATOM     11  C2  <0> d          -0.199   0.538  -0.149  0.00  0.00     0.199 C 
ATOM     12  C1  <0> d          -0.138   1.879   0.584  0.00  0.00     0.044 C 
BRANCH  11  13
ATOM     13  N2  <0> d           0.245   0.717  -1.534  0.00  0.00    -0.249 N 
ATOM     14  N4  <0> d           0.970  -0.201  -2.311  0.00  0.00    -0.164 NA
ATOM     15  C12 <0> d           1.153   0.355  -3.480  0.00  0.00     0.256 A 
ATOM     16  N3  <0> d           0.595   1.565  -3.475  0.00  0.00    -0.234 NA
ATOM     17  C11 <0> d           0.045   1.796  -2.311  0.00  0.00     0.230 A 
ENDBRANCH  11  13
ENDBRANCH   8  11
ENDBRANCH   1   7
BRANCH   5  18
ATOM     18  S1  <0> d          -6.808  -0.005   3.373  0.00  0.00     0.236 S 
ATOM     19  O2  <0> d          -6.228   1.209   3.830  0.00  0.00    -0.217 OA
ATOM     20  O3  <0> d          -8.110  -0.017   2.804  0.00  0.00    -0.217 OA
BRANCH  18  21
ATOM     21  C10 <0> d          -6.675  -1.282   4.654  0.00  0.00     0.478 C 
ATOM     22  F1  <0> d          -7.087  -2.513   4.131  0.00  0.00    -0.197 F 
ATOM     23  F2  <0> d          -5.346  -1.379   5.081  0.00  0.00    -0.197 F 
ENDBRANCH  18  21
ENDBRANCH   5  18
TORSDOF 5
