REMARK  8 active torsions:
REMARK  status: ('A' for Active; 'I' for Inactive)
REMARK    1  A    between atoms: O1_2  and  C2_3 
REMARK    2  A    between atoms: C7_8  and  S1_9 
REMARK    3  A    between atoms: S1_9  and  N1_12 
REMARK    4  A    between atoms: N1_12  and  C8_13 
REMARK    5  A    between atoms: N1_12  and  C11_18 
REMARK    6  A    between atoms: C8_13  and  C9_14 
REMARK    7  A    between atoms: C9_14  and  C10_15 
REMARK       I    between atoms: C10_15  and  N2_17 
REMARK    8  A    between atoms: C11_18  and  C12_19 
ROOT
ATOM      1  N1  <0> d           3.446   3.749   1.424  0.00  0.00    -0.302 N 
ENDROOT
BRANCH   1   2
ATOM      2  S1  <0> d           2.669   4.079  -0.001  0.00  0.00     0.263 S 
ATOM      3  O2  <0> d           3.468   3.524  -1.037  0.00  0.00    -0.200 OA
ATOM      4  O3  <0> d           2.318   5.455   0.037  0.00  0.00    -0.200 OA
BRANCH   2   5
ATOM      5  C7  <0> d           1.158   3.173   0.008  0.00  0.00     0.114 A 
ATOM      6  C2  <0> d           1.179   1.786   0.000  0.00  0.00     0.091 A 
ATOM      7  C3  <0> d          -0.013   1.076   0.008  0.00  0.00     0.040 A 
ATOM      8  C4  <0> d          -1.218   1.751   0.017  0.00  0.00     0.022 A 
ATOM      9  C5  <0> d          -1.237   3.134   0.030  0.00  0.00     0.012 A 
ATOM     10  C6  <0> d          -0.050   3.844   0.023  0.00  0.00     0.047 A 
ATOM     11 Br1  <0> d          -2.888   4.055   0.050  0.00  0.00    -0.051 Br
BRANCH   6  12
ATOM     12  O1  <0> d           2.366   1.124  -0.015  0.00  0.00    -0.354 OA
ATOM     13  C1  <0> d           2.312  -0.304  -0.023  0.00  0.00     0.210 C 
ENDBRANCH   6  12
ENDBRANCH   2   5
ENDBRANCH   1   2
BRANCH   1  14
ATOM     14  C8  <0> d           3.204   4.586   2.601  0.00  0.00     0.145 C 
BRANCH  14  15
ATOM     15  C9  <0> d           2.118   3.946   3.468  0.00  0.00     0.123 C 
BRANCH  15  16
ATOM     16  C10 <0> d           1.868   4.808   4.679  0.00  0.00     0.216 C 
ATOM     17  O4  <0> d           2.498   5.833   4.833  0.00  0.00    -0.274 OA
ATOM     18  N2  <0> d           0.946   4.439   5.590  0.00  0.00    -0.370 N 
ATOM     19  H11 <0> d           0.443   3.619   5.467  0.00  0.00     0.159 HD
ATOM     20  H12 <0> d           0.786   4.994   6.370  0.00  0.00     0.159 HD
ENDBRANCH  15  16
ENDBRANCH  14  15
ENDBRANCH   1  14
BRANCH   1  21
ATOM     21  C11 <0> d           4.375   2.619   1.507  0.00  0.00     0.174 C 
BRANCH  21  22
ATOM     22  C12 <0> d           5.781   3.107   1.270  0.00  0.00    -0.040 A 
ATOM     23  C17 <0> d           6.557   3.525   2.336  0.00  0.00     0.009 A 
ATOM     24  C16 <0> d           7.846   3.972   2.119  0.00  0.00     0.001 A 
ATOM     25  C15 <0> d           8.361   4.002   0.836  0.00  0.00     0.000 A 
ATOM     26  C14 <0> d           7.585   3.584  -0.230  0.00  0.00     0.001 A 
ATOM     27  C13 <0> d           6.298   3.131  -0.012  0.00  0.00     0.009 A 
ENDBRANCH  21  22
ENDBRANCH   1  21
TORSDOF 8
