REMARK  7 active torsions:
REMARK  status: ('A' for Active; 'I' for Inactive)
REMARK    1  A    between atoms: C12_13  and  O6_35 
REMARK    2  A    between atoms: C18_19  and  C19_20 
REMARK    3  A    between atoms: C18_19  and  O5_33 
REMARK    4  A    between atoms: C19_20  and  C20_22 
REMARK    5  A    between atoms: C20_22  and  S1_23 
REMARK    6  A    between atoms: S1_23  and  C21_24 
REMARK    7  A    between atoms: C21_24  and  C22_25 
REMARK       I    between atoms: C22_25  and  N1_27 
ROOT
ATOM      1  C1  <0> d          -2.679  -6.898  -3.276  0.00  0.00     0.020 C 
ATOM      2  C2  <0> d          -2.087  -6.273  -2.010  0.00  0.00    -0.014 C 
ATOM      3  C3  <0> d          -0.640  -5.855  -2.276  0.00  0.00     0.022 C 
ATOM      4  C4  <0> d           0.177  -7.098  -2.646  0.00  0.00     0.084 C 
ATOM      5  C5  <0> d           0.063  -8.107  -1.529  0.00  0.00     0.149 C 
ATOM      6  O1  <0> d           0.958  -8.902  -1.336  0.00  0.00    -0.293 OA
ATOM      7  C6  <0> d          -1.127  -8.124  -0.680  0.00  0.00     0.053 C 
ATOM      8  C7  <0> d          -2.129  -7.276  -0.889  0.00  0.00    -0.068 C 
ATOM      9  C8  <0> d          -3.344  -7.289   0.004  0.00  0.00     0.035 C 
ATOM     10  C9  <0> d          -3.495  -5.937   0.674  0.00  0.00     0.010 C 
ATOM     11  C10 <0> d          -2.847  -4.804  -0.117  0.00  0.00    -0.002 C 
ATOM     12  C11 <0> d          -2.911  -5.040  -1.616  0.00  0.00     0.031 C 
ATOM     13  C12 <0> d          -2.301  -3.840  -2.356  0.00  0.00     0.124 C 
ATOM     14  C13 <0> d          -3.113  -2.589  -2.034  0.00  0.00     0.045 C 
ATOM     15  C14 <0> d          -3.070  -2.305  -0.540  0.00  0.00     0.001 C 
ATOM     16  C15 <0> d          -3.552  -3.504   0.289  0.00  0.00     0.002 C 
ATOM     17  C16 <0> d          -3.017  -3.141   1.707  0.00  0.00     0.009 C 
ATOM     18  C17 <0> d          -1.625  -2.531   1.431  0.00  0.00     0.047 C 
ATOM     19  C18 <0> d          -1.660  -2.000  -0.017  0.00  0.00     0.126 C 
ATOM     20  C27 <0> d          -3.977  -1.106  -0.257  0.00  0.00     0.019 C 
ENDROOT
BRANCH  19  21
ATOM     21  C19 <0> d          -1.410  -0.514  -0.032  0.00  0.00     0.171 C 
ATOM     22  O2  <0> d          -1.692   0.155   0.933  0.00  0.00    -0.294 OA
BRANCH  21  23
ATOM     23  C20 <0> d          -0.808   0.137  -1.250  0.00  0.00     0.156 C 
BRANCH  23  24
ATOM     24  S1  <0> d          -0.633   1.919  -0.960  0.00  0.00    -0.152 SA
BRANCH  24  25
ATOM     25  C21 <0> d           0.095   2.545  -2.499  0.00  0.00     0.177 C 
BRANCH  25  26
ATOM     26  C22 <0> d           0.295   4.034  -2.390  0.00  0.00     0.229 C 
ATOM     27  O3  <0> d          -0.022   4.617  -1.375  0.00  0.00    -0.273 OA
ATOM     28  N1  <0> d           0.827   4.720  -3.422  0.00  0.00    -0.347 N 
ATOM     29  C26 <0> d           1.032   6.175  -3.339  0.00  0.00     0.152 C 
ATOM     30  C23 <0> d           1.226   4.034  -4.662  0.00  0.00     0.152 C 
ATOM     31  C25 <0> d           0.420   6.821  -4.587  0.00  0.00     0.187 C 
ATOM     32  O4  <0> d           0.933   6.173  -5.753  0.00  0.00    -0.388 OA
ATOM     33  C24 <0> d           0.599   4.786  -5.847  0.00  0.00     0.187 C 
ENDBRANCH  25  26
ENDBRANCH  24  25
ENDBRANCH  23  24
ENDBRANCH  21  23
ENDBRANCH  19  21
BRANCH  19  34
ATOM     34  O5  <0> d          -0.681  -2.672  -0.812  0.00  0.00    -0.381 OA
ATOM     35  H35 <0> d           0.229  -2.530  -0.519  0.00  0.00     0.211 HD
ENDBRANCH  19  34
BRANCH  13  36
ATOM     36  O6  <0> d          -2.331  -4.082  -3.764  0.00  0.00    -0.395 OA
ATOM     37  H39 <0> d          -1.961  -3.364  -4.295  0.00  0.00     0.210 HD
ENDBRANCH  13  36
TORSDOF 7
