REMARK  4 active torsions:
REMARK  status: ('A' for Active; 'I' for Inactive)
REMARK    1  A    between atoms: C2_2  and  C3_3 
REMARK    2  A    between atoms: C6_6  and  C7_8 
REMARK    3  A    between atoms: C9_10  and  N3_24 
REMARK    4  A    between atoms: N1_11  and  N2_21 
ROOT
ATOM      1  C7  <0> d           0.770   1.450   0.282  0.00  0.00     0.112 C 
ATOM      2  C8  <0> d           2.095   1.748  -0.355  0.00  0.00     0.081 C 
ATOM      3  C9  <0> d           2.564   3.020  -0.437  0.00  0.00     0.134 C 
ATOM      4  N1  <0> d           1.819   4.063   0.060  0.00  0.00    -0.263 N 
ATOM      5  C10 <0> d           0.474   3.920   0.270  0.00  0.00     0.043 C 
ATOM      6  C11 <0> d          -0.078   2.693   0.381  0.00  0.00     0.026 C 
ATOM      7  C12 <0> d          -1.458   2.536   0.598  0.00  0.00     0.159 C 
ATOM      8  O1  <0> d          -1.926   1.417   0.675  0.00  0.00    -0.293 OA
ATOM      9  C13 <0> d          -2.367   3.727   0.729  0.00  0.00     0.092 C 
ATOM     10  C14 <0> d          -1.562   4.905   1.295  0.00  0.00    -0.036 C 
ATOM     11  C15 <0> d          -0.373   5.165   0.368  0.00  0.00     0.068 C 
ATOM     12  C16 <0> d          -1.055   4.561   2.697  0.00  0.00     0.015 C 
ATOM     13  C17 <0> d          -2.446   6.152   1.360  0.00  0.00     0.015 C 
ATOM     14  C20 <0> d           2.879   0.673  -0.885  0.00  0.00     0.100 C 
ATOM     15  N4  <0> d           3.501  -0.179  -1.306  0.00  0.00    -0.191 NA
ENDROOT
BRANCH   1  16
ATOM     16  C6  <0> d           1.000   0.897   1.665  0.00  0.00    -0.003 A 
ATOM     17  C5  <0> d           0.658  -0.314   2.168  0.00  0.00     0.017 A 
ATOM     18  C4  <0> d           0.977  -0.610   3.481  0.00  0.00     0.015 A 
ATOM     19  C3  <0> d           1.614   0.325   4.229  0.00  0.00    -0.017 A 
ATOM     20  S1  <0> d           1.788   1.671   3.069  0.00  0.00    -0.098 SA
BRANCH  19  21
ATOM     21  C2  <0> d           2.059   0.247   5.666  0.00  0.00     0.041 C 
ATOM     22  C1  <0> d           3.484  -0.308   5.729  0.00  0.00     0.010 C 
ENDBRANCH  19  21
ENDBRANCH   1  16
BRANCH   3  23
ATOM     23  N3  <0> d           3.785   3.265  -1.018  0.00  0.00    -0.383 N 
ATOM     24  H25 <0> d           4.157   4.161  -1.005  0.00  0.00     0.157 HD
ATOM     25  H26 <0> d           4.274   2.543  -1.441  0.00  0.00     0.157 HD
ENDBRANCH   3  23
BRANCH   4  26
ATOM     26  N2  <0> d           2.426   5.253   0.346  0.00  0.00    -0.231 NA
ATOM     27  C18 <0> d           1.973   6.309  -0.569  0.00  0.00     0.136 C 
ATOM     28  C19 <0> d           2.198   5.636   1.746  0.00  0.00     0.136 C 
ENDBRANCH   4  26
TORSDOF 4
