REMARK  2 active torsions:
REMARK  status: ('A' for Active; 'I' for Inactive)
REMARK    1  A    between atoms: N1_2  and  C3_4 
REMARK    2  A    between atoms: C6_7  and  C9_11 
ROOT
ATOM      1  C9  <0> d           0.006  -2.759  -4.875  0.00  0.00     0.032 C 
ATOM      2  C10 <0> d           1.083  -3.540  -5.232  0.00  0.00     0.080 C 
ATOM      3  C11 <0> d           2.228  -3.770  -4.307  0.00  0.00     0.141 C 
ATOM      4  N2  <0> d           2.099  -3.837  -3.008  0.00  0.00    -0.383 N 
ATOM      5  N3  <0> d           3.466  -3.910  -4.971  0.00  0.00    -0.192 N 
ATOM      6  C12 <0> d           3.439  -4.310  -6.289  0.00  0.00     0.200 A 
ATOM      7  N4  <0> d           2.387  -4.491  -7.048  0.00  0.00    -0.182 NA
ATOM      8  C13 <0> d           1.163  -4.203  -6.558  0.00  0.00     0.283 C 
ATOM      9  O1  <0> d           0.152  -4.474  -7.186  0.00  0.00    -0.265 OA
ATOM     10  S1  <0> d           5.164  -4.481  -6.661  0.00  0.00    -0.041 SA
ATOM     11  C14 <0> d           5.800  -3.918  -5.088  0.00  0.00     0.192 A 
ATOM     12  N5  <0> d           4.708  -3.692  -4.414  0.00  0.00    -0.169 NA
ATOM     13  H11 <0> d           1.216  -3.817  -2.607  0.00  0.00     0.157 HD
ATOM     14  H13 <0> d           2.886  -3.905  -2.446  0.00  0.00     0.157 HD
ENDROOT
BRANCH   1  15
ATOM     15  C6  <0> d           0.045  -1.984  -3.634  0.00  0.00    -0.034 A 
ATOM     16  C5  <0> d           1.262  -1.466  -3.165  0.00  0.00     0.014 A 
ATOM     17  C4  <0> d           1.292  -0.743  -2.007  0.00  0.00     0.031 A 
ATOM     18  C3  <0> d           0.118  -0.519  -1.291  0.00  0.00     0.047 A 
ATOM     19  C8  <0> d          -1.093  -1.036  -1.749  0.00  0.00     0.038 A 
ATOM     20  C7  <0> d          -1.135  -1.756  -2.909  0.00  0.00     0.032 A 
ATOM     21 Br1  <0> d          -2.680  -0.734  -0.767  0.00  0.00    -0.049 Br
BRANCH  18  22
ATOM     22  N1  <0> d           0.155   0.217  -0.113  0.00  0.00    -0.388 N 
ATOM     23  C1  <0> d          -0.030   1.670  -0.151  0.00  0.00     0.149 C 
ATOM     24  C2  <0> d           0.380  -0.460   1.167  0.00  0.00     0.149 C 
ENDBRANCH  18  22
ENDBRANCH   1  15
TORSDOF 2
