REMARK  6 active torsions:
REMARK  status: ('A' for Active; 'I' for Inactive)
REMARK       I    between atoms: C2_2  and  N1_4 
REMARK    1  A    between atoms: N1_4  and  C3_5 
REMARK    2  A    between atoms: C5_7  and  N2_12 
REMARK       I    between atoms: N2_12  and  C9_13 
REMARK       I    between atoms: C9_13  and  N3_15 
REMARK    3  A    between atoms: N3_15  and  C10_16 
REMARK    4  A    between atoms: C10_16  and  C11_17 
REMARK    5  A    between atoms: C11_17  and  C12_18 
REMARK    6  A    between atoms: C11_17  and  N4_23 
ROOT
ATOM      1  N2  <0> d           1.130  -4.942   0.006  0.00  0.00    -0.309 N 
ATOM      2  C9  <0> d           1.123  -6.249  -0.321  0.00  0.00     0.320 C 
ATOM      3  O2  <0> d           0.067  -6.830  -0.482  0.00  0.00    -0.247 OA
ATOM      4  N3  <0> d           2.286  -6.913  -0.470  0.00  0.00    -0.340 N 
ATOM      5  H9  <0> d           1.969  -4.497   0.205  0.00  0.00     0.170 HD
ATOM      6  H10 <0> d           3.129  -6.450  -0.342  0.00  0.00     0.164 HD
ENDROOT
BRANCH   1   7
ATOM      7  C5  <0> d          -0.073  -4.227   0.059  0.00  0.00     0.038 A 
ATOM      8  C4  <0> d          -0.193  -3.134   0.905  0.00  0.00     0.062 A 
ATOM      9  C3  <0> d          -1.386  -2.427   0.955  0.00  0.00     0.075 A 
ATOM     10  C8  <0> d          -2.458  -2.819   0.162  0.00  0.00     0.143 A 
ATOM     11  C7  <0> d          -2.333  -3.906  -0.684  0.00  0.00     0.047 A 
ATOM     12  F1  <0> d          -3.622  -2.135   0.213  0.00  0.00    -0.204 F 
ATOM     13  C6  <0> d          -1.145  -4.611  -0.735  0.00  0.00     0.032 A 
BRANCH   9  14
ATOM     14  N1  <0> d          -1.511  -1.323   1.808  0.00  0.00    -0.325 N 
ATOM     15  C2  <0> d          -0.450  -0.526   2.039  0.00  0.00     0.218 C 
ATOM     16  C1  <0> d          -0.609   0.717   2.877  0.00  0.00     0.117 C 
ATOM     17  O1  <0> d           0.634  -0.808   1.572  0.00  0.00    -0.274 OA
ATOM     18  H5  <0> d          -2.362  -1.133   2.233  0.00  0.00     0.169 HD
ENDBRANCH   9  14
ENDBRANCH   1   7
BRANCH   4  19
ATOM     19  C10 <0> d           2.279  -8.335  -0.826  0.00  0.00     0.164 C 
BRANCH  19  20
ATOM     20  C11 <0> d           3.711  -8.872  -0.810  0.00  0.00     0.261 C 
BRANCH  20  21
ATOM     21  C12 <0> d           4.509  -8.206  -1.901  0.00  0.00     0.085 A 
ATOM     22  O3  <0> d           5.057  -6.981  -1.837  0.00  0.00    -0.325 OA
ATOM     23  C15 <0> d           5.697  -6.716  -2.987  0.00  0.00     0.142 A 
ATOM     24  C14 <0> d           5.555  -7.774  -3.806  0.00  0.00     0.027 A 
ATOM     25  C13 <0> d           4.789  -8.734  -3.106  0.00  0.00     0.037 A 
ENDBRANCH  20  21
BRANCH  20  26
ATOM     26  N4  <0> d           4.327  -8.586   0.492  0.00  0.00    -0.067 N 
ATOM     27  C16 <0> d           3.617  -9.327   1.543  0.00  0.00     0.270 C 
ATOM     28  C17 <0> d           5.736  -9.001   0.468  0.00  0.00     0.270 C 
ATOM     29  H22 <0> d           4.271  -7.597   0.681  0.00  0.00     0.280 HD
ENDBRANCH  20  26
ENDBRANCH  19  20
ENDBRANCH   4  19
TORSDOF 6
