REMARK  3 active torsions:
REMARK  status: ('A' for Active; 'I' for Inactive)
REMARK    1  A    between atoms: C2_2  and  C9_12 
REMARK    2  A    between atoms: C9_12  and  C10_13 
REMARK    3  A    between atoms: C9_12  and  N1_20 
ROOT
ATOM      1  C9  <0> d           1.145   3.599   0.010  0.00  0.00     0.221 C 
ENDROOT
BRANCH   1   2
ATOM      2  C2  <0> d           1.170   2.092   0.002  0.00  0.00    -0.023 A 
ATOM      3  C1  <0> d          -0.017   1.383   0.010  0.00  0.00     0.049 A 
ATOM      4  C6  <0> d           0.002  -0.004   0.002  0.00  0.00     0.104 A 
ATOM      5  C5  <0> d           1.217  -0.679  -0.016  0.00  0.00     0.123 A 
ATOM      6  O1  <0> d          -1.175  -0.688   0.016  0.00  0.00    -0.346 OA
ATOM      7  C4  <0> d           2.405   0.039  -0.023  0.00  0.00     0.070 A 
ATOM      8  O2  <0> d           1.258  -2.039  -0.030  0.00  0.00    -0.344 OA
ATOM      9  C3  <0> d           2.378   1.422  -0.013  0.00  0.00     0.036 A 
ATOM     10 Cl1  <0> d           3.924  -0.800  -0.043  0.00  0.00    -0.081 Cl
ATOM     11  C8  <0> d           0.060  -2.723   0.356  0.00  0.00     0.202 C 
ATOM     12  C7  <0> d          -1.122  -2.066  -0.368  0.00  0.00     0.202 C 
ENDBRANCH   1   2
BRANCH   1  13
ATOM     13  C10 <0> d           1.374   4.120  -1.410  0.00  0.00     0.035 C 
ATOM     14  C13 <0> d           1.349   5.675  -1.409  0.00  0.00     0.147 C 
ATOM     15  S1  <0> d           2.223   6.028  -2.992  0.00  0.00     0.144 S 
ATOM     16  C12 <0> d           3.127   4.440  -3.201  0.00  0.00     0.141 C 
ATOM     17  O3  <0> d           1.263   6.153  -4.032  0.00  0.00    -0.228 OA
ATOM     18  O4  <0> d           3.164   7.071  -2.779  0.00  0.00    -0.228 OA
ATOM     19  C11 <0> d           2.753   3.664  -1.915  0.00  0.00     0.023 C 
ENDBRANCH   1  13
BRANCH   1  20
ATOM     20  N1  <0> d           2.207   4.101   0.893  0.00  0.00    -0.071 N 
ATOM     21  H15 <0> d           2.056   3.757   1.830  0.00  0.00     0.275 HD
ATOM     22  H16 <0> d           3.103   3.781   0.558  0.00  0.00     0.275 HD
ATOM     23  H17 <0> d           2.190   5.110   0.899  0.00  0.00     0.275 HD
ENDBRANCH   1  20
TORSDOF 3
