REMARK  4 active torsions:
REMARK  status: ('A' for Active; 'I' for Inactive)
REMARK    1  A    between atoms: N1_2  and  C2_3 
REMARK    2  A    between atoms: N1_2  and  S1_9 
REMARK    3  A    between atoms: S1_9  and  C8_12 
REMARK    4  A    between atoms: C10_14  and  N2_20 
ROOT
ATOM      1  C8  <0> d           1.682  -1.059  -1.905  0.00  0.00     0.103 A 
ATOM      2  C9  <0> d           2.207  -2.336  -1.975  0.00  0.00     0.059 A 
ATOM      3  C10 <0> d           3.531  -2.522  -2.345  0.00  0.00     0.066 A 
ATOM      4  C11 <0> d           4.328  -1.421  -2.643  0.00  0.00     0.144 A 
ATOM      5  C12 <0> d           3.797  -0.146  -2.572  0.00  0.00     0.070 A 
ATOM      6  C13 <0> d           2.474   0.034  -2.208  0.00  0.00     0.060 A 
ATOM      7 Cl1  <0> d           1.808   1.635  -2.125  0.00  0.00    -0.083 Cl
ATOM      8  F1  <0> d           5.618  -1.597  -3.003  0.00  0.00    -0.204 F 
ENDROOT
BRANCH   1   9
ATOM      9  S1  <0> d          -0.000  -0.824  -1.437  0.00  0.00     0.262 S 
ATOM     10  O1  <0> d          -0.531  -2.115  -1.167  0.00  0.00    -0.200 OA
ATOM     11  O2  <0> d          -0.572   0.049  -2.401  0.00  0.00    -0.200 OA
BRANCH   9  12
ATOM     12  N1  <0> d           0.002  -0.004   0.002  0.00  0.00    -0.306 N 
ATOM     13  C1  <0> d          -0.018   1.461   0.010  0.00  0.00     0.163 C 
BRANCH  12  14
ATOM     14  C2  <0> d           0.024  -0.743   1.267  0.00  0.00     0.095 C 
ATOM     15  C7  <0> d           1.276  -0.361   2.059  0.00  0.00     0.026 C 
ATOM     16  C6  <0> d           1.299  -1.133   3.380  0.00  0.00     0.002 C 
ATOM     17  C5  <0> d           0.052  -0.785   4.196  0.00  0.00     0.000 C 
ATOM     18  C4  <0> d          -1.199  -1.167   3.404  0.00  0.00     0.002 C 
ATOM     19  C3  <0> d          -1.222  -0.395   2.083  0.00  0.00     0.026 C 
ENDBRANCH  12  14
ENDBRANCH   9  12
ENDBRANCH   1   9
BRANCH   3  20
ATOM     20  N2  <0> d           4.065  -3.813  -2.416  0.00  0.00    -0.397 N 
ATOM     21  H17 <0> d           3.509  -4.580  -2.207  0.00  0.00     0.156 HD
ATOM     22  H18 <0> d           4.991  -3.941  -2.674  0.00  0.00     0.156 HD
ENDBRANCH   3  20
TORSDOF 4
