REMARK  5 active torsions:
REMARK  status: ('A' for Active; 'I' for Inactive)
REMARK    1  A    between atoms: C2_2  and  N1_3 
REMARK    2  A    between atoms: N2_6  and  C7_9 
REMARK    3  A    between atoms: C12_14  and  N3_15 
REMARK       I    between atoms: N3_15  and  C13_16 
REMARK    4  A    between atoms: C13_16  and  C14_18 
REMARK    5  A    between atoms: C16_20  and  C17_24 
ROOT
ATOM      1  N3  <0> d          -6.242  -2.492  -0.204  0.00  0.00    -0.320 N 
ATOM      2  C13 <0> d          -7.536  -2.115  -0.219  0.00  0.00     0.276 C 
ATOM      3  O1  <0> d          -8.236  -2.386  -1.175  0.00  0.00    -0.266 OA
ATOM      4  H19 <0> d          -5.700  -2.333   0.585  0.00  0.00     0.169 HD
ENDROOT
BRANCH   1   5
ATOM      5  C12 <0> d          -5.679  -3.111  -1.328  0.00  0.00     0.061 A 
ATOM      6  C7  <0> d          -4.348  -2.869  -1.667  0.00  0.00     0.057 A 
ATOM      7  C8  <0> d          -3.796  -3.490  -2.778  0.00  0.00     0.031 A 
ATOM      8  C9  <0> d          -4.566  -4.343  -3.547  0.00  0.00     0.002 A 
ATOM      9  C10 <0> d          -5.887  -4.579  -3.213  0.00  0.00     0.002 A 
ATOM     10  C11 <0> d          -6.446  -3.963  -2.109  0.00  0.00     0.032 A 
BRANCH   6  11
ATOM     11  N2  <0> d          -3.571  -2.006  -0.887  0.00  0.00    -0.376 N 
ATOM     12  C4  <0> d          -3.511  -0.566  -1.183  0.00  0.00     0.150 C 
ATOM     13  C3  <0> d          -2.040  -0.143  -1.245  0.00  0.00     0.254 C 
ATOM     14  N1  <0> d          -1.367  -0.535  -0.000  0.00  0.00    -0.068 N 
ATOM     15  C6  <0> d          -1.353  -1.998   0.122  0.00  0.00     0.254 C 
ATOM     16  H26 <0> d          -1.859  -0.138   0.785  0.00  0.00     0.280 HD
ATOM     17  C5  <0> d          -2.790  -2.513   0.252  0.00  0.00     0.150 C 
BRANCH  14  18
ATOM     18  C2  <0> d           0.014  -0.033  -0.014  0.00  0.00     0.230 C 
ATOM     19  C1  <0> d           0.001   1.497  -0.016  0.00  0.00     0.034 C 
ENDBRANCH  14  18
ENDBRANCH   6  11
ENDBRANCH   1   5
BRANCH   2  20
ATOM     20  C14 <0> d          -8.103  -1.374   0.926  0.00  0.00     0.147 A 
ATOM     21  N5  <0> d          -7.460  -1.017   2.021  0.00  0.00    -0.169 NA
ATOM     22  N4  <0> d          -8.246  -0.382   2.814  0.00  0.00    -0.277 N 
ATOM     23  C16 <0> d          -9.491  -0.295   2.266  0.00  0.00     0.062 A 
ATOM     24  H1  <0> d          -7.992  -0.022   3.679  0.00  0.00     0.189 HD
ATOM     25  C15 <0> d          -9.434  -0.922   1.053  0.00  0.00     0.071 A 
BRANCH  23  26
ATOM     26  C17 <0> d         -10.677   0.354   2.869  0.00  0.00    -0.008 A 
ATOM     27  C22 <0> d         -10.583   0.958   4.123  0.00  0.00     0.014 A 
ATOM     28  C21 <0> d         -11.691   1.567   4.676  0.00  0.00     0.001 A 
ATOM     29  C20 <0> d         -12.895   1.570   3.996  0.00  0.00     0.000 A 
ATOM     30  C19 <0> d         -12.996   0.968   2.754  0.00  0.00     0.001 A 
ATOM     31  C18 <0> d         -11.894   0.361   2.187  0.00  0.00     0.014 A 
ENDBRANCH  23  26
ENDBRANCH   2  20
TORSDOF 5
