REMARK  2 active torsions:
REMARK  status: ('A' for Active; 'I' for Inactive)
REMARK    1  A    between atoms: C7_7  and  N1_12 
REMARK    2  A    between atoms: C8_8  and  O2_11 
ROOT
ATOM      1  C1  <0> d          -0.176   1.460   0.231  0.00  0.00     0.036 A 
ATOM      2  C2  <0> d           0.951   2.253   0.339  0.00  0.00     0.036 A 
ATOM      3  C3  <0> d           2.207   1.672   0.340  0.00  0.00     0.050 A 
ATOM      4  C4  <0> d           2.332   0.301   0.232  0.00  0.00     0.069 A 
ATOM      5  C5  <0> d           1.198  -0.500   0.123  0.00  0.00     0.099 A 
ATOM      6  C6  <0> d          -0.056   0.084   0.126  0.00  0.00     0.012 A 
ATOM      7  C7  <0> d          -1.310  -0.747   0.021  0.00  0.00     0.254 C 
ATOM      8  C8  <0> d          -0.963  -2.138  -0.517  0.00  0.00     0.178 C 
ATOM      9  C9  <0> d           0.233  -2.678   0.277  0.00  0.00     0.210 C 
ATOM     10  O1  <0> d           1.362  -1.844   0.013  0.00  0.00    -0.346 OA
ATOM     11 Cl1  <0> d           3.908  -0.427   0.231  0.00  0.00    -0.081 Cl
ATOM     12 Cl2  <0> d           0.792   3.976   0.471  0.00  0.00    -0.084 Cl
ENDROOT
BRANCH   7  13
ATOM     13  N1  <0> d          -2.256  -0.092  -0.892  0.00  0.00    -0.060 N 
ATOM     14  C13 <0> d          -3.550  -0.809  -0.886  0.00  0.00     0.236 C 
ATOM     15  C12 <0> d          -4.108  -0.745  -2.320  0.00  0.00     0.029 C 
ATOM     16  C11 <0> d          -3.040   0.020  -3.135  0.00  0.00     0.029 C 
ATOM     17  C10 <0> d          -1.756  -0.170  -2.289  0.00  0.00     0.236 C 
ATOM     18  H16 <0> d          -2.390   0.871  -0.623  0.00  0.00     0.280 HD
ENDBRANCH   7  13
BRANCH   8  19
ATOM     19  O2  <0> d          -2.083  -3.010  -0.355  0.00  0.00    -0.391 OA
ATOM     20  H7  <0> d          -1.931  -3.909  -0.677  0.00  0.00     0.210 HD
ENDBRANCH   8  19
TORSDOF 2
