REMARK  5 active torsions:
REMARK  status: ('A' for Active; 'I' for Inactive)
REMARK    1  A    between atoms: C2_2  and  C3_3 
REMARK    2  A    between atoms: N2_9  and  C7_12 
REMARK    3  A    between atoms: N3_18  and  C13_19 
REMARK    4  A    between atoms: C13_19  and  C14_20 
REMARK    5  A    between atoms: C14_20  and  N4_21 
ROOT
ATOM      1  C3  <0> d           0.144  -0.645   1.219  0.00  0.00     0.122 A 
ATOM      2  C4  <0> d           0.313  -2.107   1.303  0.00  0.00     0.267 A 
ATOM      3  O1  <0> d           0.334  -2.792   0.298  0.00  0.00    -0.267 OA
ATOM      4  N1  <0> d           0.446  -2.664   2.524  0.00  0.00    -0.274 N 
ATOM      5  C5  <0> d           0.425  -1.921   3.639  0.00  0.00     0.332 A 
ATOM      6  O2  <0> d           0.549  -2.484   4.709  0.00  0.00    -0.246 OA
ATOM      7  N2  <0> d           0.274  -0.589   3.638  0.00  0.00    -0.261 N 
ATOM      8  C6  <0> d           0.137   0.104   2.488  0.00  0.00     0.269 A 
ATOM      9  O3  <0> d           0.007   1.313   2.499  0.00  0.00    -0.267 OA
ATOM     10  H4  <0> d           0.558  -3.625   2.597  0.00  0.00     0.173 HD
ENDROOT
BRANCH   1  11
ATOM     11  C2  <0> d           0.002  -0.004   0.002  0.00  0.00     0.022 C 
ATOM     12  C1  <0> d          -0.007   1.502  -0.060  0.00  0.00     0.069 C 
ATOM     13  N3  <0> d          -0.128  -0.726  -1.129  0.00  0.00    -0.391 N 
ATOM     14  H16 <0> d          -0.207  -1.692  -1.082  0.00  0.00     0.159 HD
BRANCH  13  15
ATOM     15  C13 <0> d          -0.150  -0.052  -2.430  0.00  0.00     0.147 C 
BRANCH  15  16
ATOM     16  C14 <0> d          -0.306  -1.092  -3.541  0.00  0.00     0.253 C 
BRANCH  16  17
ATOM     17  N4  <0> d          -0.328  -0.416  -4.845  0.00  0.00    -0.077 N 
ATOM     18  C15 <0> d          -0.357  -1.421  -5.916  0.00  0.00     0.269 C 
ATOM     19  C16 <0> d          -1.524   0.432  -4.936  0.00  0.00     0.269 C 
ATOM     20  H27 <0> d           0.498   0.155  -4.941  0.00  0.00     0.279 HD
ENDBRANCH  16  17
ENDBRANCH  15  16
ENDBRANCH  13  15
ENDBRANCH   1  11
BRANCH   7  21
ATOM     21  C7  <0> d           0.264   0.132   4.913  0.00  0.00     0.098 C 
ATOM     22  C12 <0> d          -0.889  -0.380   5.779  0.00  0.00     0.026 C 
ATOM     23  C11 <0> d          -0.899   0.373   7.111  0.00  0.00     0.002 C 
ATOM     24  C10 <0> d           0.427   0.141   7.838  0.00  0.00     0.000 C 
ATOM     25  C9  <0> d           1.579   0.653   6.972  0.00  0.00     0.002 C 
ATOM     26  C8  <0> d           1.590  -0.100   5.640  0.00  0.00     0.026 C 
ENDBRANCH   7  21
TORSDOF 5
