REMARK  4 active torsions:
REMARK  status: ('A' for Active; 'I' for Inactive)
REMARK    1  A    between atoms: C7_8  and  C9_10 
REMARK    2  A    between atoms: C9_10  and  N2_11 
REMARK    3  A    between atoms: N2_11  and  S1_12 
REMARK    4  A    between atoms: S1_12  and  C10_15 
ROOT
ATOM      1  N2  <0> d          -2.409  -3.297   2.229  0.00  0.00    -0.315 N 
ATOM      2  H17 <0> d          -2.805  -3.516   1.371  0.00  0.00     0.172 HD
ENDROOT
BRANCH   1   3
ATOM      3  C9  <0> d          -1.106  -2.630   2.284  0.00  0.00     0.137 C 
BRANCH   3   4
ATOM      4  C7  <0> d          -0.424  -2.727   0.918  0.00  0.00     0.008 C 
ATOM      5  C6  <0> d           0.940  -2.035   0.979  0.00  0.00     0.039 C 
ATOM      6  C5  <0> d           0.724  -0.529   1.202  0.00  0.00     0.188 C 
ATOM      7  N1  <0> d           0.012  -0.004   0.007  0.00  0.00    -0.066 N 
ATOM      8  C4  <0> d          -0.293  -0.363   2.354  0.00  0.00     0.035 C 
ATOM      9  C1  <0> d          -0.002   1.465   0.018  0.00  0.00     0.270 C 
ATOM     10  C2  <0> d          -1.365  -0.542   0.161  0.00  0.00     0.188 C 
ATOM     11  H20 <0> d           0.438  -0.349  -0.840  0.00  0.00     0.280 HD
ATOM     12  C8  <0> d          -1.305  -2.046  -0.153  0.00  0.00     0.039 C 
ATOM     13  C3  <0> d          -1.674  -0.372   1.666  0.00  0.00     0.035 C 
ENDBRANCH   3   4
ENDBRANCH   1   3
BRANCH   1  14
ATOM     14  S1  <0> d          -3.205  -3.678   3.630  0.00  0.00     0.261 S 
ATOM     15  O1  <0> d          -4.433  -4.282   3.248  0.00  0.00    -0.200 OA
ATOM     16  O2  <0> d          -2.262  -4.332   4.468  0.00  0.00    -0.200 OA
BRANCH  14  17
ATOM     17  C10 <0> d          -3.616  -2.159   4.424  0.00  0.00     0.114 A 
ATOM     18  C13 <0> d          -4.820  -1.524   4.161  0.00  0.00     0.146 A 
ATOM     19  N4  <0> d          -5.098  -0.388   4.780  0.00  0.00    -0.229 NA
ATOM     20  C12 <0> d          -4.241   0.145   5.629  0.00  0.00     0.222 A 
ATOM     21  N3  <0> d          -3.084  -0.429   5.900  0.00  0.00    -0.229 NA
ATOM     22 Cl1  <0> d          -4.646   1.641   6.412  0.00  0.00    -0.041 Cl
ATOM     23  C11 <0> d          -2.742  -1.569   5.322  0.00  0.00     0.146 A 
ENDBRANCH  14  17
ENDBRANCH   1  14
TORSDOF 4
