REMARK  5 active torsions:
REMARK  status: ('A' for Active; 'I' for Inactive)
REMARK    1  A    between atoms: C2_2  and  O1_3 
REMARK    2  A    between atoms: O1_3  and  C3_4 
REMARK    3  A    between atoms: C8_9  and  C9_10 
REMARK    4  A    between atoms: N1_11  and  N2_12 
REMARK    5  A    between atoms: C10_13  and  N6_17 
ROOT
ATOM      1  C3  <0> d          -1.498  -1.847   0.006  0.00  0.00     0.080 A 
ATOM      2  C4  <0> d          -0.390  -2.679  -0.014  0.00  0.00     0.039 A 
ATOM      3  C5  <0> d          -0.553  -4.051  -0.015  0.00  0.00     0.022 A 
ATOM      4  C6  <0> d          -1.823  -4.606  -0.006  0.00  0.00     0.011 A 
ATOM      5  C7  <0> d          -2.937  -3.792   0.009  0.00  0.00     0.034 A 
ATOM      6  C8  <0> d          -2.785  -2.404   0.016  0.00  0.00     0.018 A 
ATOM      7 Br1  <0> d          -2.029  -6.485  -0.014  0.00  0.00    -0.051 Br
ENDROOT
BRANCH   6   8
ATOM      8  C9  <0> d          -3.970  -1.529   0.033  0.00  0.00     0.155 C 
ATOM      9  N1  <0> d          -3.825  -0.238   0.039  0.00  0.00    -0.144 NA
BRANCH   9  10
ATOM     10  N2  <0> d          -4.952   0.594   0.055  0.00  0.00     0.049 N 
ATOM     11  N5  <0> d          -6.303   0.203   0.060  0.00  0.00    -0.007 NA
ATOM     12  N4  <0> d          -7.004   1.284   0.079  0.00  0.00    -0.006 NA
ATOM     13  N3  <0> d          -6.241   2.317   0.078  0.00  0.00     0.066 NA
ATOM     14  C10 <0> d          -4.976   1.956   0.064  0.00  0.00     0.759 A 
BRANCH  14  15
ATOM     15  N6  <0> d          -3.879   2.800   0.058  0.00  0.00    -0.228 N 
ATOM     16  H10 <0> d          -2.982   2.429   0.047  0.00  0.00     0.174 HD
ATOM     17  H11 <0> d          -4.006   3.761   0.065  0.00  0.00     0.174 HD
ENDBRANCH  14  15
ENDBRANCH   9  10
ENDBRANCH   6   8
BRANCH   1  18
ATOM     18  O1  <0> d          -1.339  -0.499   0.012  0.00  0.00    -0.351 OA
BRANCH  18  19
ATOM     19  C2  <0> d           0.002  -0.004   0.002  0.00  0.00     0.171 C 
ATOM     20  C1  <0> d          -0.019   1.526   0.010  0.00  0.00     0.034 C 
ENDBRANCH  18  19
ENDBRANCH   1  18
TORSDOF 5
