REMARK  6 active torsions:
REMARK  status: ('A' for Active; 'I' for Inactive)
REMARK    1  A    between atoms: C2_2  and  C3_3 
REMARK    2  A    between atoms: C2_2  and  C4_5 
REMARK    3  A    between atoms: C3_3  and  N1_4 
REMARK       I    between atoms: C4_5  and  N2_7 
REMARK    4  A    between atoms: N2_7  and  C5_8 
REMARK    5  A    between atoms: C10_13  and  O2_14 
REMARK    6  A    between atoms: O2_14  and  C11_15 
ROOT
ATOM      1  C5  <0> d           2.679  -0.681  -2.558  0.00  0.00     0.071 A 
ATOM      2  C6  <0> d           2.009  -0.926  -3.748  0.00  0.00     0.056 A 
ATOM      3  C7  <0> d           2.689  -1.455  -4.829  0.00  0.00     0.037 A 
ATOM      4  C8  <0> d           4.040  -1.741  -4.728  0.00  0.00     0.046 A 
ATOM      5  C9  <0> d           4.714  -1.499  -3.545  0.00  0.00     0.048 A 
ATOM      6  C10 <0> d           4.039  -0.964  -2.459  0.00  0.00     0.119 A 
ATOM      7 Br1  <0> d           6.559  -1.891  -3.412  0.00  0.00    -0.048 Br
ATOM      8 Cl1  <0> d           1.848  -1.762  -6.317  0.00  0.00    -0.084 Cl
ENDROOT
BRANCH   1   9
ATOM      9  N2  <0> d           1.991  -0.146  -1.462  0.00  0.00    -0.324 N 
ATOM     10  C4  <0> d           0.705  -0.484  -1.242  0.00  0.00     0.227 C 
ATOM     11  O1  <0> d           0.119  -1.188  -2.037  0.00  0.00    -0.273 OA
ATOM     12  H9  <0> d           2.440   0.469  -0.860  0.00  0.00     0.169 HD
BRANCH  10  13
ATOM     13  C2  <0> d          -0.005   0.012  -0.009  0.00  0.00     0.099 C 
ATOM     14  C1  <0> d          -0.020   1.542  -0.010  0.00  0.00     0.021 C 
BRANCH  13  15
ATOM     15  C3  <0> d          -1.442  -0.513  -0.002  0.00  0.00     0.243 C 
BRANCH  15  16
ATOM     16  N1  <0> d          -2.097  -0.130   1.256  0.00  0.00    -0.079 N 
ATOM     17  H7  <0> d          -1.590  -0.527   2.034  0.00  0.00     0.274 HD
ATOM     18  H8  <0> d          -2.105   0.875   1.339  0.00  0.00     0.274 HD
ATOM     19  H13 <0> d          -3.045  -0.476   1.261  0.00  0.00     0.274 HD
ENDBRANCH  15  16
ENDBRANCH  13  15
ENDBRANCH  10  13
ENDBRANCH   1   9
BRANCH   6  20
ATOM     20  O2  <0> d           4.703  -0.720  -1.297  0.00  0.00    -0.286 OA
BRANCH  20  21
ATOM     21  C11 <0> d           4.745  -1.780  -0.340  0.00  0.00     0.505 C 
ATOM     22  F1  <0> d           3.442  -2.122   0.036  0.00  0.00    -0.184 F 
ATOM     23  F2  <0> d           5.375  -2.894  -0.905  0.00  0.00    -0.184 F 
ENDBRANCH  20  21
ENDBRANCH   6  20
TORSDOF 6
