REMARK  6 active torsions:
REMARK  status: ('A' for Active; 'I' for Inactive)
REMARK    1  A    between atoms: N1_2  and  C3_4 
REMARK    2  A    between atoms: C3_4  and  C4_5 
REMARK    3  A    between atoms: C4_5  and  N2_6 
REMARK    4  A    between atoms: N2_6  and  C5_7 
REMARK       I    between atoms: N2_6  and  C10_13 
REMARK    5  A    between atoms: C5_7  and  C6_8 
REMARK    6  A    between atoms: C10_13  and  C11_15 
ROOT
ATOM      1  N2  <0> d           0.212  -0.610   3.922  0.00  0.00    -0.344 N 
ATOM      2  C10 <0> d           0.284  -1.954   3.992  0.00  0.00     0.246 C 
ATOM      3  O1  <0> d           1.071  -2.481   4.750  0.00  0.00    -0.271 OA
ENDROOT
BRANCH   1   4
ATOM      4  C4  <0> d          -0.763   0.026   3.033  0.00  0.00     0.154 C 
BRANCH   4   5
ATOM      5  C3  <0> d          -0.058   0.503   1.762  0.00  0.00     0.253 C 
BRANCH   5   6
ATOM      6  N1  <0> d          -1.057   0.998   0.804  0.00  0.00    -0.077 N 
ATOM      7  C1  <0> d          -1.714   2.190   1.355  0.00  0.00     0.269 C 
ATOM      8  C2  <0> d          -0.394   1.344  -0.460  0.00  0.00     0.269 C 
ATOM      9  H22 <0> d          -1.746   0.280   0.637  0.00  0.00     0.279 HD
ENDBRANCH   5   6
ENDBRANCH   4   5
ENDBRANCH   1   4
BRANCH   1  10
ATOM     10  C5  <0> d           1.110   0.214   4.735  0.00  0.00     0.165 C 
BRANCH  10  11
ATOM     11  C6  <0> d           0.462   0.501   6.065  0.00  0.00    -0.033 A 
ATOM     12  C9  <0> d           0.650  -0.334   7.116  0.00  0.00     0.058 A 
ATOM     13  S1  <0> d          -0.311   0.459   8.395  0.00  0.00    -0.113 SA
ATOM     14  C8  <0> d          -0.907   1.845   7.439  0.00  0.00     0.050 A 
ATOM     15  C7  <0> d          -0.339   1.616   6.230  0.00  0.00     0.016 A 
ENDBRANCH  10  11
ENDBRANCH   1  10
BRANCH   2  16
ATOM     16  C11 <0> d          -0.614  -2.803   3.129  0.00  0.00     0.198 A 
ATOM     17  N3  <0> d          -0.668  -4.173   3.649  0.00  0.00    -0.373 N 
ATOM     18  C18 <0> d          -0.208  -4.987   2.728  0.00  0.00     0.039 A 
ATOM     19  H21 <0> d          -0.989  -4.434   4.526  0.00  0.00     0.161 HD
ATOM     20  C13 <0> d           0.188  -4.226   1.522  0.00  0.00    -0.008 A 
ATOM     21  C17 <0> d          -0.042  -6.400   2.711  0.00  0.00     0.033 A 
ATOM     22  C12 <0> d          -0.044  -2.910   1.732  0.00  0.00     0.021 A 
ATOM     23  C14 <0> d           0.729  -4.969   0.377  0.00  0.00     0.055 A 
ATOM     24  C15 <0> d           0.846  -6.315   0.465  0.00  0.00     0.117 A 
ATOM     25  C16 <0> d           0.463  -7.015   1.621  0.00  0.00     0.044 A 
ATOM     26  F1  <0> d           1.342  -7.003  -0.587  0.00  0.00    -0.206 F 
ENDBRANCH   2  16
TORSDOF 6
