REMARK  7 active torsions:
REMARK  status: ('A' for Active; 'I' for Inactive)
REMARK    1  A    between atoms: N1_2  and  C2_3 
REMARK       I    between atoms: N1_2  and  C12_13 
REMARK    2  A    between atoms: C12_13  and  C13_15 
REMARK    3  A    between atoms: C13_15  and  O2_16 
REMARK    4  A    between atoms: O2_16  and  C14_17 
REMARK    5  A    between atoms: C14_17  and  C15_19 
REMARK    6  A    between atoms: C17_21  and  S2_24 
REMARK    7  A    between atoms: S2_24  and  N2_27 
ROOT
ATOM      1  C13 <0> d          -2.532   3.230   2.340  0.00  0.00     0.281 C 
ENDROOT
BRANCH   1   2
ATOM      2  C12 <0> d          -1.819   2.749   1.102  0.00  0.00     0.244 C 
ATOM      3  N1  <0> d          -0.711   1.990   1.214  0.00  0.00    -0.346 N 
ATOM      4  C1  <0> d          -0.199   1.633   2.539  0.00  0.00     0.153 C 
ATOM      5  O1  <0> d          -2.243   3.045   0.005  0.00  0.00    -0.271 OA
BRANCH   3   6
ATOM      6  C2  <0> d          -0.019   1.523   0.010  0.00  0.00     0.120 C 
ATOM      7  C7  <0> d           1.384   2.072  -0.000  0.00  0.00    -0.029 A 
ATOM      8  C6  <0> d           2.474   1.313  -0.365  0.00  0.00    -0.050 A 
ATOM      9  C8  <0> d           1.563   3.396   0.376  0.00  0.00     0.010 A 
ATOM     10  C5  <0> d           2.355  -0.131  -0.777  0.00  0.00     0.039 C 
ATOM     11  C11 <0> d           3.741   1.882  -0.360  0.00  0.00     0.007 A 
ATOM     12  C4  <0> d           0.911  -0.469  -1.142  0.00  0.00     0.007 C 
ATOM     13  C3  <0> d           0.002  -0.004   0.002  0.00  0.00     0.030 C 
ATOM     14  C10 <0> d           3.916   3.199   0.012  0.00  0.00     0.001 A 
ATOM     15  C9  <0> d           2.823   3.959   0.383  0.00  0.00     0.001 A 
ENDBRANCH   3   6
ENDBRANCH   1   2
BRANCH   1  16
ATOM     16  O2  <0> d          -3.687   4.022   1.957  0.00  0.00    -0.308 OA
BRANCH  16  17
ATOM     17  C14 <0> d          -4.438   4.530   2.954  0.00  0.00     0.294 C 
ATOM     18  O3  <0> d          -4.136   4.317   4.112  0.00  0.00    -0.259 OA
BRANCH  17  19
ATOM     19  C15 <0> d          -5.623   5.343   2.641  0.00  0.00     0.048 A 
ATOM     20  C18 <0> d          -5.991   5.609   1.338  0.00  0.00     0.068 A 
ATOM     21  S1  <0> d          -7.415   6.577   1.517  0.00  0.00    -0.088 SA
ATOM     22  C17 <0> d          -7.512   6.633   3.295  0.00  0.00     0.115 A 
ATOM     23  C16 <0> d          -6.449   5.902   3.682  0.00  0.00     0.050 A 
BRANCH  22  24
ATOM     24  S2  <0> d          -8.708   7.446   4.301  0.00  0.00     0.245 S 
ATOM     25  O4  <0> d          -9.879   7.585   3.509  0.00  0.00    -0.206 OA
ATOM     26  O5  <0> d          -8.710   6.772   5.553  0.00  0.00    -0.206 OA
BRANCH  24  27
ATOM     27  N2  <0> d          -8.147   8.977   4.589  0.00  0.00    -0.225 NA
ATOM     28  H19 <0> d          -8.868   9.520   5.217  0.00  0.00     0.136 HD
ATOM     29  H20 <0> d          -8.021   9.507   3.633  0.00  0.00     0.136 HD
ENDBRANCH  24  27
ENDBRANCH  22  24
ENDBRANCH  17  19
ENDBRANCH  16  17
ENDBRANCH   1  16
TORSDOF 7
