REMARK  4 active torsions:
REMARK  status: ('A' for Active; 'I' for Inactive)
REMARK    1  A    between atoms: C6_6  and  C7_7 
REMARK    2  A    between atoms: C7_7  and  C8_8 
REMARK    3  A    between atoms: C7_7  and  O1_13 
REMARK    4  A    between atoms: C8_8  and  C9_9 
ROOT
ATOM      1  C1  <0> d          -0.017   1.379   0.010  0.00  0.00     0.012 A 
ATOM      2  C2  <0> d           1.168   2.090   0.002  0.00  0.00     0.033 A 
ATOM      3  C3  <0> d           2.377   1.414  -0.013  0.00  0.00     0.071 A 
ATOM      4  C4  <0> d           2.397   0.019  -0.021  0.00  0.00     0.108 A 
ATOM      5  C5  <0> d           1.204  -0.685  -0.013  0.00  0.00     0.049 A 
ATOM      6  C6  <0> d           0.002  -0.004   0.002  0.00  0.00    -0.027 A 
ATOM      7  O2  <0> d           3.697  -0.364  -0.036  0.00  0.00    -0.259 OA
ATOM      8  C10 <0> d           4.479   0.727  -0.038  0.00  0.00     0.370 A 
ATOM      9  O3  <0> d           5.695   0.719  -0.050  0.00  0.00    -0.238 OA
ATOM     10  N1  <0> d           3.708   1.832  -0.024  0.00  0.00    -0.300 N 
ATOM     11  H2  <0> d           4.021   2.750  -0.022  0.00  0.00     0.171 HD
ENDROOT
BRANCH   6  12
ATOM     12  C7  <0> d          -1.295  -0.772   0.010  0.00  0.00     0.159 C 
BRANCH  12  13
ATOM     13  C8  <0> d          -1.848  -0.824   1.436  0.00  0.00     0.153 C 
BRANCH  13  14
ATOM     14  C9  <0> d          -3.097  -1.707   1.467  0.00  0.00     0.390 C 
ATOM     15  F1  <0> d          -2.764  -3.000   1.048  0.00  0.00    -0.171 F 
ATOM     16  F2  <0> d          -3.602  -1.754   2.770  0.00  0.00    -0.171 F 
ATOM     17  F3  <0> d          -4.066  -1.174   0.610  0.00  0.00    -0.171 F 
ENDBRANCH  13  14
ENDBRANCH  12  13
BRANCH  12  18
ATOM     18  O1  <0> d          -2.239  -0.122  -0.843  0.00  0.00    -0.391 OA
ATOM     19  H8  <0> d          -2.443   0.787  -0.584  0.00  0.00     0.210 HD
ENDBRANCH  12  18
ENDBRANCH   6  12
TORSDOF 4
