REMARK  5 active torsions:
REMARK  status: ('A' for Active; 'I' for Inactive)
REMARK    1  A    between atoms: C2_2  and  C19_28 
REMARK    2  A    between atoms: N1_5  and  C5_9 
REMARK    3  A    between atoms: C5_9  and  N3_10 
REMARK    4  A    between atoms: N4_13  and  C10_16 
REMARK    5  A    between atoms: C10_16  and  C11_17 
ROOT
ATOM      1  N3  <0> d           3.899  -0.698  -1.508  0.00  0.00     0.109 N 
ATOM      2  C6  <0> d           3.646   0.229  -2.620  0.00  0.00     0.304 C 
ATOM      3  C7  <0> d           4.872   1.123  -2.824  0.00  0.00     0.303 C 
ATOM      4  N4  <0> d           6.046   0.283  -3.099  0.00  0.00     0.097 N 
ATOM      5  C8  <0> d           6.299  -0.644  -1.987  0.00  0.00     0.303 C 
ATOM      6  C9  <0> d           5.073  -1.537  -1.783  0.00  0.00     0.304 C 
ENDROOT
BRANCH   1   7
ATOM      7  C5  <0> d           2.715  -1.523  -1.231  0.00  0.00     0.409 C 
BRANCH   7   8
ATOM      8  N1  <0> d           1.770  -0.761  -0.411  0.00  0.00    -0.240 N 
ATOM      9  C3  <0> d           0.794   0.022  -0.910  0.00  0.00     0.258 A 
ATOM     10  C2  <0> d           0.076   0.601   0.293  0.00  0.00     0.116 A 
ATOM     11  O1  <0> d           0.543   0.223  -2.079  0.00  0.00    -0.270 OA
ATOM     12  C1  <0> d           0.186   2.127   0.303  0.00  0.00     0.049 C 
ATOM     13  N2  <0> d           0.799   0.022   1.438  0.00  0.00    -0.324 N 
ATOM     14  C4  <0> d           1.769  -0.758   0.927  0.00  0.00     0.327 A 
ATOM     15  H4  <0> d           0.613   0.174   2.378  0.00  0.00     0.165 HD
ATOM     16  O2  <0> d           2.556  -1.389   1.605  0.00  0.00    -0.247 OA
BRANCH  10  17
ATOM     17  C19 <0> d          -1.391   0.168   0.308  0.00  0.00     0.023 A 
ATOM     18  C21 <0> d          -2.279   0.720   1.426  0.00  0.00     0.008 A 
ATOM     19  C20 <0> d          -2.444   1.232  -0.007  0.00  0.00     0.008 A 
ENDBRANCH  10  17
ENDBRANCH   7   8
ENDBRANCH   1   7
BRANCH   4  20
ATOM     20  C10 <0> d           7.230   1.108  -3.376  0.00  0.00     0.329 C 
BRANCH  20  21
ATOM     21  C11 <0> d           7.128   1.682  -4.765  0.00  0.00     0.044 A 
ATOM     22  N6  <0> d           7.153   0.878  -5.816  0.00  0.00    -0.344 N 
ATOM     23  C18 <0> d           7.060   1.356  -7.056  0.00  0.00     0.114 A 
ATOM     24  H27 <0> d           7.237  -0.078  -5.681  0.00  0.00     0.167 HD
ATOM     25  N5  <0> d           6.946   2.699  -7.283  0.00  0.00    -0.275 N 
ATOM     26  C17 <0> d           7.083   0.466  -8.146  0.00  0.00     0.049 A 
ATOM     27  C13 <0> d           6.922   3.558  -6.241  0.00  0.00     0.255 A 
ATOM     28  C14 <0> d           6.856   3.180  -8.554  0.00  0.00     0.102 A 
ATOM     29  C12 <0> d           7.015   3.048  -4.941  0.00  0.00     0.101 A 
ATOM     30  O3  <0> d           6.821   4.760  -6.430  0.00  0.00    -0.268 OA
ATOM     31  C15 <0> d           6.878   2.340  -9.613  0.00  0.00     0.018 A 
ATOM     32  C16 <0> d           6.993   0.957  -9.414  0.00  0.00     0.005 A 
ENDBRANCH  20  21
ENDBRANCH   4  20
TORSDOF 5
