REMARK  3 active torsions:
REMARK  status: ('A' for Active; 'I' for Inactive)
REMARK    1  A    between atoms: C2_2  and  C3_3 
REMARK    2  A    between atoms: C2_2  and  N4_9 
REMARK    3  A    between atoms: C13_17  and  N5_18 
ROOT
ATOM      1  N4  <0> d           0.711  -0.489   1.189  0.00  0.00    -0.348 N 
ATOM      2  C6  <0> d           0.352  -0.249   2.484  0.00  0.00     0.092 A 
ATOM      3  C7  <0> d           1.245  -0.861   3.292  0.00  0.00     0.028 A 
ATOM      4  C8  <0> d           2.183  -1.499   2.467  0.00  0.00    -0.004 A 
ATOM      5  C9  <0> d           1.830  -1.258   1.184  0.00  0.00     0.021 A 
ATOM      6  C10 <0> d           2.591  -1.777  -0.012  0.00  0.00     0.066 C 
ATOM      7  C11 <0> d           3.980  -2.227   0.456  0.00  0.00    -0.040 C 
ATOM      8  C12 <0> d           3.838  -3.146   1.672  0.00  0.00     0.046 C 
ATOM      9  C13 <0> d           3.378  -2.319   2.881  0.00  0.00     0.219 C 
ATOM     10  C14 <0> d           4.811  -1.000   0.838  0.00  0.00     0.015 C 
ATOM     11  C15 <0> d           4.679  -2.983  -0.676  0.00  0.00     0.015 C 
ENDROOT
BRANCH   1  12
ATOM     12  C2  <0> d           0.002  -0.004   0.002  0.00  0.00     0.157 C 
ATOM     13  C1  <0> d          -0.019   1.526   0.010  0.00  0.00     0.041 C 
BRANCH  12  14
ATOM     14  C3  <0> d          -1.412  -0.526   0.013  0.00  0.00     0.152 A 
ATOM     15  N3  <0> d          -1.985  -1.310  -0.931  0.00  0.00    -0.330 N 
ATOM     16  C4  <0> d          -3.254  -1.534  -0.512  0.00  0.00     0.235 A 
ATOM     17  C5  <0> d          -1.359  -1.817  -2.155  0.00  0.00     0.158 C 
ATOM     18  N2  <0> d          -3.407  -0.899   0.618  0.00  0.00    -0.143 NA
ATOM     19  N1  <0> d          -2.312  -0.300   0.930  0.00  0.00    -0.133 NA
ENDBRANCH  12  14
ENDBRANCH   1  12
BRANCH   9  20
ATOM     20  N5  <0> d           3.001  -3.226   3.974  0.00  0.00    -0.071 N 
ATOM     21  H16 <0> d           2.265  -3.841   3.661  0.00  0.00     0.275 HD
ATOM     22  H17 <0> d           3.803  -3.774   4.248  0.00  0.00     0.275 HD
ATOM     23  H24 <0> d           2.676  -2.687   4.762  0.00  0.00     0.275 HD
ENDBRANCH   9  20
TORSDOF 3
