REMARK  2 active torsions:
REMARK  status: ('A' for Active; 'I' for Inactive)
REMARK    1  A    between atoms: O1_2  and  C2_3 
REMARK    2  A    between atoms: C5_6  and  N1_9 
ROOT
ATOM      1  N1  <0> d          -4.720   6.652   0.084  0.00  0.00    -0.238 N 
ATOM      2  C8  <0> d          -4.500   5.437   0.558  0.00  0.00     0.274 A 
ATOM      3  O2  <0> d          -5.398   4.753   1.008  0.00  0.00    -0.266 OA
ATOM      4  C9  <0> d          -3.092   4.957   0.516  0.00  0.00     0.095 A 
ATOM      5  C10 <0> d          -2.559   3.754   0.934  0.00  0.00     0.067 A 
ATOM      6  C11 <0> d          -1.148   3.323   0.863  0.00  0.00     0.008 A 
ATOM      7  C12 <0> d           0.013   3.931   0.391  0.00  0.00     0.015 A 
ATOM      8  C13 <0> d           1.215   3.258   0.462  0.00  0.00     0.001 A 
ATOM      9  C14 <0> d           1.266   1.982   1.001  0.00  0.00     0.002 A 
ATOM     10  C15 <0> d           0.121   1.370   1.471  0.00  0.00     0.030 A 
ATOM     11  C16 <0> d          -1.101   2.029   1.403  0.00  0.00     0.046 A 
ATOM     12  N2  <0> d          -2.380   1.646   1.791  0.00  0.00    -0.322 N 
ATOM     13  C17 <0> d          -3.279   2.611   1.535  0.00  0.00     0.258 A 
ATOM     14  O3  <0> d          -4.472   2.558   1.768  0.00  0.00    -0.267 OA
ATOM     15  S1  <0> d          -2.283   6.363  -0.235  0.00  0.00    -0.022 SA
ATOM     16  C18 <0> d          -3.721   7.404  -0.420  0.00  0.00     0.298 A 
ATOM     17  O4  <0> d          -3.785   8.524  -0.889  0.00  0.00    -0.259 OA
ATOM     18  H12 <0> d          -2.595   0.791   2.195  0.00  0.00     0.169 HD
ENDROOT
BRANCH   1  19
ATOM     19  C5  <0> d          -6.024   7.168   0.100  0.00  0.00     0.046 A 
ATOM     20  C4  <0> d          -6.867   6.956  -0.983  0.00  0.00     0.033 A 
ATOM     21  C3  <0> d          -8.152   7.463  -0.967  0.00  0.00     0.039 A 
ATOM     22  C2  <0> d          -8.599   8.184   0.131  0.00  0.00     0.068 A 
ATOM     23  C7  <0> d          -7.757   8.396   1.213  0.00  0.00     0.039 A 
ATOM     24  C6  <0> d          -6.474   7.885   1.200  0.00  0.00     0.033 A 
BRANCH  22  25
ATOM     25  O1  <0> d          -9.864   8.683   0.147  0.00  0.00    -0.356 OA
ATOM     26  C1  <0> d         -10.258   9.415   1.309  0.00  0.00     0.210 C 
ENDBRANCH  22  25
ENDBRANCH   1  19
TORSDOF 2
