REMARK  5 active torsions:
REMARK  status: ('A' for Active; 'I' for Inactive)
REMARK    1  A    between atoms: C2_2  and  N1_3 
REMARK    2  A    between atoms: C4_5  and  N3_17 
REMARK    3  A    between atoms: C6_7  and  C7_8 
REMARK       I    between atoms: C7_8  and  N2_10 
REMARK    4  A    between atoms: N2_10  and  C9_12 
REMARK    5  A    between atoms: C9_12  and  C10_13 
ROOT
ATOM      1  N1  <0> d           0.645  -0.104  -1.397  0.00  0.00    -0.350 N 
ATOM      2  C3  <0> d           0.006  -0.130  -2.597  0.00  0.00     0.120 A 
ATOM      3  C4  <0> d           0.919  -0.375  -3.573  0.00  0.00     0.043 A 
ATOM      4  C5  <0> d           2.174  -0.507  -2.961  0.00  0.00     0.065 A 
ATOM      5  C6  <0> d           1.986  -0.330  -1.606  0.00  0.00     0.105 A 
ENDROOT
BRANCH   5   6
ATOM      6  C7  <0> d           3.027  -0.377  -0.574  0.00  0.00     0.270 C 
ATOM      7  O1  <0> d           2.759  -0.079   0.575  0.00  0.00    -0.266 OA
ATOM      8  N2  <0> d           4.281  -0.749  -0.899  0.00  0.00    -0.343 N 
ATOM      9  C8  <0> d           4.578  -1.220  -2.254  0.00  0.00     0.153 C 
BRANCH   8  10
ATOM     10  C9  <0> d           5.347  -0.683   0.104  0.00  0.00     0.243 C 
BRANCH  10  11
ATOM     11  C10 <0> d           5.422  -2.012   0.857  0.00  0.00     0.403 C 
ATOM     12  F1  <0> d           5.694  -3.046  -0.046  0.00  0.00    -0.169 F 
ATOM     13  F2  <0> d           6.440  -1.949   1.815  0.00  0.00    -0.169 F 
ATOM     14  F3  <0> d           4.199  -2.258   1.492  0.00  0.00    -0.169 F 
ENDBRANCH  10  11
ENDBRANCH   8  10
ENDBRANCH   5   6
BRANCH   1  15
ATOM     15  C2  <0> d           0.011   0.131  -0.097  0.00  0.00     0.124 C 
ATOM     16  C1  <0> d           0.110   1.616   0.258  0.00  0.00     0.027 C 
ENDBRANCH   1  15
BRANCH   3  17
ATOM     17  N3  <0> d           0.653  -0.478  -4.951  0.00  0.00    -0.398 N 
ATOM     18  H13 <0> d          -0.253  -0.371  -5.279  0.00  0.00     0.156 HD
ATOM     19  H14 <0> d           1.377  -0.656  -5.572  0.00  0.00     0.156 HD
ENDBRANCH   3  17
TORSDOF 5
