REMARK  4 active torsions:
REMARK  status: ('A' for Active; 'I' for Inactive)
REMARK    1  A    between atoms: C6_6  and  C12_15 
REMARK    2  A    between atoms: C12_15  and  N2_16 
REMARK    3  A    between atoms: N2_16  and  S1_17 
REMARK    4  A    between atoms: S1_17  and  N3_20 
ROOT
ATOM      1  C1  <0> d          -0.018   1.503   0.010  0.00  0.00     0.049 C 
ATOM      2  C2  <0> d           0.002  -0.004   0.002  0.00  0.00    -0.055 A 
ATOM      3  C3  <0> d           0.005  -0.675  -1.188  0.00  0.00     0.021 A 
ATOM      4  C4  <0> d           0.025  -2.073  -1.196  0.00  0.00    -0.008 A 
ATOM      5  C5  <0> d           0.029  -2.823  -2.454  0.00  0.00     0.028 A 
ATOM      6  C6  <0> d           0.048  -4.178  -2.399  0.00  0.00     0.029 A 
ATOM      7  C7  <0> d           0.063  -4.839  -1.153  0.00  0.00     0.253 A 
ATOM      8  O1  <0> d           0.080  -6.058  -1.127  0.00  0.00    -0.268 OA
ATOM      9  N1  <0> d           0.059  -4.159   0.007  0.00  0.00    -0.322 N 
ATOM     10  H1  <0> d           0.070  -4.645   0.846  0.00  0.00     0.169 HD
ATOM     11  C8  <0> d           0.040  -2.781   0.021  0.00  0.00     0.045 A 
ATOM     12  C9  <0> d           0.035  -2.077   1.220  0.00  0.00     0.037 A 
ATOM     13  C10 <0> d           0.023  -0.698   1.204  0.00  0.00    -0.054 A 
ATOM     14  C11 <0> d           0.025   0.063   2.505  0.00  0.00     0.049 C 
ENDROOT
BRANCH   6  15
ATOM     15  C12 <0> d           0.053  -4.980  -3.675  0.00  0.00     0.178 C 
BRANCH  15  16
ATOM     16  N2  <0> d           1.432  -5.323  -4.031  0.00  0.00    -0.298 N 
ATOM     17  H13 <0> d           2.172  -4.862  -3.605  0.00  0.00     0.174 HD
BRANCH  16  18
ATOM     18  S1  <0> d           1.728  -6.498  -5.160  0.00  0.00     0.316 S 
ATOM     19  O2  <0> d           3.140  -6.578  -5.302  0.00  0.00    -0.183 OA
ATOM     20  O3  <0> d           0.935  -7.620  -4.797  0.00  0.00    -0.183 OA
BRANCH  18  21
ATOM     21  N3  <0> d           1.137  -5.948  -6.606  0.00  0.00    -0.303 N 
ATOM     22  C13 <0> d           1.999  -5.174  -7.503  0.00  0.00     0.163 C 
ATOM     23  C14 <0> d          -0.248  -6.236  -6.987  0.00  0.00     0.163 C 
ENDBRANCH  18  21
ENDBRANCH  16  18
ENDBRANCH  15  16
ENDBRANCH   6  15
TORSDOF 4
