REMARK  4 active torsions:
REMARK  status: ('A' for Active; 'I' for Inactive)
REMARK    1  A    between atoms: N1_7  and  C5_8 
REMARK    2  A    between atoms: C5_8  and  C6_9 
REMARK       I    between atoms: C6_9  and  N2_11 
REMARK    3  A    between atoms: N2_11  and  S2_12 
REMARK    4  A    between atoms: S2_12  and  N3_15 
ROOT
ATOM      1  C6  <0> d          -1.393   0.178   2.916  0.00  0.00     0.250 C 
ATOM      2  O2  <0> d          -2.317  -0.202   2.228  0.00  0.00    -0.271 OA
ATOM      3  N2  <0> d          -1.636   0.792   4.091  0.00  0.00    -0.236 N 
ATOM      4  H6  <0> d          -0.897   1.096   4.641  0.00  0.00     0.183 HD
ENDROOT
BRANCH   1   5
ATOM      5  C5  <0> d           0.026  -0.038   2.458  0.00  0.00     0.236 C 
BRANCH   5   6
ATOM      6  N1  <0> d           0.023  -0.721   1.162  0.00  0.00    -0.303 N 
ATOM      7  C2  <0> d           0.002  -0.004   0.002  0.00  0.00     0.025 A 
ATOM      8  C1  <0> d          -0.018   1.503   0.010  0.00  0.00     0.069 C 
ATOM      9  C3  <0> d           0.006  -0.694  -1.142  0.00  0.00     0.006 A 
ATOM     10  S1  <0> d           0.032  -2.377  -0.554  0.00  0.00    -0.032 SA
ATOM     11  C11 <0> d          -0.008  -0.183  -2.560  0.00  0.00     0.058 C 
ATOM     12  C4  <0> d           0.035  -2.069   1.099  0.00  0.00     0.291 A 
ATOM     13  O1  <0> d           0.050  -2.869   2.018  0.00  0.00    -0.259 OA
ENDBRANCH   5   6
ENDBRANCH   1   5
BRANCH   3  14
ATOM     14  S2  <0> d          -3.196   1.029   4.594  0.00  0.00     0.323 S 
ATOM     15  O3  <0> d          -3.121   1.668   5.861  0.00  0.00    -0.182 OA
ATOM     16  O4  <0> d          -3.896   1.596   3.495  0.00  0.00    -0.182 OA
BRANCH  14  17
ATOM     17  N3  <0> d          -3.858  -0.466   4.856  0.00  0.00    -0.294 N 
ATOM     18  C10 <0> d          -3.829  -1.207   6.130  0.00  0.00     0.137 C 
ATOM     19  C9  <0> d          -5.044  -2.169   6.054  0.00  0.00     0.022 C 
ATOM     20  C8  <0> d          -5.026  -2.572   4.556  0.00  0.00     0.022 C 
ATOM     21  C7  <0> d          -4.567  -1.277   3.855  0.00  0.00     0.137 C 
ENDBRANCH  14  17
ENDBRANCH   3  14
TORSDOF 4
