REMARK  4 active torsions:
REMARK  status: ('A' for Active; 'I' for Inactive)
REMARK    1  A    between atoms: C3_3  and  S1_9 
REMARK    2  A    between atoms: S1_9  and  N3_12 
REMARK    3  A    between atoms: C9_16  and  C11_18 
REMARK    4  A    between atoms: C11_18  and  N4_19 
ROOT
ATOM      1  N3  <0> d           1.569  -0.072  -3.243  0.00  0.00    -0.306 N 
ATOM      2  C6  <0> d           2.269   1.206  -3.057  0.00  0.00     0.135 C 
ATOM      3  C7  <0> d           2.859   1.645  -4.401  0.00  0.00     0.021 C 
ATOM      4  C8  <0> d           3.737   0.523  -4.959  0.00  0.00     0.009 C 
ATOM      5  C9  <0> d           2.885  -0.727  -5.191  0.00  0.00     0.030 C 
ATOM      6  C10 <0> d           2.297  -1.194  -3.850  0.00  0.00     0.141 C 
ENDROOT
BRANCH   1   7
ATOM      7  S1  <0> d          -0.008  -0.247  -2.770  0.00  0.00     0.264 S 
ATOM      8  O1  <0> d          -0.548  -1.312  -3.541  0.00  0.00    -0.200 OA
ATOM      9  O2  <0> d          -0.578   1.055  -2.765  0.00  0.00    -0.200 OA
BRANCH   7  10
ATOM     10  C3  <0> d           0.008  -0.796  -1.095  0.00  0.00     0.129 A 
ATOM     11  C2  <0> d           0.002  -0.004   0.002  0.00  0.00     0.049 A 
ATOM     12  C1  <0> d          -0.018   1.503   0.010  0.00  0.00     0.071 C 
ATOM     13  N2  <0> d           0.024  -0.805   1.088  0.00  0.00    -0.281 N 
ATOM     14  N1  <0> d           0.035  -2.134   0.643  0.00  0.00    -0.178 NA
ATOM     15  H1  <0> d           0.029  -0.513   2.013  0.00  0.00     0.189 HD
ATOM     16  C4  <0> d           0.028  -2.127  -0.666  0.00  0.00     0.076 A 
ATOM     17  C5  <0> d           0.040  -3.343  -1.556  0.00  0.00     0.074 C 
ENDBRANCH   7  10
ENDBRANCH   1   7
BRANCH   5  18
ATOM     18  C11 <0> d           3.757  -1.838  -5.780  0.00  0.00     0.238 C 
BRANCH  18  19
ATOM     19  N4  <0> d           4.228  -1.436  -7.112  0.00  0.00    -0.079 N 
ATOM     20  C12 <0> d           5.065  -2.502  -7.678  0.00  0.00     0.267 C 
ATOM     21  H19 <0> d           3.434  -1.276  -7.715  0.00  0.00     0.276 HD
ATOM     22  H23 <0> d           4.769  -0.588  -7.036  0.00  0.00     0.276 HD
ENDBRANCH  18  19
ENDBRANCH   5  18
TORSDOF 4
