REMARK  5 active torsions:
REMARK  status: ('A' for Active; 'I' for Inactive)
REMARK    1  A    between atoms: C2_2  and  C3_3 
REMARK    2  A    between atoms: C3_3  and  N1_4 
REMARK    3  A    between atoms: N1_4  and  C4_5 
REMARK    4  A    between atoms: N2_7  and  N3_8 
REMARK    5  A    between atoms: N3_8  and  C5_9 
ROOT
ATOM      1  C5  <0> d           1.466  -4.275   4.268  0.00  0.00     0.722 C 
ATOM      2  N4  <0> d           2.548  -5.018   4.435  0.00  0.00    -0.026 NA
ATOM      3  C6  <0> d           2.688  -5.824   5.479  0.00  0.00     0.271 C 
ATOM      4  O1  <0> d           3.681  -6.520   5.567  0.00  0.00    -0.270 OA
ATOM      5  C7  <0> d           1.645  -5.892   6.552  0.00  0.00     0.141 C 
ATOM      6  C8  <0> d           0.414  -5.123   6.143  0.00  0.00     0.051 C 
ATOM      7  N5  <0> d           0.416  -4.347   5.099  0.00  0.00    -0.191 N 
ATOM      8  C9  <0> d          -0.806  -5.322   6.941  0.00  0.00    -0.006 A 
ATOM      9  C10 <0> d          -1.881  -4.437   6.812  0.00  0.00     0.014 A 
ATOM     10  C11 <0> d          -3.024  -4.636   7.558  0.00  0.00     0.001 A 
ATOM     11  C12 <0> d          -3.101  -5.709   8.429  0.00  0.00     0.001 A 
ATOM     12  C13 <0> d          -2.039  -6.584   8.563  0.00  0.00     0.008 A 
ATOM     13  C14 <0> d          -0.882  -6.400   7.828  0.00  0.00    -0.045 A 
ATOM     14  C15 <0> d           0.261  -7.359   8.016  0.00  0.00     0.050 C 
ATOM     15  C16 <0> d           1.207  -7.334   6.814  0.00  0.00    -0.019 C 
ATOM     16  C17 <0> d           0.504  -7.889   5.574  0.00  0.00     0.011 C 
ATOM     17  C18 <0> d           0.068  -9.331   5.837  0.00  0.00     0.001 C 
ATOM     18  C19 <0> d           1.296 -10.187   6.151  0.00  0.00     0.000 C 
ATOM     19  C20 <0> d           1.999  -9.633   7.392  0.00  0.00     0.001 C 
ATOM     20  C21 <0> d           2.436  -8.190   7.130  0.00  0.00     0.011 C 
ATOM     21  H25 <0> d          -0.368  -3.806   4.914  0.00  0.00     0.184 HD
ENDROOT
BRANCH   1  22
ATOM     22  N3  <0> d           1.419  -3.401   3.217  0.00  0.00    -0.128 N 
ATOM     23  H26 <0> d           0.635  -2.846   3.082  0.00  0.00     0.205 HD
BRANCH  22  24
ATOM     24  N2  <0> d           2.503  -3.308   2.335  0.00  0.00    -0.262 N 
ATOM     25  C4  <0> d           2.457  -2.447   1.299  0.00  0.00     0.187 C 
ATOM     26  S1  <0> d           3.782  -2.333   0.221  0.00  0.00    -0.040 SA
ATOM     27  H8  <0> d           3.287  -3.863   2.469  0.00  0.00     0.190 HD
BRANCH  25  28
ATOM     28  N1  <0> d           1.367  -1.676   1.111  0.00  0.00    -0.363 N 
ATOM     29  H7  <0> d           0.617  -1.740   1.722  0.00  0.00     0.162 HD
BRANCH  28  30
ATOM     30  C3  <0> d           1.317  -0.740  -0.015  0.00  0.00     0.148 C 
BRANCH  30  31
ATOM     31  C2  <0> d           0.002  -0.004   0.002  0.00  0.00    -0.018 C 
ATOM     32  C1  <0> d          -0.016   1.306   0.009  0.00  0.00     0.008 C 
ENDBRANCH  30  31
ENDBRANCH  28  30
ENDBRANCH  25  28
ENDBRANCH  22  24
ENDBRANCH   1  22
TORSDOF 5
