REMARK  5 active torsions:
REMARK  status: ('A' for Active; 'I' for Inactive)
REMARK    1  A    between atoms: C7_7  and  C16_18 
REMARK    2  A    between atoms: C7_7  and  O3_25 
REMARK    3  A    between atoms: N1_10  and  C9_11 
REMARK    4  A    between atoms: C9_11  and  N4_29 
REMARK    5  A    between atoms: C18_22  and  N3_24 
ROOT
ATOM      1  C1  <0> d           6.246   2.190  -1.022  0.00  0.00     0.001 A 
ATOM      2  C2  <0> d           7.209   1.200  -1.097  0.00  0.00     0.002 A 
ATOM      3  C3  <0> d           6.840  -0.123  -1.226  0.00  0.00     0.030 A 
ATOM      4  C4  <0> d           5.492  -0.472  -1.281  0.00  0.00     0.049 A 
ATOM      5  C5  <0> d           4.535   0.532  -1.205  0.00  0.00     0.014 A 
ATOM      6  C6  <0> d           4.905   1.851  -1.076  0.00  0.00     0.013 A 
ATOM      7  C7  <0> d           3.191  -0.155  -1.292  0.00  0.00     0.190 A 
ATOM      8  C8  <0> d           3.533  -1.624  -1.425  0.00  0.00     0.267 A 
ATOM      9  O1  <0> d           2.745  -2.541  -1.526  0.00  0.00    -0.269 OA
ATOM     10  N1  <0> d           4.876  -1.718  -1.408  0.00  0.00    -0.289 N 
ENDROOT
BRANCH   7  11
ATOM     11  C16 <0> d           2.378   0.094  -0.020  0.00  0.00     0.198 A 
ATOM     12  S1  <0> d           1.657   1.784  -0.004  0.00  0.00    -0.074 SA
ATOM     13  C18 <0> d          -0.016   1.319   0.009  0.00  0.00     0.164 A 
ATOM     14  N2  <0> d           0.002  -0.004   0.002  0.00  0.00    -0.189 NA
ATOM     15  C17 <0> d           1.092  -0.725  -0.012  0.00  0.00     0.263 A 
ATOM     16  O2  <0> d           1.082  -1.940  -0.018  0.00  0.00    -0.270 OA
BRANCH  13  17
ATOM     17  N3  <0> d          -1.107   2.137   0.019  0.00  0.00    -0.378 N 
ATOM     18  H20 <0> d          -1.999   1.756   0.022  0.00  0.00     0.158 HD
ATOM     19  H21 <0> d          -0.991   3.100   0.023  0.00  0.00     0.158 HD
ENDBRANCH  13  17
ENDBRANCH   7  11
BRANCH   7  20
ATOM     20  O3  <0> d           2.471   0.297  -2.441  0.00  0.00    -0.374 OA
ATOM     21  H22 <0> d           2.940   0.164  -3.276  0.00  0.00     0.211 HD
ENDBRANCH   7  20
BRANCH  10  22
ATOM     22  C9  <0> d           5.607  -2.983  -1.513  0.00  0.00     0.367 C 
BRANCH  22  23
ATOM     23  N4  <0> d           5.776  -3.518  -0.153  0.00  0.00    -0.055 N 
ATOM     24  C10 <0> d           6.914  -2.812   0.529  0.00  0.00     0.237 C 
ATOM     25  C11 <0> d           7.359  -3.503   1.788  0.00  0.00     0.028 C 
ATOM     26  C12 <0> d           8.560  -4.412   1.449  0.00  0.00     0.002 C 
ATOM     27  C13 <0> d           8.145  -5.659   0.815  0.00  0.00     0.002 C 
ATOM     28  C14 <0> d           7.412  -5.418  -0.521  0.00  0.00     0.028 C 
ATOM     29  C15 <0> d           5.997  -5.003  -0.220  0.00  0.00     0.237 C 
ATOM     30  H23 <0> d           4.918  -3.342   0.382  0.00  0.00     0.281 HD
ENDBRANCH  22  23
ENDBRANCH  10  22
TORSDOF 5
