REMARK  2 active torsions:
REMARK  status: ('A' for Active; 'I' for Inactive)
REMARK    1  A    between atoms: C4_4  and  O4_19 
REMARK    2  A    between atoms: C10_10  and  O1_13 
ROOT
ATOM      1  C1  <0> d          -0.018   1.509   0.010  0.00  0.00     0.043 C 
ATOM      2  C2  <0> d           0.002  -0.004   0.002  0.00  0.00    -0.085 C 
ATOM      3  C3  <0> d          -0.019  -0.627  -1.145  0.00  0.00     0.007 C 
ATOM      4  C4  <0> d           0.021  -2.117  -1.281  0.00  0.00     0.152 C 
ATOM      5  C5  <0> d          -1.259  -2.795  -0.815  0.00  0.00     0.086 C 
ATOM      6  C6  <0> d          -1.062  -3.990   0.130  0.00  0.00     0.147 C 
ATOM      7  C7  <0> d          -0.566  -3.804   1.512  0.00  0.00     0.069 C 
ATOM      8  C8  <0> d           0.898  -3.627   1.738  0.00  0.00    -0.058 C 
ATOM      9  C9  <0> d           1.753  -4.526   1.308  0.00  0.00     0.017 C 
ATOM     10  C10 <0> d           1.406  -2.445   2.518  0.00  0.00     0.146 C 
ATOM     11  C11 <0> d           1.440  -1.175   1.678  0.00  0.00     0.040 C 
ATOM     12  C12 <0> d           0.025  -0.751   1.305  0.00  0.00     0.036 C 
ATOM     13  O2  <0> d          -0.421  -4.971  -0.703  0.00  0.00    -0.311 OA
ATOM     14  C13 <0> d          -1.096  -4.895  -1.883  0.00  0.00     0.289 C 
ATOM     15  O3  <0> d          -1.128  -5.787  -2.699  0.00  0.00    -0.260 OA
ATOM     16  C14 <0> d          -1.774  -3.592  -2.036  0.00  0.00     0.017 C 
ATOM     17  C15 <0> d          -2.616  -3.189  -2.971  0.00  0.00     0.025 C 
ENDROOT
BRANCH   4  18
ATOM     18  O4  <0> d           1.181  -2.665  -0.680  0.00  0.00    -0.391 OA
ATOM     19  H20 <0> d           2.010  -2.341  -1.058  0.00  0.00     0.210 HD
ENDBRANCH   4  18
BRANCH  10  20
ATOM     20  O1  <0> d           2.725  -2.733   2.992  0.00  0.00    -0.391 OA
ATOM     21  H17 <0> d           2.775  -3.506   3.571  0.00  0.00     0.210 HD
ENDBRANCH  10  20
TORSDOF 2
