REMARK  3 active torsions:
REMARK  status: ('A' for Active; 'I' for Inactive)
REMARK    1  A    between atoms: C5_7  and  N3_11 
REMARK       I    between atoms: N3_11  and  C9_12 
REMARK    2  A    between atoms: C9_12  and  C10_14 
REMARK    3  A    between atoms: N4_18  and  C14_20 
ROOT
ATOM      1  N3  <0> d           1.018  -4.256  -1.118  0.00  0.00    -0.352 N 
ATOM      2  C9  <0> d           0.658  -5.157  -0.183  0.00  0.00     0.224 C 
ATOM      3  O1  <0> d          -0.470  -5.152   0.262  0.00  0.00    -0.273 OA
ATOM      4  H13 <0> d           1.921  -4.261  -1.474  0.00  0.00     0.163 HD
ENDROOT
BRANCH   1   5
ATOM      5  C5  <0> d           0.047  -3.270  -1.598  0.00  0.00     0.121 C 
ATOM      6  C3  <0> d           0.030  -2.081  -0.670  0.00  0.00     0.008 A 
ATOM      7  C2  <0> d           0.008  -0.789  -1.088  0.00  0.00     0.040 A 
ATOM      8  C4  <0> d           0.036  -2.082   0.723  0.00  0.00     0.150 A 
ATOM      9  N1  <0> d           0.002  -0.004   0.002  0.00  0.00    -0.278 N 
ATOM     10  C8  <0> d          -0.009  -0.369  -2.536  0.00  0.00     0.059 C 
ATOM     11  C1  <0> d          -0.018   1.461   0.010  0.00  0.00     0.179 C 
ATOM     12  N2  <0> d           0.025  -0.837   1.131  0.00  0.00    -0.184 NA
ATOM     13  C7  <0> d          -0.411  -1.580  -3.387  0.00  0.00     0.008 C 
ATOM     14  C6  <0> d           0.448  -2.786  -2.997  0.00  0.00     0.030 C 
ENDBRANCH   1   5
BRANCH   2  15
ATOM     15  C10 <0> d           1.657  -6.172   0.310  0.00  0.00     0.104 C 
ATOM     16  C13 <0> d           1.006  -7.145   1.317  0.00  0.00     0.141 C 
ATOM     17  N4  <0> d           1.623  -8.451   1.054  0.00  0.00    -0.347 N 
ATOM     18  C12 <0> d           2.229  -8.472  -0.146  0.00  0.00     0.221 C 
ATOM     19  C11 <0> d           2.081  -7.130  -0.827  0.00  0.00     0.118 C 
ATOM     20  O2  <0> d           2.811  -9.428  -0.613  0.00  0.00    -0.273 OA
BRANCH  17  21
ATOM     21  C14 <0> d           1.584  -9.585   1.980  0.00  0.00     0.087 A 
ATOM     22  C16 <0> d           0.926 -10.877   1.489  0.00  0.00     0.027 A 
ATOM     23  C15 <0> d           2.447 -10.803   1.643  0.00  0.00     0.027 A 
ENDBRANCH  17  21
ENDBRANCH   2  15
TORSDOF 3
