REMARK  3 active torsions:
REMARK  status: ('A' for Active; 'I' for Inactive)
REMARK    1  A    between atoms: C2_2  and  C3_3 
REMARK    2  A    between atoms: C2_2  and  N2_9 
REMARK       I    between atoms: N2_9  and  C8_10 
REMARK    3  A    between atoms: C8_10  and  C9_12 
ROOT
ATOM      1  C9  <0> d          -5.494   3.237   2.320  0.00  0.00     0.100 A 
ATOM      2  C10 <0> d          -6.577   3.934   2.825  0.00  0.00     0.036 A 
ATOM      3  C11 <0> d          -7.540   3.242   3.600  0.00  0.00    -0.008 A 
ATOM      4  C12 <0> d          -8.649   3.924   4.124  0.00  0.00     0.014 A 
ATOM      5  C13 <0> d          -9.571   3.249   4.869  0.00  0.00     0.001 A 
ATOM      6  C14 <0> d          -9.424   1.890   5.114  0.00  0.00     0.002 A 
ATOM      7  C15 <0> d          -8.344   1.199   4.610  0.00  0.00     0.030 A 
ATOM      8  C16 <0> d          -7.388   1.864   3.847  0.00  0.00     0.045 A 
ATOM      9  N3  <0> d          -6.306   1.176   3.341  0.00  0.00    -0.322 N 
ATOM     10  H2  <0> d          -6.194   0.101   3.544  0.00  0.00     0.169 HD
ATOM     11  C17 <0> d          -5.375   1.801   2.595  0.00  0.00     0.261 A 
ATOM     12  O2  <0> d          -4.430   1.175   2.153  0.00  0.00    -0.267 OA
ENDROOT
BRANCH   1  13
ATOM     13  C8  <0> d          -4.476   3.928   1.511  0.00  0.00     0.257 C 
ATOM     14  N2  <0> d          -3.487   3.223   0.927  0.00  0.00    -0.348 N 
ATOM     15  H10 <0> d          -3.391   2.144   1.123  0.00  0.00     0.163 HD
ATOM     16  O1  <0> d          -4.527   5.135   1.370  0.00  0.00    -0.267 OA
BRANCH  14  17
ATOM     17  C2  <0> d          -2.541   3.892   0.032  0.00  0.00     0.114 C 
ATOM     18  C1  <0> d          -3.130   3.954  -1.379  0.00  0.00     0.037 C 
BRANCH  17  19
ATOM     19  C3  <0> d          -1.246   3.120   0.001  0.00  0.00    -0.033 A 
ATOM     20  C7  <0> d          -0.027   3.780  -0.011  0.00  0.00     0.028 A 
ATOM     21  C6  <0> d           1.139   3.039  -0.039  0.00  0.00     0.116 A 
ATOM     22  N1  <0> d           1.101   1.721  -0.055  0.00  0.00    -0.273 NA
ATOM     23  C5  <0> d          -0.040   1.060  -0.044  0.00  0.00     0.116 A 
ATOM     24  C4  <0> d          -1.247   1.734  -0.021  0.00  0.00     0.028 A 
ENDBRANCH  17  19
ENDBRANCH  14  17
ENDBRANCH   1  13
TORSDOF 3
