REMARK  7 active torsions:
REMARK  status: ('A' for Active; 'I' for Inactive)
REMARK    1  A    between atoms: C2_2  and  C3_3 
REMARK    2  A    between atoms: C3_3  and  C4_4 
REMARK    3  A    between atoms: C3_3  and  N1_18 
REMARK    4  A    between atoms: C4_4  and  C5_5 
REMARK    5  A    between atoms: C4_4  and  O1_11 
REMARK    6  A    between atoms: O1_11  and  C9_12 
REMARK    7  A    between atoms: C9_12  and  C10_13 
ROOT
ATOM      1  C4  <0> d           0.979  -2.040  -1.142  0.00  0.00     0.192 C 
ENDROOT
BRANCH   1   2
ATOM      2  C3  <0> d           0.819  -0.607  -1.654  0.00  0.00     0.217 C 
BRANCH   2   3
ATOM      3  C2  <0> d          -0.130   0.161  -0.731  0.00  0.00     0.031 C 
ATOM      4  C1  <0> d          -0.181   1.629  -1.159  0.00  0.00     0.007 C 
ENDBRANCH   2   3
BRANCH   2   5
ATOM      5  N1  <0> d           0.265  -0.632  -3.014  0.00  0.00    -0.072 N 
ATOM      6  H15 <0> d           0.160   0.313  -3.352  0.00  0.00     0.274 HD
ATOM      7  H16 <0> d           0.891  -1.138  -3.623  0.00  0.00     0.274 HD
ATOM      8  H17 <0> d          -0.635  -1.088  -3.003  0.00  0.00     0.274 HD
ENDBRANCH   2   5
ENDBRANCH   1   2
BRANCH   1   9
ATOM      9  C5  <0> d           1.921  -2.794  -2.046  0.00  0.00     0.015 A 
ATOM     10  S1  <0> d           1.594  -3.553  -3.628  0.00  0.00    -0.102 SA
ATOM     11  C8  <0> d           3.233  -4.186  -3.947  0.00  0.00     0.069 A 
ATOM     12  C7  <0> d           3.908  -3.789  -2.839  0.00  0.00     0.018 A 
ATOM     13  C6  <0> d           3.235  -3.075  -1.865  0.00  0.00     0.037 A 
ATOM     14 Br1  <0> d           5.740  -4.205  -2.631  0.00  0.00    -0.051 Br
ENDBRANCH   1   9
BRANCH   1  15
ATOM     15  O1  <0> d          -0.294  -2.688  -1.134  0.00  0.00    -0.372 OA
BRANCH  15  16
ATOM     16  C9  <0> d          -0.892  -2.779   0.160  0.00  0.00     0.233 C 
BRANCH  16  17
ATOM     17  C10 <0> d          -2.257  -3.406   0.040  0.00  0.00     0.076 A 
ATOM     18  O2  <0> d          -3.410  -2.745  -0.157  0.00  0.00    -0.325 OA
ATOM     19  C13 <0> d          -4.425  -3.623  -0.217  0.00  0.00     0.142 A 
ATOM     20  C12 <0> d          -3.926  -4.861  -0.048  0.00  0.00     0.027 A 
ATOM     21  C11 <0> d          -2.529  -4.721   0.118  0.00  0.00     0.037 A 
ENDBRANCH  16  17
ENDBRANCH  15  16
ENDBRANCH   1  15
TORSDOF 7
