REMARK  4 active torsions:
REMARK  status: ('A' for Active; 'I' for Inactive)
REMARK    1  A    between atoms: N1_6  and  C7_8 
REMARK    2  A    between atoms: C10_11  and  N2_14 
REMARK    3  A    between atoms: N2_14  and  C13_15 
REMARK    4  A    between atoms: C13_15  and  C14_16 
ROOT
ATOM      1  C13 <0> d          -1.181  -2.185   0.002  0.00  0.00     0.164 C 
ENDROOT
BRANCH   1   2
ATOM      2  N2  <0> d          -1.201  -0.721   0.010  0.00  0.00    -0.385 N 
ATOM      3  H17 <0> d          -2.047  -0.247   0.021  0.00  0.00     0.160 HD
BRANCH   2   4
ATOM      4  C10 <0> d           0.002  -0.004   0.002  0.00  0.00     0.028 A 
ATOM      5  C9  <0> d          -0.017   1.384   0.010  0.00  0.00     0.031 A 
ATOM      6  C8  <0> d           1.170   2.091   0.002  0.00  0.00     0.026 A 
ATOM      7  C7  <0> d           2.381   1.413  -0.013  0.00  0.00     0.010 A 
ATOM      8  C12 <0> d           2.400   0.025  -0.021  0.00  0.00     0.026 A 
ATOM      9  C11 <0> d           1.214  -0.682  -0.013  0.00  0.00     0.031 A 
BRANCH   7  10
ATOM     10  N1  <0> d           3.584   2.130  -0.021  0.00  0.00    -0.283 NA
ATOM     11  C5  <0> d           3.335   3.577  -0.011  0.00  0.00     0.100 C 
ATOM     12  C4  <0> d           4.661   4.325  -0.166  0.00  0.00    -0.005 C 
ATOM     13  C3  <0> d           5.596   3.942   0.984  0.00  0.00     0.011 C 
ATOM     14  C25 <0> d           5.308   3.946  -1.499  0.00  0.00     0.011 C 
ATOM     15  C2  <0> d           5.800   2.424   0.981  0.00  0.00    -0.005 C 
ATOM     16  C1  <0> d           6.686   2.025   2.163  0.00  0.00     0.011 C 
ATOM     17  C6  <0> d           4.441   1.731   1.103  0.00  0.00     0.100 C 
ENDBRANCH   7  10
ENDBRANCH   2   4
ENDBRANCH   1   2
BRANCH   1  18
ATOM     18  C14 <0> d          -2.595  -2.707   0.013  0.00  0.00     0.028 A 
ATOM     19  C22 <0> d          -3.276  -2.862   1.237  0.00  0.00     0.253 A 
ATOM     20  N3  <0> d          -4.539  -3.319   1.289  0.00  0.00    -0.322 N 
ATOM     21  O1  <0> d          -2.707  -2.570   2.275  0.00  0.00    -0.268 OA
ATOM     22  C21 <0> d          -5.216  -3.666   0.137  0.00  0.00     0.048 A 
ATOM     23  H3  <0> d          -4.980  -3.411   2.148  0.00  0.00     0.169 HD
ATOM     24  C16 <0> d          -4.577  -3.534  -1.111  0.00  0.00    -0.006 A 
ATOM     25  C20 <0> d          -6.520  -4.141   0.193  0.00  0.00     0.070 A 
ATOM     26  C15 <0> d          -3.205  -3.031  -1.155  0.00  0.00     0.028 A 
ATOM     27  C17 <0> d          -5.257  -3.884  -2.284  0.00  0.00     0.053 A 
ATOM     28  C18 <0> d          -6.552  -4.353  -2.212  0.00  0.00     0.103 A 
ATOM     29  O3  <0> d          -7.202  -4.683  -3.363  0.00  0.00    -0.346 OA
ATOM     30  C19 <0> d          -7.185  -4.483  -0.972  0.00  0.00     0.104 A 
ATOM     31  C24 <0> d          -8.369  -5.501  -3.230  0.00  0.00     0.202 C 
ATOM     32  C23 <0> d          -9.231  -4.928  -2.098  0.00  0.00     0.202 C 
ATOM     33  O2  <0> d          -8.461  -4.949  -0.892  0.00  0.00    -0.346 OA
ENDBRANCH   1  18
TORSDOF 4
