REMARK  3 active torsions:
REMARK  status: ('A' for Active; 'I' for Inactive)
REMARK    1  A    between atoms: N2_6  and  C8_12 
REMARK    2  A    between atoms: C8_12  and  C9_13 
REMARK       I    between atoms: C9_13  and  N4_15 
REMARK    3  A    between atoms: N4_15  and  C10_16 
ROOT
ATOM      1  C9  <0> d           5.716  -2.132  -0.155  0.00  0.00     0.238 C 
ATOM      2  O2  <0> d           5.037  -1.708  -1.066  0.00  0.00    -0.272 OA
ATOM      3  N4  <0> d           6.838  -2.830  -0.418  0.00  0.00    -0.353 N 
ATOM      4  H13 <0> d           7.381  -3.170   0.310  0.00  0.00     0.163 HD
ENDROOT
BRANCH   1   5
ATOM      5  C8  <0> d           5.305  -1.878   1.273  0.00  0.00     0.259 C 
BRANCH   5   6
ATOM      6  N2  <0> d           4.061  -1.103   1.292  0.00  0.00    -0.209 N 
ATOM      7  N1  <0> d           3.954   0.297   1.304  0.00  0.00    -0.154 NA
ATOM      8  C4  <0> d           2.706   0.601   1.320  0.00  0.00     0.130 A 
ATOM      9  C3  <0> d           2.068   1.975   1.336  0.00  0.00     0.081 C 
ATOM     10  N3  <0> d           1.962  -0.566   1.319  0.00  0.00    -0.284 N 
ATOM     11  C2  <0> d           1.340   2.166   0.001  0.00  0.00     0.008 C 
ATOM     12  C1  <0> d          -0.018   1.506   0.010  0.00  0.00     0.002 C 
ATOM     13  C7  <0> d           0.002  -0.004   0.002  0.00  0.00     0.020 C 
ATOM     14  C6  <0> d           0.490  -0.573   1.338  0.00  0.00     0.135 C 
ATOM     15  C5  <0> d           2.805  -1.605   1.301  0.00  0.00     0.346 A 
ATOM     16  O1  <0> d           2.499  -2.784   1.294  0.00  0.00    -0.245 OA
ENDBRANCH   5   6
ENDBRANCH   1   5
BRANCH   3  17
ATOM     17  C10 <0> d           7.238  -3.077  -1.806  0.00  0.00     0.116 C 
ATOM     18  C13 <0> d           8.109  -4.334  -1.898  0.00  0.00     0.210 C 
ATOM     19  N5  <0> d           9.493  -3.817  -1.731  0.00  0.00    -0.065 N 
ATOM     20  C14 <0> d           7.860  -5.349  -0.792  0.00  0.00     0.035 C 
ATOM     21  C12 <0> d           9.523  -2.629  -2.599  0.00  0.00     0.237 C 
ATOM     22  C17 <0> d          10.418  -4.880  -2.100  0.00  0.00     0.235 C 
ATOM     23  H28 <0> d           9.649  -3.544  -0.772  0.00  0.00     0.280 HD
ATOM     24  C11 <0> d           8.161  -1.941  -2.316  0.00  0.00     0.055 C 
ATOM     25  C16 <0> d          10.278  -6.005  -1.064  0.00  0.00     0.028 C 
ATOM     26  C15 <0> d           8.838  -6.515  -1.009  0.00  0.00     0.004 C 
ENDBRANCH   3  17
TORSDOF 3
