REMARK  6 active torsions:
REMARK  status: ('A' for Active; 'I' for Inactive)
REMARK    1  A    between atoms: C2_2  and  C3_3 
REMARK    2  A    between atoms: C2_2  and  S1_9 
REMARK       I    between atoms: C3_3  and  N1_5 
REMARK    3  A    between atoms: N1_5  and  C4_6 
REMARK    4  A    between atoms: S1_9  and  C7_10 
REMARK    5  A    between atoms: C7_10  and  C8_11 
REMARK    6  A    between atoms: C8_11  and  N2_12 
ROOT
ATOM      1  C7  <0> d          -0.166  -0.072   2.855  0.00  0.00     0.095 C 
ENDROOT
BRANCH   1   2
ATOM      2  S1  <0> d           0.879  -0.605   1.472  0.00  0.00    -0.153 SA
BRANCH   2   3
ATOM      3  C2  <0> d           0.002  -0.004   0.002  0.00  0.00     0.135 C 
ATOM      4  C1  <0> d          -0.019   1.526   0.010  0.00  0.00     0.031 C 
BRANCH   3   5
ATOM      5  C3  <0> d           0.707  -0.490  -1.238  0.00  0.00     0.231 C 
ATOM      6  O1  <0> d           1.864  -0.849  -1.176  0.00  0.00    -0.272 OA
ATOM      7  N1  <0> d           0.053  -0.526  -2.415  0.00  0.00    -0.355 N 
ATOM      8  H5  <0> d          -0.873  -0.239  -2.465  0.00  0.00     0.162 HD
BRANCH   7   9
ATOM      9  C4  <0> d           0.738  -0.999  -3.621  0.00  0.00     0.084 A 
ATOM     10  C6  <0> d          -0.125  -1.571  -4.746  0.00  0.00     0.027 A 
ATOM     11  C5  <0> d           0.533  -0.199  -4.909  0.00  0.00     0.027 A 
ENDBRANCH   7   9
ENDBRANCH   3   5
ENDBRANCH   2   3
ENDBRANCH   1   2
BRANCH   1  12
ATOM     12  C8  <0> d           0.467  -0.520   4.174  0.00  0.00     0.147 C 
BRANCH  12  13
ATOM     13  N2  <0> d          -0.377  -0.089   5.292  0.00  0.00    -0.267 N 
ATOM     14  C11 <0> d          -1.370  -0.821   5.809  0.00  0.00     0.326 A 
ATOM     15  N3  <0> d          -1.989  -0.200   6.830  0.00  0.00    -0.325 N 
ATOM     16  O3  <0> d          -1.677  -1.925   5.405  0.00  0.00    -0.247 OA
ATOM     17  C10 <0> d          -1.323   1.104   6.995  0.00  0.00     0.108 A 
ATOM     18  H15 <0> d          -2.730  -0.542   7.353  0.00  0.00     0.165 HD
ATOM     19  C9  <0> d          -0.253   1.096   5.921  0.00  0.00     0.255 A 
ATOM     20  C12 <0> d          -2.312   2.247   6.760  0.00  0.00     0.049 C 
ATOM     21  C13 <0> d          -0.692   1.213   8.384  0.00  0.00     0.049 C 
ATOM     22  O2  <0> d           0.548   1.973   5.680  0.00  0.00    -0.270 OA
ENDBRANCH  12  13
ENDBRANCH   1  12
TORSDOF 6
