REMARK  5 active torsions:
REMARK  status: ('A' for Active; 'I' for Inactive)
REMARK    1  A    between atoms: N1_12  and  C11_15 
REMARK    2  A    between atoms: C11_15  and  C12_16 
REMARK    3  A    between atoms: C12_16  and  C13_18 
REMARK    4  A    between atoms: C16_21  and  O5_25 
REMARK    5  A    between atoms: C18_23  and  O4_24 
ROOT
ATOM      1  C1  <0> d          10.086  -2.975  -0.084  0.00  0.00     0.001 A 
ATOM      2  C2  <0> d          10.182  -3.005  -1.468  0.00  0.00     0.003 A 
ATOM      3  C3  <0> d           9.109  -2.643  -2.254  0.00  0.00     0.038 A 
ATOM      4  C4  <0> d           7.916  -2.244  -1.663  0.00  0.00     0.089 A 
ATOM      5  C5  <0> d           7.821  -2.215  -0.262  0.00  0.00     0.030 A 
ATOM      6  C6  <0> d           8.913  -2.583   0.521  0.00  0.00     0.017 A 
ATOM      7  C7  <0> d           6.456  -1.757   0.036  0.00  0.00     0.110 A 
ATOM      8  C8  <0> d           5.849  -1.551  -1.199  0.00  0.00     0.173 A 
ATOM      9  O1  <0> d           6.732  -1.846  -2.175  0.00  0.00    -0.302 OA
ATOM     10  C9  <0> d           4.508  -1.105  -1.216  0.00  0.00     0.285 A 
ATOM     11  O2  <0> d           3.927  -0.914  -2.272  0.00  0.00    -0.265 OA
ATOM     12  N1  <0> d           3.885  -0.892  -0.037  0.00  0.00    -0.299 N 
ATOM     13  C10 <0> d           4.534  -1.112   1.133  0.00  0.00     0.213 A 
ATOM     14  N2  <0> d           5.769  -1.528   1.167  0.00  0.00    -0.240 NA
ENDROOT
BRANCH  12  15
ATOM     15  C11 <0> d           2.496  -0.426  -0.022  0.00  0.00     0.217 C 
BRANCH  15  16
ATOM     16  C12 <0> d           2.472   1.081  -0.015  0.00  0.00     0.180 C 
ATOM     17  O3  <0> d           3.513   1.704  -0.021  0.00  0.00    -0.290 OA
BRANCH  16  18
ATOM     18  C13 <0> d           1.192   1.792   0.000  0.00  0.00     0.045 A 
ATOM     19  C18 <0> d           1.165   3.199   0.008  0.00  0.00     0.082 A 
ATOM     20  C17 <0> d          -0.051   3.860   0.022  0.00  0.00     0.074 A 
ATOM     21  C16 <0> d          -1.233   3.134   0.030  0.00  0.00     0.068 A 
ATOM     22  C15 <0> d          -1.204   1.741   0.017  0.00  0.00     0.037 A 
ATOM     23  C14 <0> d          -0.013   1.076   0.008  0.00  0.00     0.021 A 
BRANCH  19  24
ATOM     24  O4  <0> d           2.324   3.903   0.001  0.00  0.00    -0.360 OA
ATOM     25  H11 <0> d           2.300   5.003   0.006  0.00  0.00     0.217 HD
ENDBRANCH  19  24
BRANCH  21  26
ATOM     26  O5  <0> d          -2.424   3.783   0.044  0.00  0.00    -0.361 OA
ATOM     27  H12 <0> d          -2.450   4.883   0.054  0.00  0.00     0.217 HD
ENDBRANCH  21  26
ENDBRANCH  16  18
ENDBRANCH  15  16
ENDBRANCH  12  15
TORSDOF 5
