REMARK  3 active torsions:
REMARK  status: ('A' for Active; 'I' for Inactive)
REMARK    1  A    between atoms: C5_5  and  S1_7 
REMARK    2  A    between atoms: S1_7  and  N1_10 
REMARK    3  A    between atoms: C12_16  and  N3_19 
ROOT
ATOM      1  N1  <0> d           1.792  -2.937  -1.466  0.00  0.00    -0.244 N 
ATOM      2  C7  <0> d           2.951  -3.650  -1.605  0.00  0.00     0.112 A 
ATOM      3  C8  <0> d           3.181  -3.901  -2.904  0.00  0.00     0.052 A 
ATOM      4  C9  <0> d           2.080  -3.300  -3.660  0.00  0.00     0.085 A 
ATOM      5  C10 <0> d           1.232  -2.711  -2.703  0.00  0.00     0.081 A 
ATOM      6  C11 <0> d           0.081  -2.058  -3.131  0.00  0.00     0.064 A 
ATOM      7  C12 <0> d          -0.185  -2.019  -4.493  0.00  0.00     0.050 A 
ATOM      8  C13 <0> d           0.699  -2.627  -5.382  0.00  0.00     0.146 A 
ATOM      9  N2  <0> d           1.786  -3.232  -4.955  0.00  0.00    -0.257 NA
ENDROOT
BRANCH   1  10
ATOM     10  S1  <0> d           1.154  -2.429  -0.024  0.00  0.00     0.271 S 
ATOM     11  O1  <0> d           2.056  -2.849   0.990  0.00  0.00    -0.200 OA
ATOM     12  O2  <0> d          -0.216  -2.808  -0.030  0.00  0.00    -0.200 OA
BRANCH  10  13
ATOM     13  C5  <0> d           1.188  -0.667  -0.032  0.00  0.00     0.113 A 
ATOM     14  C4  <0> d           2.429   0.021  -0.052  0.00  0.00     0.140 A 
ATOM     15  C3  <0> d           2.414   1.497  -0.058  0.00  0.00     0.119 A 
ATOM     16  N5  <0> d           3.680  -0.374  -0.069  0.00  0.00    -0.101 NA
ATOM     17  C2  <0> d           1.161   2.161  -0.042  0.00  0.00     0.036 A 
ATOM     18  N6  <0> d           3.658   1.917  -0.077  0.00  0.00    -0.103 NA
ATOM     19  C1  <0> d           0.019   1.436  -0.022  0.00  0.00     0.004 A 
ATOM     20  C6  <0> d           0.032   0.036  -0.017  0.00  0.00     0.028 A 
ATOM     21  O3  <0> d           4.503   0.779  -0.085  0.00  0.00    -0.106 OA
ENDBRANCH  10  13
ENDBRANCH   1  10
BRANCH   7  22
ATOM     22  N3  <0> d          -1.331  -1.374  -4.970  0.00  0.00    -0.376 N 
ATOM     23  C17 <0> d          -2.336  -0.835  -4.041  0.00  0.00     0.150 C 
ATOM     24  C16 <0> d          -3.716  -1.337  -4.466  0.00  0.00     0.252 C 
ATOM     25  N4  <0> d          -3.948  -0.998  -5.876  0.00  0.00    -0.072 N 
ATOM     26  C15 <0> d          -2.986  -1.710  -6.727  0.00  0.00     0.252 C 
ATOM     27  H12 <0> d          -3.836  -0.003  -6.004  0.00  0.00     0.277 HD
ATOM     28  H17 <0> d          -4.886  -1.264  -6.135  0.00  0.00     0.277 HD
ATOM     29  C14 <0> d          -1.568  -1.222  -6.413  0.00  0.00     0.150 C 
ENDBRANCH   7  22
TORSDOF 3
