REMARK  8 active torsions:
REMARK  status: ('A' for Active; 'I' for Inactive)
REMARK       I    between atoms: N1_2  and  C3_4 
REMARK    1  A    between atoms: C3_4  and  C4_6 
REMARK    2  A    between atoms: N2_10  and  C8_11 
REMARK    3  A    between atoms: C8_11  and  C9_12 
REMARK       I    between atoms: C9_12  and  N3_14 
REMARK    4  A    between atoms: N3_14  and  C10_15 
REMARK    5  A    between atoms: C11_16  and  C18_24 
REMARK       I    between atoms: C18_24  and  N4_26 
REMARK    6  A    between atoms: N4_26  and  C19_27 
REMARK    7  A    between atoms: C19_27  and  C20_28 
REMARK    8  A    between atoms: C20_28  and  O4_29 
ROOT
ATOM      1  C10 <0> d          -0.310  -1.725  -0.995  0.00  0.00     0.093 A 
ATOM      2  C11 <0> d          -1.658  -1.449  -1.170  0.00  0.00     0.073 A 
ATOM      3  C12 <0> d          -2.046  -0.055  -1.303  0.00  0.00    -0.026 A 
ATOM      4  C13 <0> d          -1.030   0.833  -1.240  0.00  0.00    -0.008 A 
ATOM      5  S1  <0> d           0.420  -0.154  -1.008  0.00  0.00    -0.075 SA
ATOM      6  C14 <0> d          -1.126   2.324  -1.346  0.00  0.00     0.047 C 
ATOM      7  C15 <0> d          -2.509   2.681  -1.912  0.00  0.00     0.005 C 
ATOM      8  C16 <0> d          -3.574   1.895  -1.142  0.00  0.00     0.005 C 
ATOM      9  C17 <0> d          -3.485   0.410  -1.494  0.00  0.00     0.041 C 
ENDROOT
BRANCH   1  10
ATOM     10  N3  <0> d           0.304  -2.960  -0.846  0.00  0.00    -0.319 N 
ATOM     11  C9  <0> d           1.640  -3.033  -0.685  0.00  0.00     0.248 C 
ATOM     12  O2  <0> d           2.306  -2.019  -0.670  0.00  0.00    -0.271 OA
ATOM     13  H16 <0> d          -0.299  -3.879  -0.860  0.00  0.00     0.169 HD
BRANCH  11  14
ATOM     14  C8  <0> d           2.308  -4.374  -0.523  0.00  0.00     0.338 C 
BRANCH  14  15
ATOM     15  N2  <0> d           3.756  -4.185  -0.365  0.00  0.00    -0.050 N 
ATOM     16  C4  <0> d           4.472  -5.474  -0.460  0.00  0.00     0.280 C 
ATOM     17  C5  <0> d           5.673  -5.332   0.509  0.00  0.00     0.045 C 
ATOM     18  C6  <0> d           5.045  -4.514   1.668  0.00  0.00     0.030 C 
ATOM     19  C7  <0> d           4.069  -3.568   0.937  0.00  0.00     0.236 C 
ATOM     20  H33 <0> d           4.080  -3.517  -1.178  0.00  0.00     0.281 HD
BRANCH  16  21
ATOM     21  C3  <0> d           4.959  -5.702  -1.868  0.00  0.00     0.250 C 
ATOM     22  N1  <0> d           5.184  -6.956  -2.308  0.00  0.00    -0.359 N 
ATOM     23  C1  <0> d           5.759  -7.173  -3.638  0.00  0.00     0.152 C 
ATOM     24  C2  <0> d           4.854  -8.102  -1.457  0.00  0.00     0.152 C 
ATOM     25  O1  <0> d           5.147  -4.758  -2.605  0.00  0.00    -0.271 OA
ENDBRANCH  16  21
ENDBRANCH  14  15
ENDBRANCH  11  14
ENDBRANCH   1  10
BRANCH   2  26
ATOM     26  C18 <0> d          -2.655  -2.523  -1.220  0.00  0.00     0.255 C 
ATOM     27  O3  <0> d          -2.946  -3.035  -2.285  0.00  0.00    -0.268 OA
ATOM     28  N4  <0> d          -3.248  -2.945  -0.085  0.00  0.00    -0.355 N 
ATOM     29  H25 <0> d          -2.984  -2.482   0.878  0.00  0.00     0.162 HD
BRANCH  28  30
ATOM     30  C19 <0> d          -4.243  -4.018  -0.134  0.00  0.00     0.149 C 
BRANCH  30  31
ATOM     31  C20 <0> d          -4.757  -4.302   1.279  0.00  0.00     0.186 C 
BRANCH  31  32
ATOM     32  O4  <0> d          -5.459  -3.158   1.770  0.00  0.00    -0.394 OA
ATOM     33  C21 <0> d          -5.982  -3.319   3.090  0.00  0.00     0.201 C 
ENDBRANCH  31  32
ENDBRANCH  30  31
ENDBRANCH  28  30
ENDBRANCH   2  26
TORSDOF 8
