REMARK  4 active torsions:
REMARK  status: ('A' for Active; 'I' for Inactive)
REMARK    1  A    between atoms: C7_7  and  N1_8 
REMARK       I    between atoms: N1_8  and  C8_9 
REMARK    2  A    between atoms: C8_9  and  C9_11 
REMARK    3  A    between atoms: C10_12  and  C16_21 
REMARK    4  A    between atoms: C19_24  and  O2_27 
ROOT
ATOM      1  C9  <0> d           0.146   0.110  -4.878  0.00  0.00     0.170 C 
ATOM      2  C10 <0> d           0.901  -0.720  -5.928  0.00  0.00     0.133 C 
ATOM      3  N2  <0> d           0.366  -2.077  -6.002  0.00  0.00    -0.222 NA
ATOM      4  N3  <0> d          -0.936  -2.159  -6.391  0.00  0.00    -0.275 N 
ATOM      5  C11 <0> d          -1.542  -3.239  -6.983  0.00  0.00     0.026 A 
ATOM      6  C12 <0> d          -2.842  -2.946  -7.185  0.00  0.00     0.029 A 
ATOM      7  C13 <0> d          -3.063  -1.634  -6.712  0.00  0.00     0.040 A 
ATOM      8  C14 <0> d          -1.887  -1.180  -6.244  0.00  0.00     0.088 A 
ATOM      9  S1  <0> d          -1.531   0.404  -5.540  0.00  0.00    -0.094 SA
ATOM     10  C15 <0> d          -0.866  -4.536  -7.347  0.00  0.00     0.070 C 
ATOM     11  H11 <0> d           0.953  -2.667  -6.573  0.00  0.00     0.148 HD
ENDROOT
BRANCH   1  12
ATOM     12  C8  <0> d           0.061  -0.653  -3.582  0.00  0.00     0.238 C 
ATOM     13  N1  <0> d          -0.033   0.011  -2.413  0.00  0.00    -0.326 N 
ATOM     14  H10 <0> d          -0.127   0.977  -2.410  0.00  0.00     0.169 HD
ATOM     15  O1  <0> d           0.078  -1.866  -3.590  0.00  0.00    -0.272 OA
BRANCH  13  16
ATOM     16  C7  <0> d           0.005  -0.692  -1.203  0.00  0.00     0.040 A 
ATOM     17  C2  <0> d          -0.580  -0.151  -0.066  0.00  0.00    -0.035 A 
ATOM     18  C1  <0> d          -1.256   1.194  -0.133  0.00  0.00     0.050 C 
ATOM     19  C3  <0> d          -0.546  -0.850   1.125  0.00  0.00     0.009 A 
ATOM     20  C4  <0> d           0.075  -2.084   1.187  0.00  0.00     0.001 A 
ATOM     21  C5  <0> d           0.662  -2.623   0.057  0.00  0.00     0.002 A 
ATOM     22  C6  <0> d           0.631  -1.930  -1.137  0.00  0.00     0.030 A 
ENDBRANCH  13  16
ENDBRANCH   1  12
BRANCH   2  23
ATOM     23  C16 <0> d           2.360  -0.782  -5.555  0.00  0.00    -0.037 A 
ATOM     24  C21 <0> d           3.269   0.052  -6.180  0.00  0.00     0.011 A 
ATOM     25  C20 <0> d           4.606  -0.003  -5.840  0.00  0.00     0.037 A 
ATOM     26  C19 <0> d           5.038  -0.896  -4.869  0.00  0.00     0.068 A 
ATOM     27  C18 <0> d           4.124  -1.732  -4.244  0.00  0.00     0.037 A 
ATOM     28  C17 <0> d           2.787  -1.669  -4.583  0.00  0.00     0.011 A 
BRANCH  26  29
ATOM     29  O2  <0> d           6.353  -0.952  -4.532  0.00  0.00    -0.356 OA
ATOM     30  C22 <0> d           6.726  -1.895  -3.525  0.00  0.00     0.210 C 
ENDBRANCH  26  29
ENDBRANCH   2  23
TORSDOF 4
