REMARK  8 active torsions:
REMARK  status: ('A' for Active; 'I' for Inactive)
REMARK    1  A    between atoms: C2_2  and  C3_3 
REMARK    2  A    between atoms: C3_3  and  N1_4 
REMARK    3  A    between atoms: C5_10  and  S1_11 
REMARK    4  A    between atoms: S1_11  and  C6_12 
REMARK    5  A    between atoms: C6_12  and  C7_13 
REMARK    6  A    between atoms: C6_12  and  C11_19 
REMARK    7  A    between atoms: C11_19  and  C12_20 
REMARK    8  A    between atoms: C11_19  and  N4_22 
ROOT
ATOM      1  C6  <0> d          -1.345  -3.820   3.889  0.00  0.00     0.125 C 
ENDROOT
BRANCH   1   2
ATOM      2  S1  <0> d          -1.484  -2.257   2.978  0.00  0.00    -0.078 SA
BRANCH   2   3
ATOM      3  C5  <0> d          -3.199  -1.865   3.065  0.00  0.00     0.192 A 
ATOM      4  N1  <0> d          -3.782  -0.707   2.602  0.00  0.00    -0.276 N 
ATOM      5  C4  <0> d          -5.107  -0.774   2.840  0.00  0.00     0.344 A 
ATOM      6  O1  <0> d          -5.934   0.075   2.557  0.00  0.00    -0.245 OA
ATOM      7  N2  <0> d          -5.352  -1.953   3.448  0.00  0.00    -0.226 N 
ATOM      8  H1  <0> d          -6.217  -2.280   3.740  0.00  0.00     0.194 HD
ATOM      9  N3  <0> d          -4.126  -2.620   3.580  0.00  0.00    -0.145 NA
BRANCH   4  10
ATOM     10  C3  <0> d          -3.083   0.406   1.955  0.00  0.00     0.135 C 
BRANCH  10  11
ATOM     11  C2  <0> d          -3.045   0.175   0.443  0.00  0.00     0.016 C 
ATOM     12  C1  <0> d          -2.315   1.337  -0.233  0.00  0.00     0.006 C 
ENDBRANCH  10  11
ENDBRANCH   4  10
ENDBRANCH   2   3
ENDBRANCH   1   2
BRANCH   1  13
ATOM     13  C7  <0> d          -1.621  -3.575   5.351  0.00  0.00    -0.000 A 
ATOM     14  S2  <0> d          -0.759  -2.508   6.494  0.00  0.00    -0.104 SA
ATOM     15  C10 <0> d          -1.747  -2.842   7.943  0.00  0.00     0.069 A 
ATOM     16  C9  <0> d          -2.648  -3.737   7.468  0.00  0.00     0.018 A 
ATOM     17  C8  <0> d          -2.583  -4.113   6.139  0.00  0.00     0.035 A 
ATOM     18 Br1  <0> d          -3.974  -4.460   8.606  0.00  0.00    -0.051 Br
ENDBRANCH   1  13
BRANCH   1  19
ATOM     19  C11 <0> d           0.069  -4.382   3.724  0.00  0.00     0.202 C 
BRANCH  19  20
ATOM     20  C12 <0> d           0.320  -4.706   2.250  0.00  0.00     0.030 C 
ATOM     21  C13 <0> d           1.774  -5.142   2.065  0.00  0.00     0.007 C 
ENDBRANCH  19  20
BRANCH  19  22
ATOM     22  N4  <0> d           0.204  -5.607   4.524  0.00  0.00    -0.074 N 
ATOM     23  H18 <0> d          -0.468  -6.290   4.210  0.00  0.00     0.274 HD
ATOM     24  H19 <0> d           1.136  -5.978   4.416  0.00  0.00     0.274 HD
ATOM     25  H20 <0> d           0.039  -5.394   5.497  0.00  0.00     0.274 HD
ENDBRANCH  19  22
ENDBRANCH   1  19
TORSDOF 8
