REMARK  3 active torsions:
REMARK  status: ('A' for Active; 'I' for Inactive)
REMARK    1  A    between atoms: C2_2  and  S1_3 
REMARK    2  A    between atoms: S1_3  and  C3_4 
REMARK    3  A    between atoms: C7_8  and  N1_9 
ROOT
ATOM      1  C3  <0> d          -3.564  -0.134  -0.010  0.00  0.00     0.092 A 
ATOM      2  C4  <0> d          -3.825  -1.510  -0.130  0.00  0.00     0.085 A 
ATOM      3  C5  <0> d          -2.744  -2.403  -0.206  0.00  0.00    -0.021 A 
ATOM      4  C6  <0> d          -1.467  -1.898  -0.163  0.00  0.00     0.014 A 
ATOM      5  C7  <0> d          -1.284  -0.518  -0.043  0.00  0.00     0.092 A 
ATOM      6  C12 <0> d          -0.258  -2.791  -0.245  0.00  0.00     0.277 C 
ATOM      7  C13 <0> d          -1.752  -4.601  -0.801  0.00  0.00     0.124 C 
ATOM      8  C14 <0> d          -3.015  -3.878  -0.328  0.00  0.00     0.079 C 
ATOM      9  C15 <0> d          -1.463  -4.232  -2.258  0.00  0.00     0.046 C 
ATOM     10  C16 <0> d          -1.947  -6.114  -0.683  0.00  0.00     0.046 C 
ATOM     11  C17 <0> d           0.525  -5.077  -0.121  0.00  0.00     0.271 C 
ATOM     12  C18 <0> d          -5.172  -1.994  -0.174  0.00  0.00     0.103 C 
ATOM     13  N2  <0> d          -6.241  -2.377  -0.210  0.00  0.00    -0.191 NA
ATOM     14  N3  <0> d          -2.303   0.385   0.043  0.00  0.00    -0.340 N 
ATOM     15  H27 <0> d          -2.131   1.393   0.140  0.00  0.00     0.167 HD
ATOM     16  N4  <0> d          -0.637  -4.179   0.070  0.00  0.00    -0.062 N 
ATOM     17  H28 <0> d          -0.939  -4.230   1.050  0.00  0.00     0.280 HD
ENDROOT
BRANCH   1  18
ATOM     18  S1  <0> d          -4.902   1.008   0.089  0.00  0.00    -0.111 SA
BRANCH  18  19
ATOM     19  C2  <0> d          -3.982   2.560   0.225  0.00  0.00     0.076 C 
ATOM     20  C1  <0> d          -4.964   3.729   0.327  0.00  0.00     0.016 C 
ENDBRANCH  18  19
ENDBRANCH   1  18
BRANCH   5  21
ATOM     21  N1  <0> d           0.002  -0.004   0.002  0.00  0.00    -0.265 NA
ATOM     22  C11 <0> d           0.249   0.688   1.275  0.00  0.00     0.123 C 
ATOM     23  C10 <0> d           1.696   1.187   1.306  0.00  0.00     0.182 C 
ATOM     24  O1  <0> d           1.928   2.032   0.177  0.00  0.00    -0.389 OA
ATOM     25  C9  <0> d           1.698   1.390  -1.080  0.00  0.00     0.182 C 
ATOM     26  C8  <0> d           0.250   0.894  -1.135  0.00  0.00     0.123 C 
ENDBRANCH   5  21
TORSDOF 3
