REMARK  8 active torsions:
REMARK  status: ('A' for Active; 'I' for Inactive)
REMARK    1  A    between atoms: C2_2  and  C3_3 
REMARK    2  A    between atoms: C6_6  and  N1_9 
REMARK    3  A    between atoms: N1_9  and  C9_10 
REMARK    4  A    between atoms: C10_11  and  N6_30 
REMARK    5  A    between atoms: C11_12  and  N4_16 
REMARK    6  A    between atoms: N4_16  and  C13_17 
REMARK    7  A    between atoms: N4_16  and  C20_24 
REMARK    8  A    between atoms: C13_17  and  C14_18 
ROOT
ATOM      1  C9  <0> d           3.952  -1.957  -4.787  0.00  0.00     0.137 A 
ATOM      2  C10 <0> d           4.673  -2.288  -5.937  0.00  0.00     0.117 A 
ATOM      3  C11 <0> d           6.060  -2.406  -5.833  0.00  0.00     0.163 A 
ATOM      4  N2  <0> d           6.638  -2.201  -4.652  0.00  0.00    -0.224 NA
ATOM      5  C12 <0> d           5.920  -1.891  -3.591  0.00  0.00     0.211 A 
ATOM      6  N3  <0> d           4.610  -1.764  -3.647  0.00  0.00    -0.335 N 
ATOM      7  H25 <0> d           4.117  -1.530  -2.845  0.00  0.00     0.168 HD
ENDROOT
BRANCH   3   8
ATOM      8  N4  <0> d           6.826  -2.734  -6.947  0.00  0.00    -0.310 N 
BRANCH   8   9
ATOM      9  C13 <0> d           7.259  -1.684  -7.873  0.00  0.00     0.171 C 
BRANCH   9  10
ATOM     10  C14 <0> d           8.593  -1.141  -7.428  0.00  0.00    -0.040 A 
ATOM     11  C19 <0> d           9.762  -1.714  -7.895  0.00  0.00     0.009 A 
ATOM     12  C18 <0> d          10.986  -1.213  -7.490  0.00  0.00     0.001 A 
ATOM     13  C17 <0> d          11.040  -0.146  -6.613  0.00  0.00     0.000 A 
ATOM     14  C16 <0> d           9.871   0.423  -6.143  0.00  0.00     0.001 A 
ATOM     15  C15 <0> d           8.648  -0.075  -6.550  0.00  0.00     0.009 A 
ENDBRANCH   9  10
ENDBRANCH   8   9
BRANCH   8  16
ATOM     16  C20 <0> d           7.181  -4.059  -7.181  0.00  0.00     0.131 A 
ATOM     17  N5  <0> d           8.030  -4.348  -8.156  0.00  0.00    -0.243 NA
ATOM     18  C24 <0> d           8.396  -5.590  -8.409  0.00  0.00     0.119 A 
ATOM     19  C23 <0> d           7.896  -6.640  -7.666  0.00  0.00     0.019 A 
ATOM     20  C22 <0> d           6.999  -6.380  -6.638  0.00  0.00     0.005 A 
ATOM     21  C21 <0> d           6.638  -5.068  -6.394  0.00  0.00     0.051 A 
ENDBRANCH   8  16
ENDBRANCH   3   8
BRANCH   2  22
ATOM     22  N6  <0> d           4.021  -2.495  -7.162  0.00  0.00    -0.393 N 
ATOM     23  H23 <0> d           3.067  -2.337  -7.237  0.00  0.00     0.156 HD
ATOM     24  H24 <0> d           4.525  -2.798  -7.934  0.00  0.00     0.156 HD
ENDBRANCH   2  22
BRANCH   1  25
ATOM     25  N1  <0> d           2.568  -1.826  -4.835  0.00  0.00    -0.341 N 
ATOM     26  H10 <0> d           2.087  -2.058  -5.645  0.00  0.00     0.167 HD
BRANCH  25  27
ATOM     27  C6  <0> d           1.872  -1.359  -3.718  0.00  0.00     0.033 A 
ATOM     28  C5  <0> d           2.393  -0.321  -2.956  0.00  0.00     0.030 A 
ATOM     29  C4  <0> d           1.702   0.138  -1.852  0.00  0.00     0.009 A 
ATOM     30  C3  <0> d           0.491  -0.434  -1.505  0.00  0.00    -0.058 A 
ATOM     31  C8  <0> d          -0.028  -1.471  -2.258  0.00  0.00     0.009 A 
ATOM     32  C7  <0> d           0.656  -1.931  -3.366  0.00  0.00     0.030 A 
BRANCH  30  33
ATOM     33  C2  <0> d          -0.260   0.070  -0.300  0.00  0.00     0.034 C 
ATOM     34  C1  <0> d           0.181  -0.712   0.939  0.00  0.00     0.010 C 
ENDBRANCH  30  33
ENDBRANCH  25  27
ENDBRANCH   1  25
TORSDOF 8
