REMARK  2 active torsions:
REMARK  status: ('A' for Active; 'I' for Inactive)
REMARK    1  A    between atoms: C6_6  and  C10_14 
REMARK    2  A    between atoms: C8_8  and  O1_13 
ROOT
ATOM      1  C1  <0> d          -0.019   1.526   0.010  0.00  0.00     0.015 C 
ATOM      2  C2  <0> d           0.002  -0.004   0.002  0.00  0.00    -0.036 C 
ATOM      3  C3  <0> d           0.742  -0.503  -1.240  0.00  0.00     0.066 C 
ATOM      4  C4  <0> d           2.168   0.009  -1.225  0.00  0.00     0.018 C 
ATOM      5  C5  <0> d           2.811   0.187  -0.051  0.00  0.00     0.023 C 
ATOM      6  C6  <0> d           4.253   0.667   0.021  0.00  0.00     0.095 C 
ATOM      7  C7  <0> d           4.633   1.117  -1.358  0.00  0.00     0.033 A 
ATOM      8  C8  <0> d           5.321   2.129  -1.840  0.00  0.00     0.190 A 
ATOM      9  N1  <0> d           5.252   2.139  -3.199  0.00  0.00    -0.127 NA
ATOM     10  N2  <0> d           4.614   1.196  -3.686  0.00  0.00    -0.160 NA
ATOM     11  C9  <0> d           4.178   0.330  -2.590  0.00  0.00     0.264 A 
ATOM     12  N3  <0> d           2.721   0.271  -2.454  0.00  0.00    -0.365 N 
ATOM     13  C14 <0> d           2.172  -0.057   1.176  0.00  0.00     0.159 C 
ATOM     14  O2  <0> d           2.790   0.108   2.210  0.00  0.00    -0.293 OA
ATOM     15  C15 <0> d           0.742  -0.517   1.242  0.00  0.00     0.092 C 
ATOM     16  C16 <0> d          -1.431  -0.539  -0.001  0.00  0.00     0.015 C 
ATOM     17  H8  <0> d           2.151   0.416  -3.225  0.00  0.00     0.162 HD
ENDROOT
BRANCH   6  18
ATOM     18  C10 <0> d           5.149  -0.462   0.461  0.00  0.00    -0.038 A 
ATOM     19  C13 <0> d           5.232  -1.599  -0.272  0.00  0.00     0.057 A 
ATOM     20  S1  <0> d           6.399  -2.563   0.675  0.00  0.00    -0.113 SA
ATOM     21  C12 <0> d           6.690  -1.388   1.987  0.00  0.00     0.050 A 
ATOM     22  C11 <0> d           5.894  -0.355   1.620  0.00  0.00     0.016 A 
ENDBRANCH   6  18
BRANCH   8  23
ATOM     23  O1  <0> d           6.003   3.034  -1.089  0.00  0.00    -0.343 OA
ATOM     24  H9  <0> d           6.455   3.714  -1.608  0.00  0.00     0.219 HD
ENDBRANCH   8  23
TORSDOF 2
