REMARK  5 active torsions:
REMARK  status: ('A' for Active; 'I' for Inactive)
REMARK    1  A    between atoms: C4_4  and  C7_7 
REMARK    2  A    between atoms: C8_10  and  C9_12 
REMARK       I    between atoms: C9_12  and  N3_14 
REMARK    3  A    between atoms: N3_14  and  C10_15 
REMARK    4  A    between atoms: C10_15  and  C11_16 
REMARK    5  A    between atoms: C11_16  and  C12_17 
ROOT
ATOM      1  C9  <0> d           5.658  -3.140   1.162  0.00  0.00     0.269 C 
ATOM      2  O2  <0> d           6.039  -4.286   1.053  0.00  0.00    -0.269 OA
ATOM      3  N3  <0> d           5.583  -2.567   2.380  0.00  0.00    -0.357 N 
ATOM      4  H8  <0> d           5.278  -1.651   2.467  0.00  0.00     0.162 HD
ENDROOT
BRANCH   3   5
ATOM      5  C10 <0> d           5.964  -3.329   3.572  0.00  0.00     0.127 C 
BRANCH   5   6
ATOM      6  C11 <0> d           5.788  -2.453   4.814  0.00  0.00     0.056 C 
BRANCH   6   7
ATOM      7  C12 <0> d           6.179  -3.237   6.040  0.00  0.00    -0.048 A 
ATOM      8  C19 <0> d           5.304  -4.181   6.834  0.00  0.00     0.155 A 
ATOM      9  N4  <0> d           6.145  -4.690   7.923  0.00  0.00    -0.385 N 
ATOM     10  C18 <0> d           7.333  -4.145   7.823  0.00  0.00     0.038 A 
ATOM     11  H18 <0> d           5.867  -5.322   8.604  0.00  0.00     0.160 HD
ATOM     12  C13 <0> d           7.383  -3.233   6.658  0.00  0.00    -0.004 A 
ATOM     13  C17 <0> d           8.508  -4.285   8.612  0.00  0.00     0.031 A 
ATOM     14  C14 <0> d           8.640  -2.527   6.382  0.00  0.00     0.037 A 
ATOM     15  C15 <0> d           9.700  -2.732   7.197  0.00  0.00     0.035 A 
ATOM     16  C16 <0> d           9.628  -3.602   8.296  0.00  0.00     0.026 A 
ATOM     17 Cl1  <0> d          11.188  -1.899   6.875  0.00  0.00    -0.084 Cl
ENDBRANCH   6   7
ENDBRANCH   5   6
ENDBRANCH   3   5
BRANCH   1  18
ATOM     18  C8  <0> d           5.266  -2.356  -0.065  0.00  0.00     0.348 A 
ATOM     19  O1  <0> d           5.896  -1.066  -0.057  0.00  0.00    -0.218 OA
ATOM     20  N1  <0> d           4.853  -0.109  -0.040  0.00  0.00    -0.112 NA
ATOM     21  C7  <0> d           3.697  -0.686  -0.037  0.00  0.00     0.163 A 
ATOM     22  N2  <0> d           3.825  -2.063  -0.046  0.00  0.00    -0.337 N 
ATOM     23  H7  <0> d           3.103  -2.711  -0.043  0.00  0.00     0.164 HD
BRANCH  21  24
ATOM     24  C4  <0> d           2.403   0.033  -0.021  0.00  0.00     0.012 A 
ATOM     25  C3  <0> d           2.377   1.428  -0.013  0.00  0.00     0.015 A 
ATOM     26  C2  <0> d           1.169   2.093   0.002  0.00  0.00     0.001 A 
ATOM     27  C1  <0> d          -0.017   1.379   0.010  0.00  0.00     0.000 A 
ATOM     28  C6  <0> d           0.002  -0.004   0.002  0.00  0.00     0.001 A 
ATOM     29  C5  <0> d           1.205  -0.680  -0.013  0.00  0.00     0.015 A 
ENDBRANCH  21  24
ENDBRANCH   1  18
TORSDOF 5
