REMARK  7 active torsions:
REMARK  status: ('A' for Active; 'I' for Inactive)
REMARK    1  A    between atoms: C3_3  and  C11_13 
REMARK    2  A    between atoms: C4_4  and  C5_7 
REMARK       I    between atoms: C11_13  and  N2_15 
REMARK    3  A    between atoms: C13_17  and  C20_25 
REMARK       I    between atoms: C20_25  and  N4_27 
REMARK    4  A    between atoms: N4_27  and  C21_28 
REMARK    5  A    between atoms: C21_28  and  C22_29 
REMARK    6  A    between atoms: C22_29  and  O5_31 
REMARK    7  A    between atoms: O5_31  and  C23_32 
ROOT
ATOM      1  C11 <0> d          -2.446  -0.423   0.250  0.00  0.00     0.258 C 
ATOM      2  O2  <0> d          -3.139  -0.352  -0.748  0.00  0.00    -0.267 OA
ATOM      3  N2  <0> d          -2.969  -0.126   1.456  0.00  0.00    -0.346 N 
ATOM      4  C12 <0> d          -2.267  -0.060   2.759  0.00  0.00     0.141 C 
ATOM      5  C13 <0> d          -2.892   1.157   3.478  0.00  0.00     0.106 C 
ATOM      6  C14 <0> d          -4.277   1.326   2.831  0.00  0.00    -0.007 C 
ATOM      7  C15 <0> d          -4.376   0.214   1.778  0.00  0.00     0.136 C 
ATOM      8  C16 <0> d          -4.383   2.692   2.159  0.00  0.00     0.039 C 
ATOM      9  C17 <0> d          -5.788   2.859   1.573  0.00  0.00     0.233 C 
ATOM     10  N3  <0> d          -6.784   2.739   2.645  0.00  0.00    -0.075 N 
ATOM     11  C18 <0> d          -6.738   1.391   3.224  0.00  0.00     0.233 C 
ATOM     12  C19 <0> d          -5.373   1.162   3.879  0.00  0.00     0.039 C 
ATOM     13  H18 <0> d          -6.587   3.420   3.363  0.00  0.00     0.277 HD
ATOM     14  H33 <0> d          -7.704   2.910   2.267  0.00  0.00     0.277 HD
ENDROOT
BRANCH   1  15
ATOM     15  C3  <0> d          -1.036  -0.832   0.139  0.00  0.00     0.095 A 
ATOM     16  C2  <0> d           0.027  -0.022  -0.135  0.00  0.00     0.093 A 
ATOM     17  C1  <0> d          -0.035   1.463  -0.381  0.00  0.00     0.080 C 
ATOM     18  O1  <0> d           1.132  -0.773  -0.154  0.00  0.00    -0.217 OA
ATOM     19  N1  <0> d           0.793  -2.117   0.125  0.00  0.00    -0.127 NA
ATOM     20  C4  <0> d          -0.501  -2.192   0.303  0.00  0.00     0.113 A 
BRANCH  20  21
ATOM     21  C5  <0> d          -1.281  -3.416   0.612  0.00  0.00    -0.004 A 
ATOM     22  C10 <0> d          -0.904  -4.642   0.067  0.00  0.00     0.014 A 
ATOM     23  C9  <0> d          -1.629  -5.778   0.362  0.00  0.00     0.001 A 
ATOM     24  C8  <0> d          -2.736  -5.700   1.189  0.00  0.00     0.000 A 
ATOM     25  C7  <0> d          -3.118  -4.485   1.728  0.00  0.00     0.001 A 
ATOM     26  C6  <0> d          -2.396  -3.343   1.445  0.00  0.00     0.014 A 
ENDBRANCH  20  21
ENDBRANCH   1  15
BRANCH   5  27
ATOM     27  C20 <0> d          -2.051   2.387   3.253  0.00  0.00     0.224 C 
ATOM     28  O3  <0> d          -1.353   2.473   2.264  0.00  0.00    -0.273 OA
ATOM     29  N4  <0> d          -2.075   3.393   4.150  0.00  0.00    -0.351 N 
ATOM     30  H23 <0> d          -2.633   3.325   4.940  0.00  0.00     0.163 HD
BRANCH  29  31
ATOM     31  C21 <0> d          -1.258   4.589   3.931  0.00  0.00     0.233 C 
BRANCH  31  32
ATOM     32  C22 <0> d          -1.464   5.553   5.071  0.00  0.00     0.277 C 
ATOM     33  O4  <0> d          -2.216   5.271   5.973  0.00  0.00    -0.263 OA
BRANCH  32  34
ATOM     34  O5  <0> d          -0.812   6.727   5.083  0.00  0.00    -0.316 OA
BRANCH  34  35
ATOM     35  C23 <0> d          -1.055   7.592   6.194  0.00  0.00     0.123 C 
ATOM     36  C24 <0> d           0.193   8.434   6.467  0.00  0.00     0.040 C 
ATOM     37  C25 <0> d          -2.232   8.515   5.874  0.00  0.00     0.040 C 
ENDBRANCH  34  35
ENDBRANCH  32  34
ENDBRANCH  31  32
ENDBRANCH  29  31
ENDBRANCH   5  27
TORSDOF 7
