REMARK  7 active torsions:
REMARK  status: ('A' for Active; 'I' for Inactive)
REMARK    1  A    between atoms: C2_2  and  C3_3 
REMARK    2  A    between atoms: C2_2  and  O2_8 
REMARK       I    between atoms: C3_3  and  N1_5 
REMARK    3  A    between atoms: O2_8  and  C6_9 
REMARK    4  A    between atoms: C6_9  and  C7_11 
REMARK    5  A    between atoms: C7_11  and  C8_12 
REMARK    6  A    between atoms: C8_12  and  N2_13 
REMARK    7  A    between atoms: N2_13  and  C9_14 
ROOT
ATOM      1  N2  <0> d           0.206  -1.847   5.842  0.00  0.00    -0.373 N 
ATOM      2  H15 <0> d           1.162  -2.010   5.856  0.00  0.00     0.161 HD
ENDROOT
BRANCH   1   3
ATOM      3  C8  <0> d          -0.436  -1.361   4.617  0.00  0.00     0.131 C 
BRANCH   3   4
ATOM      4  C7  <0> d           0.618  -1.196   3.521  0.00  0.00     0.130 C 
BRANCH   4   5
ATOM      5  C6  <0> d          -0.042  -0.697   2.261  0.00  0.00     0.261 C 
ATOM      6  O3  <0> d          -1.233  -0.493   2.243  0.00  0.00    -0.265 OA
BRANCH   5   7
ATOM      7  O2  <0> d           0.693  -0.477   1.160  0.00  0.00    -0.307 OA
BRANCH   7   8
ATOM      8  C2  <0> d           0.002  -0.004   0.002  0.00  0.00     0.219 C 
ATOM      9  C1  <0> d          -0.019   1.526   0.010  0.00  0.00     0.050 C 
BRANCH   8  10
ATOM     10  C3  <0> d           0.707  -0.490  -1.238  0.00  0.00     0.248 C 
ATOM     11  O1  <0> d           1.753  -1.097  -1.142  0.00  0.00    -0.270 OA
ATOM     12  N1  <0> d           0.176  -0.250  -2.453  0.00  0.00    -0.359 N 
ATOM     13  C4  <0> d           0.862  -0.723  -3.658  0.00  0.00     0.152 C 
ATOM     14  C5  <0> d          -1.087   0.483  -2.569  0.00  0.00     0.152 C 
ENDBRANCH   8  10
ENDBRANCH   7   8
ENDBRANCH   5   7
ENDBRANCH   4   5
ENDBRANCH   3   4
ENDBRANCH   1   3
BRANCH   1  15
ATOM     15  C9  <0> d          -0.549  -2.072   6.972  0.00  0.00     0.148 A 
ATOM     16  C11 <0> d           0.087  -2.560   8.206  0.00  0.00     0.034 A 
ATOM     17  C10 <0> d          -0.837  -2.724   9.247  0.00  0.00     0.095 A 
ATOM     18  C12 <0> d           1.428  -2.867   8.479  0.00  0.00     0.017 A 
ATOM     19  S1  <0> d          -2.369  -2.246   8.495  0.00  0.00     0.286 S 
ATOM     20  C15 <0> d          -0.468  -3.164  10.485  0.00  0.00     0.026 A 
ATOM     21  N3  <0> d          -1.827  -1.862   6.959  0.00  0.00    -0.141 NA
ATOM     22  O4  <0> d          -2.799  -1.042   9.116  0.00  0.00    -0.198 OA
ATOM     23  O5  <0> d          -3.182  -3.407   8.390  0.00  0.00    -0.198 OA
ATOM     24  C14 <0> d           0.863  -3.472  10.734  0.00  0.00     0.002 A 
ATOM     25  C13 <0> d           1.798  -3.315   9.728  0.00  0.00     0.001 A 
ENDBRANCH   1  15
TORSDOF 7
