REMARK  5 active torsions:
REMARK  status: ('A' for Active; 'I' for Inactive)
REMARK    1  A    between atoms: C9_11  and  C10_12 
REMARK    2  A    between atoms: C10_12  and  C11_13 
REMARK    3  A    between atoms: C11_13  and  N2_14 
REMARK       I    between atoms: N2_14  and  C12_15 
REMARK       I    between atoms: C12_15  and  N3_17 
REMARK    4  A    between atoms: N3_17  and  N4_18 
REMARK       I    between atoms: N4_18  and  C13_19 
REMARK    5  A    between atoms: C13_19  and  C14_21 
ROOT
ATOM      1  N2  <0> d           1.518  -6.746  -2.068  0.00  0.00    -0.341 N 
ATOM      2  C12 <0> d           2.684  -7.178  -2.588  0.00  0.00     0.334 C 
ATOM      3  O1  <0> d           3.728  -6.641  -2.270  0.00  0.00    -0.246 OA
ATOM      4  N3  <0> d           2.693  -8.204  -3.462  0.00  0.00    -0.249 N 
ATOM      5  H13 <0> d           0.686  -7.173  -2.322  0.00  0.00     0.164 HD
ATOM      6  H14 <0> d           3.532  -8.514  -3.837  0.00  0.00     0.192 HD
ENDROOT
BRANCH   1   7
ATOM      7  C11 <0> d           1.509  -5.630  -1.118  0.00  0.00     0.129 C 
BRANCH   7   8
ATOM      8  C10 <0> d           0.070  -5.342  -0.684  0.00  0.00     0.060 C 
BRANCH   8   9
ATOM      9  C9  <0> d           0.060  -4.195   0.293  0.00  0.00    -0.029 A 
ATOM     10  C5  <0> d           0.040  -2.768  -0.038  0.00  0.00    -0.002 A 
ATOM     11  C4  <0> d           0.024  -2.050  -1.236  0.00  0.00     0.015 A 
ATOM     12  C6  <0> d           0.037  -2.083   1.190  0.00  0.00     0.043 A 
ATOM     13  C3  <0> d           0.006  -0.685  -1.208  0.00  0.00     0.007 A 
ATOM     14  C2  <0> d           0.002  -0.004   0.002  0.00  0.00    -0.060 A 
ATOM     15  C1  <0> d          -0.018   1.503   0.010  0.00  0.00     0.048 C 
ATOM     16  C7  <0> d           0.023  -0.692   1.195  0.00  0.00     0.037 A 
ATOM     17  N1  <0> d           0.054  -3.035   2.186  0.00  0.00    -0.365 N 
ATOM     18  H1  <0> d           0.057  -2.846   3.137  0.00  0.00     0.165 HD
ATOM     19  C8  <0> d           0.068  -4.286   1.632  0.00  0.00     0.096 A 
ENDBRANCH   8   9
ENDBRANCH   7   8
ENDBRANCH   1   7
BRANCH   4  20
ATOM     20  N4  <0> d           1.490  -8.822  -3.829  0.00  0.00    -0.261 N 
ATOM     21  C13 <0> d           1.499  -9.848  -4.703  0.00  0.00     0.277 C 
ATOM     22  O2  <0> d           2.551 -10.238  -5.173  0.00  0.00    -0.265 OA
ATOM     23  H15 <0> d           0.651  -8.511  -3.454  0.00  0.00     0.190 HD
BRANCH  21  24
ATOM     24  C14 <0> d           0.240 -10.494  -5.087  0.00  0.00     0.080 A 
ATOM     25  S1  <0> d          -1.421 -10.126  -4.554  0.00  0.00    -0.096 SA
ATOM     26  C17 <0> d          -2.248 -11.290  -5.437  0.00  0.00     0.051 A 
ATOM     27  C16 <0> d          -1.275 -11.947  -6.116  0.00  0.00     0.015 A 
ATOM     28  C15 <0> d           0.032 -11.556  -5.954  0.00  0.00    -0.039 A 
ATOM     29  C18 <0> d           1.167 -12.236  -6.674  0.00  0.00     0.050 C 
ENDBRANCH  21  24
ENDBRANCH   4  20
TORSDOF 5
