REMARK  3 active torsions:
REMARK  status: ('A' for Active; 'I' for Inactive)
REMARK    1  A    between atoms: N1_6  and  C6_7 
REMARK    2  A    between atoms: C9_10  and  C10_13 
REMARK    3  A    between atoms: C10_13  and  O1_14 
ROOT
ATOM      1  C6  <0> d           0.363  -0.246   2.511  0.00  0.00     0.148 A 
ATOM      2  C7  <0> d          -0.858   0.360   2.807  0.00  0.00     0.054 A 
ATOM      3  C8  <0> d          -1.161   0.591   4.139  0.00  0.00     0.035 A 
ATOM      4  C9  <0> d          -0.232   0.206   5.096  0.00  0.00     0.080 A 
ATOM      5  N2  <0> d           0.899  -0.361   4.726  0.00  0.00    -0.151 NA
ATOM      6  N3  <0> d           1.185  -0.582   3.495  0.00  0.00    -0.132 NA
ENDROOT
BRANCH   1   7
ATOM      7  N1  <0> d           0.715  -0.500   1.190  0.00  0.00    -0.356 N 
ATOM      8  C2  <0> d          -0.089  -0.156   0.008  0.00  0.00     0.027 C 
ATOM      9  C1  <0> d          -0.323   1.356  -0.040  0.00  0.00     0.038 C 
ATOM     10  C3  <0> d           0.709  -0.602  -1.235  0.00  0.00     0.032 C 
ATOM     11  C11 <0> d          -1.431  -0.889   0.060  0.00  0.00     0.038 C 
ATOM     12  C4  <0> d           2.168  -0.660  -0.709  0.00  0.00     0.022 C 
ATOM     13  C5  <0> d           1.956  -1.159   0.742  0.00  0.00     0.125 C 
ENDBRANCH   1   7
BRANCH   4  14
ATOM     14  C10 <0> d          -0.516   0.437   6.558  0.00  0.00     0.225 C 
BRANCH  14  15
ATOM     15  O1  <0> d          -1.794   1.060   6.702  0.00  0.00    -0.395 OA
ATOM     16  H14 <0> d          -2.043   1.239   7.619  0.00  0.00     0.209 HD
ENDBRANCH  14  15
ENDBRANCH   4  14
TORSDOF 3
