REMARK  5 active torsions:
REMARK  status: ('A' for Active; 'I' for Inactive)
REMARK    1  A    between atoms: C2_2  and  C3_3 
REMARK    2  A    between atoms: C2_2  and  N1_17 
REMARK    3  A    between atoms: C3_3  and  C4_4 
REMARK    4  A    between atoms: C3_3  and  O1_9 
REMARK    5  A    between atoms: O1_9  and  C8_10 
ROOT
ATOM      1  C3  <0> d           0.755  -0.539   1.304  0.00  0.00     0.192 C 
ENDROOT
BRANCH   1   2
ATOM      2  C2  <0> d           0.015  -0.236  -0.000  0.00  0.00     0.213 C 
ATOM      3  C1  <0> d          -0.044   1.278  -0.213  0.00  0.00     0.043 C 
BRANCH   2   4
ATOM      4  N1  <0> d          -1.350  -0.773   0.074  0.00  0.00    -0.073 N 
ATOM      5  H13 <0> d          -1.838  -0.573  -0.786  0.00  0.00     0.274 HD
ATOM      6  H14 <0> d          -1.311  -1.772   0.215  0.00  0.00     0.274 HD
ATOM      7  H15 <0> d          -1.839  -0.344   0.846  0.00  0.00     0.274 HD
ENDBRANCH   2   4
ENDBRANCH   1   2
BRANCH   1   8
ATOM      8  C4  <0> d           0.813  -2.030   1.514  0.00  0.00    -0.020 A 
ATOM      9  C7  <0> d           1.795  -2.768   0.941  0.00  0.00     0.059 A 
ATOM     10  S1  <0> d           1.397  -4.415   1.504  0.00  0.00    -0.113 SA
ATOM     11  C6  <0> d          -0.058  -4.010   2.457  0.00  0.00     0.050 A 
ATOM     12  C5  <0> d          -0.139  -2.667   2.288  0.00  0.00     0.017 A 
ENDBRANCH   1   8
BRANCH   1  13
ATOM     13  O1  <0> d           2.083  -0.016   1.231  0.00  0.00    -0.338 OA
BRANCH  13  14
ATOM     14  C8  <0> d           2.287   1.224   1.748  0.00  0.00     0.087 A 
ATOM     15  C13 <0> d           3.545   1.807   1.681  0.00  0.00     0.044 A 
ATOM     16  C12 <0> d           3.748   3.071   2.203  0.00  0.00     0.022 A 
ATOM     17 Br1  <0> d           4.978   0.875   0.872  0.00  0.00    -0.048 Br
ATOM     18  C11 <0> d           2.702   3.750   2.800  0.00  0.00     0.002 A 
ATOM     19  C10 <0> d           1.449   3.169   2.872  0.00  0.00     0.003 A 
ATOM     20  C9  <0> d           1.239   1.908   2.348  0.00  0.00     0.038 A 
ENDBRANCH  13  14
ENDBRANCH   1  13
TORSDOF 5
