REMARK  9 active torsions:
REMARK  status: ('A' for Active; 'I' for Inactive)
REMARK    1  A    between atoms: C2_2  and  N1_3 
REMARK    2  A    between atoms: N1_3  and  C3_4 
REMARK    3  A    between atoms: N1_3  and  S1_6 
REMARK    4  A    between atoms: S1_6  and  C5_9 
REMARK    5  A    between atoms: C8_12  and  C11_15 
REMARK    6  A    between atoms: C11_15  and  N2_17 
REMARK       I    between atoms: N2_17  and  C13_18 
REMARK    7  A    between atoms: C13_18  and  C14_20 
REMARK    8  A    between atoms: C14_20  and  C15_21 
REMARK    9  A    between atoms: C15_21  and  C16_22 
ROOT
ATOM      1  N2  <0> d           4.874   4.737   3.667  0.00  0.00    -0.353 N 
ATOM      2  C13 <0> d           5.015   6.055   3.910  0.00  0.00     0.218 C 
ATOM      3  O3  <0> d           5.567   6.766   3.098  0.00  0.00    -0.274 OA
ATOM      4  H20 <0> d           4.432   4.168   4.316  0.00  0.00     0.163 HD
ENDROOT
BRANCH   1   5
ATOM      5  C11 <0> d           5.390   4.163   2.421  0.00  0.00     0.113 C 
ATOM      6  C12 <0> d           6.872   3.825   2.591  0.00  0.00     0.037 C 
BRANCH   5   7
ATOM      7  C8  <0> d           4.623   2.909   2.091  0.00  0.00    -0.036 A 
ATOM      8  C7  <0> d           4.271   2.639   0.781  0.00  0.00     0.011 A 
ATOM      9  C6  <0> d           3.568   1.488   0.478  0.00  0.00     0.026 A 
ATOM     10  C5  <0> d           3.218   0.606   1.484  0.00  0.00     0.079 A 
ATOM     11  C10 <0> d           3.565   0.879   2.794  0.00  0.00     0.026 A 
ATOM     12  C9  <0> d           4.272   2.028   3.096  0.00  0.00     0.011 A 
BRANCH  10  13
ATOM     13  S1  <0> d           2.322  -0.861   1.097  0.00  0.00     0.260 S 
ATOM     14  O1  <0> d           2.586  -1.786   2.143  0.00  0.00    -0.200 OA
ATOM     15  O2  <0> d           2.594  -1.155  -0.266  0.00  0.00    -0.200 OA
BRANCH  13  16
ATOM     16  N1  <0> d           0.711  -0.489   1.189  0.00  0.00    -0.307 N 
BRANCH  16  17
ATOM     17  C2  <0> d           0.002  -0.004   0.002  0.00  0.00     0.131 C 
ATOM     18  C1  <0> d          -0.019   1.526   0.010  0.00  0.00     0.027 C 
ENDBRANCH  16  17
BRANCH  16  19
ATOM     19  C3  <0> d          -0.006  -0.646   2.457  0.00  0.00     0.131 C 
ATOM     20  C4  <0> d          -0.694  -2.013   2.489  0.00  0.00     0.027 C 
ENDBRANCH  16  19
ENDBRANCH  13  16
ENDBRANCH  10  13
ENDBRANCH   5   7
ENDBRANCH   1   5
BRANCH   2  21
ATOM     21  C14 <0> d           4.484   6.645   5.192  0.00  0.00     0.105 C 
BRANCH  21  22
ATOM     22  C15 <0> d           4.771   8.148   5.218  0.00  0.00     0.044 C 
BRANCH  22  23
ATOM     23  C16 <0> d           4.233   8.747   6.519  0.00  0.00     0.174 A 
ATOM     24  N4  <0> d           4.931   8.092   7.637  0.00  0.00    -0.375 N 
ATOM     25  C23 <0> d           5.595   8.833   8.474  0.00  0.00     0.055 A 
ATOM     26  H29 <0> d           4.896   7.129   7.747  0.00  0.00     0.160 HD
ATOM     27  C18 <0> d           5.654  10.308   8.313  0.00  0.00     0.061 A 
ATOM     28  C22 <0> d           6.310   8.228   9.610  0.00  0.00     0.031 A 
ATOM     29  N3  <0> d           5.037  10.925   7.319  0.00  0.00    -0.323 N 
ATOM     30  C19 <0> d           6.394  11.052   9.260  0.00  0.00     0.032 A 
ATOM     31  C17 <0> d           4.330  10.251   6.409  0.00  0.00     0.245 A 
ATOM     32  H30 <0> d           5.101  11.890   7.249  0.00  0.00     0.169 HD
ATOM     33  O4  <0> d           3.773  10.839   5.504  0.00  0.00    -0.271 OA
ATOM     34  C20 <0> d           7.026  10.426  10.280  0.00  0.00     0.002 A 
ATOM     35  C21 <0> d           6.989   9.033  10.457  0.00  0.00     0.002 A 
ENDBRANCH  22  23
ENDBRANCH  21  22
ENDBRANCH   2  21
TORSDOF 9
