REMARK  4 active torsions:
REMARK  status: ('A' for Active; 'I' for Inactive)
REMARK       I    between atoms: C2_2  and  N1_4 
REMARK    1  A    between atoms: N1_4  and  C3_5 
REMARK    2  A    between atoms: C11_14  and  C12_15 
REMARK    3  A    between atoms: C12_15  and  C13_16 
REMARK    4  A    between atoms: C12_15  and  O4_21 
ROOT
ATOM      1  C3  <0> d          -1.136  -2.159   0.001  0.00  0.00     0.122 C 
ATOM      2  C4  <0> d          -1.015  -2.658  -1.440  0.00  0.00     0.057 C 
ATOM      3  C5  <0> d          -1.292  -4.167  -1.452  0.00  0.00     0.178 C 
ATOM      4  O2  <0> d          -2.649  -4.378  -1.060  0.00  0.00    -0.350 OA
ATOM      5  C6  <0> d          -3.091  -3.752   0.061  0.00  0.00     0.086 A 
ATOM      6  C7  <0> d          -2.411  -2.681   0.614  0.00  0.00     0.002 A 
ATOM      7  C8  <0> d          -2.901  -2.069   1.755  0.00  0.00     0.054 A 
ATOM      8  C9  <0> d          -4.066  -2.524   2.345  0.00  0.00     0.117 A 
ATOM      9  C10 <0> d          -4.746  -3.597   1.795  0.00  0.00     0.055 A 
ATOM     10  C11 <0> d          -4.261  -4.208   0.659  0.00  0.00     0.010 A 
ATOM     11  F1  <0> d          -4.540  -1.923   3.459  0.00  0.00    -0.206 F 
ENDROOT
BRANCH  10  12
ATOM     12  C12 <0> d          -5.003  -5.376   0.061  0.00  0.00     0.183 C 
BRANCH  12  13
ATOM     13  C13 <0> d          -5.935  -4.875  -1.044  0.00  0.00     0.154 C 
ATOM     14  O3  <0> d          -5.168  -4.258  -2.085  0.00  0.00    -0.383 OA
ATOM     15  C16 <0> d          -5.343  -4.981  -3.316  0.00  0.00     0.168 C 
ATOM     16  C15 <0> d          -6.712  -5.695  -3.175  0.00  0.00     0.029 C 
ATOM     17  C14 <0> d          -6.697  -6.065  -1.667  0.00  0.00     0.037 C 
ENDBRANCH  12  13
BRANCH  12  18
ATOM     18  O4  <0> d          -5.773  -6.022   1.077  0.00  0.00    -0.388 OA
ATOM     19  H20 <0> d          -6.430  -5.450   1.496  0.00  0.00     0.210 HD
ENDBRANCH  12  18
ENDBRANCH  10  12
BRANCH   1  20
ATOM     20  N1  <0> d          -1.156  -0.694   0.009  0.00  0.00    -0.353 N 
ATOM     21  C2  <0> d           0.002  -0.004   0.002  0.00  0.00     0.214 C 
ATOM     22  C1  <0> d          -0.018   1.503   0.010  0.00  0.00     0.117 C 
ATOM     23  O1  <0> d           1.060  -0.596  -0.011  0.00  0.00    -0.274 OA
ATOM     24  H7  <0> d          -2.002  -0.220   0.020  0.00  0.00     0.163 HD
ENDBRANCH   1  20
TORSDOF 4
