REMARK  5 active torsions:
REMARK  status: ('A' for Active; 'I' for Inactive)
REMARK    1  A    between atoms: C6_7  and  C8_11 
REMARK    2  A    between atoms: C8_11  and  S1_12 
REMARK    3  A    between atoms: S1_12  and  C9_13 
REMARK    4  A    between atoms: C9_13  and  C10_14 
REMARK       I    between atoms: C10_14  and  N3_16 
REMARK    5  A    between atoms: N3_16  and  C11_17 
ROOT
ATOM      1  S1  <0> d          -3.883  -4.581   4.550  0.00  0.00    -0.152 SA
ENDROOT
BRANCH   1   2
ATOM      2  C8  <0> d          -2.196  -3.917   4.503  0.00  0.00     0.155 C 
BRANCH   2   3
ATOM      3  C6  <0> d          -1.962  -3.231   3.181  0.00  0.00     0.140 A 
ATOM      4  N1  <0> d          -0.779  -2.681   2.961  0.00  0.00    -0.225 NA
ATOM      5  C5  <0> d          -0.510  -2.069   1.831  0.00  0.00     0.112 A 
ATOM      6  C4  <0> d          -1.530  -1.978   0.765  0.00  0.00     0.073 A 
ATOM      7  S2  <0> d           0.909  -1.230   1.171  0.00  0.00    -0.100 SA
ATOM      8  C3  <0> d          -1.194  -1.339  -0.365  0.00  0.00    -0.051 A 
ATOM      9  C7  <0> d          -2.833  -2.631   1.110  0.00  0.00     0.281 A 
ATOM     10  C2  <0> d           0.201  -0.763  -0.460  0.00  0.00     0.079 A 
ATOM     11  C19 <0> d          -2.173  -1.200  -1.502  0.00  0.00     0.046 C 
ATOM     12  C1  <0> d           0.156   0.757  -0.623  0.00  0.00     0.026 C 
ATOM     13  N2  <0> d          -2.942  -3.212   2.310  0.00  0.00    -0.193 NA
ATOM     14  O1  <0> d          -3.764  -2.632   0.324  0.00  0.00    -0.265 OA
ENDBRANCH   2   3
ENDBRANCH   1   2
BRANCH   1  15
ATOM     15  C9  <0> d          -4.001  -5.363   6.183  0.00  0.00     0.177 C 
BRANCH  15  16
ATOM     16  C10 <0> d          -5.373  -5.963   6.354  0.00  0.00     0.231 C 
ATOM     17  O2  <0> d          -6.190  -5.872   5.462  0.00  0.00    -0.272 OA
ATOM     18  N3  <0> d          -5.692  -6.600   7.498  0.00  0.00    -0.327 N 
ATOM     19  H10 <0> d          -5.017  -6.737   8.181  0.00  0.00     0.169 HD
BRANCH  18  20
ATOM     20  C11 <0> d          -6.985  -7.061   7.698  0.00  0.00     0.035 C 
ATOM     21  C18 <0> d          -8.115  -6.130   7.632  0.00  0.00     0.028 C 
ATOM     22  C17 <0> d          -9.380  -6.539   7.502  0.00  0.00     0.007 C 
ATOM     23  C16 <0> d          -9.665  -8.005   7.375  0.00  0.00     0.163 C 
ATOM     24  C13 <0> d          -8.555  -8.756   8.092  0.00  0.00    -0.026 C 
ATOM     25  N4  <0> d         -10.886  -8.456   8.029  0.00  0.00    -0.288 NA
ATOM     26  C12 <0> d          -7.209  -8.394   7.965  0.00  0.00     0.039 C 
ATOM     27  C14 <0> d          -9.184  -9.705   8.815  0.00  0.00     0.028 C 
ATOM     28  C15 <0> d         -10.571  -9.459   8.802  0.00  0.00     0.112 C 
ENDBRANCH  18  20
ENDBRANCH  15  16
ENDBRANCH   1  15
TORSDOF 5
