REMARK  4 active torsions:
REMARK  status: ('A' for Active; 'I' for Inactive)
REMARK    1  A    between atoms: C3_3  and  C6_9 
REMARK       I    between atoms: C6_9  and  N3_11 
REMARK    2  A    between atoms: N3_11  and  N4_12 
REMARK       I    between atoms: N4_12  and  C7_13 
REMARK    3  A    between atoms: C7_13  and  C8_15 
REMARK    4  A    between atoms: C11_18  and  C12_20 
ROOT
ATOM      1  N4  <0> d          -1.190   0.246  -4.517  0.00  0.00    -0.263 N 
ATOM      2  C7  <0> d          -2.363   0.437  -5.153  0.00  0.00     0.277 C 
ATOM      3  O2  <0> d          -3.412   0.235  -4.569  0.00  0.00    -0.265 OA
ATOM      4  H8  <0> d          -0.354   0.407  -4.982  0.00  0.00     0.190 HD
ENDROOT
BRANCH   1   5
ATOM      5  N3  <0> d          -1.178  -0.184  -3.184  0.00  0.00    -0.263 N 
ATOM      6  C6  <0> d          -0.005  -0.375  -2.548  0.00  0.00     0.275 C 
ATOM      7  O1  <0> d           1.043  -0.174  -3.132  0.00  0.00    -0.266 OA
ATOM      8  H7  <0> d          -2.014  -0.345  -2.718  0.00  0.00     0.190 HD
BRANCH   6   9
ATOM      9  C3  <0> d           0.008  -0.828  -1.146  0.00  0.00     0.099 A 
ATOM     10  C2  <0> d           0.002  -0.004   0.002  0.00  0.00     0.070 A 
ATOM     11  C1  <0> d          -0.018   1.503   0.010  0.00  0.00     0.073 C 
ATOM     12  N2  <0> d           0.023  -0.776   1.053  0.00  0.00    -0.176 NA
ATOM     13  N1  <0> d           0.034  -2.111   0.636  0.00  0.00    -0.262 N 
ATOM     14  C4  <0> d           0.028  -2.139  -0.707  0.00  0.00     0.139 A 
ATOM     15  C5  <0> d           0.054  -3.283   1.516  0.00  0.00     0.181 C 
ATOM     16 Cl1  <0> d           0.043  -3.558  -1.706  0.00  0.00    -0.062 Cl
ENDBRANCH   6   9
ENDBRANCH   1   5
BRANCH   2  17
ATOM     17  C8  <0> d          -2.376   0.887  -6.546  0.00  0.00     0.075 A 
ATOM     18  S1  <0> d          -0.997   1.252  -7.620  0.00  0.00    -0.084 SA
ATOM     19  C11 <0> d          -1.922   1.709  -9.077  0.00  0.00     0.016 A 
ATOM     20  C10 <0> d          -3.232   1.561  -8.650  0.00  0.00     0.021 A 
ATOM     21  C9  <0> d          -3.463   1.145  -7.369  0.00  0.00     0.026 A 
BRANCH  19  22
ATOM     22  C12 <0> d          -1.419   2.139 -10.398  0.00  0.00    -0.019 A 
ATOM     23  C17 <0> d          -0.045   2.224 -10.632  0.00  0.00     0.016 A 
ATOM     24  C16 <0> d           0.418   2.621 -11.868  0.00  0.00     0.043 A 
ATOM     25  C15 <0> d          -0.477   2.946 -12.875  0.00  0.00     0.116 A 
ATOM     26  C14 <0> d          -1.842   2.868 -12.647  0.00  0.00     0.043 A 
ATOM     27  F1  <0> d          -0.018   3.339 -14.083  0.00  0.00    -0.206 F 
ATOM     28  C13 <0> d          -2.317   2.467 -11.416  0.00  0.00     0.016 A 
ENDBRANCH  19  22
ENDBRANCH   2  17
TORSDOF 4
