REMARK  4 active torsions:
REMARK  status: ('A' for Active; 'I' for Inactive)
REMARK    1  A    between atoms: O1_2  and  C2_3 
REMARK    2  A    between atoms: C7_8  and  N1_9 
REMARK       I    between atoms: N1_9  and  C8_10 
REMARK    3  A    between atoms: C8_10  and  C9_12 
REMARK    4  A    between atoms: C10_13  and  N4_17 
REMARK       I    between atoms: N4_17  and  C11_18 
REMARK       I    between atoms: C11_18  and  N5_20 
ROOT
ATOM      1  N4  <0> d          -0.356  -0.044  -3.838  0.00  0.00    -0.299 N 
ATOM      2  C11 <0> d           0.052  -1.188  -3.253  0.00  0.00     0.323 C 
ATOM      3  O3  <0> d           1.009  -1.791  -3.700  0.00  0.00    -0.247 OA
ATOM      4  N5  <0> d          -0.600  -1.664  -2.174  0.00  0.00    -0.333 N 
ATOM      5  C12 <0> d          -1.686  -0.895  -1.555  0.00  0.00     0.134 C 
ATOM      6  C13 <0> d          -2.914  -1.776  -1.370  0.00  0.00     0.023 C 
ATOM      7  C14 <0> d          -2.549  -3.090  -0.678  0.00  0.00     0.020 C 
ATOM      8  C15 <0> d          -1.515  -3.819  -1.541  0.00  0.00     0.054 C 
ATOM      9  C16 <0> d          -0.237  -2.965  -1.589  0.00  0.00     0.138 C 
ATOM     10  C17 <0> d          -2.034  -3.953  -2.954  0.00  0.00     0.020 C 
ATOM     11  C18 <0> d          -1.560  -4.987  -3.698  0.00  0.00     0.026 C 
ATOM     12  C19 <0> d          -1.942  -5.134  -5.036  0.00  0.00     0.007 C 
ATOM     13  C20 <0> d          -2.772  -4.204  -5.590  0.00  0.00     0.074 C 
ATOM     14  C21 <0> d          -3.231  -3.142  -4.799  0.00  0.00     0.247 C 
ATOM     15  O4  <0> d          -3.918  -2.267  -5.301  0.00  0.00    -0.268 OA
ATOM     16  N6  <0> d          -2.921  -3.077  -3.480  0.00  0.00    -0.317 N 
ATOM     17  C22 <0> d          -3.614  -2.062  -2.686  0.00  0.00     0.138 C 
ATOM     18  H11 <0> d          -1.168   0.545  -3.385  0.00  0.00     0.171 HD
ENDROOT
BRANCH   1  19
ATOM     19  C10 <0> d           0.245   0.390  -5.007  0.00  0.00     0.134 A 
ATOM     20  C9  <0> d          -0.021   1.527  -5.774  0.00  0.00     0.182 A 
ATOM     21  N3  <0> d           0.726   1.691  -6.856  0.00  0.00    -0.134 NA
ATOM     22  N2  <0> d           1.633   0.830  -7.170  0.00  0.00    -0.108 NA
ATOM     23  S1  <0> d           1.529  -0.336  -5.922  0.00  0.00     0.055 SA
BRANCH  20  24
ATOM     24  C8  <0> d          -1.066   2.488  -5.400  0.00  0.00     0.279 C 
ATOM     25  N1  <0> d          -1.291   3.572  -6.168  0.00  0.00    -0.319 N 
ATOM     26  H10 <0> d          -0.755   3.691  -7.122  0.00  0.00     0.169 HD
ATOM     27  O2  <0> d          -1.730   2.305  -4.397  0.00  0.00    -0.265 OA
BRANCH  25  28
ATOM     28  C7  <0> d          -2.206   4.548  -5.752  0.00  0.00     0.068 A 
ATOM     29  C2  <0> d          -2.827   5.369  -6.691  0.00  0.00     0.095 A 
ATOM     30  C3  <0> d          -3.735   6.328  -6.274  0.00  0.00     0.039 A 
ATOM     31  C4  <0> d          -4.015   6.477  -4.928  0.00  0.00     0.003 A 
ATOM     32  C5  <0> d          -3.394   5.667  -3.995  0.00  0.00     0.002 A 
ATOM     33  C6  <0> d          -2.491   4.704  -4.404  0.00  0.00     0.032 A 
BRANCH  29  34
ATOM     34  O1  <0> d          -2.546   5.225  -8.014  0.00  0.00    -0.354 OA
ATOM     35  C1  <0> d          -3.221   6.101  -8.919  0.00  0.00     0.210 C 
ENDBRANCH  29  34
ENDBRANCH  25  28
ENDBRANCH  20  24
ENDBRANCH   1  19
TORSDOF 4
