REMARK  6 active torsions:
REMARK  status: ('A' for Active; 'I' for Inactive)
REMARK    1  A    between atoms: C2_2  and  C3_3 
REMARK    2  A    between atoms: C2_2  and  O3_18 
REMARK    3  A    between atoms: C3_3  and  C4_4 
REMARK    4  A    between atoms: C4_4  and  O2_17 
REMARK    5  A    between atoms: N1_11  and  C12_14 
REMARK    6  A    between atoms: C12_14  and  C13_15 
ROOT
ATOM      1  C4  <0> d           2.575   1.390  -0.050  0.00  0.00     0.170 A 
ATOM      2  C5  <0> d           1.143   1.867  -0.129  0.00  0.00     0.012 A 
ATOM      3  C6  <0> d          -0.063   1.206  -0.182  0.00  0.00     0.013 A 
ATOM      4  C7  <0> d          -1.243   1.926  -0.257  0.00  0.00     0.001 A 
ATOM      5  C8  <0> d          -1.205   3.309  -0.265  0.00  0.00     0.002 A 
ATOM      6  C9  <0> d           0.002   3.974  -0.212  0.00  0.00     0.030 A 
ATOM      7  C10 <0> d           1.194   3.255  -0.143  0.00  0.00     0.047 A 
ATOM      8  N1  <0> d           2.519   3.690  -0.081  0.00  0.00    -0.311 N 
ATOM      9  C11 <0> d           3.388   2.666  -0.024  0.00  0.00     0.264 A 
ATOM     10  O1  <0> d           4.596   2.750   0.038  0.00  0.00    -0.269 OA
ENDROOT
BRANCH   1  11
ATOM     11  C3  <0> d           2.929   0.553  -1.281  0.00  0.00     0.084 C 
BRANCH  11  12
ATOM     12  C2  <0> d           2.046  -0.695  -1.321  0.00  0.00     0.117 C 
ATOM     13  C1  <0> d           2.355  -1.498  -2.586  0.00  0.00     0.039 C 
BRANCH  12  14
ATOM     14  O3  <0> d           2.306  -1.500  -0.170  0.00  0.00    -0.396 OA
ATOM     15  H17 <0> d           1.779  -2.311  -0.129  0.00  0.00     0.210 HD
ENDBRANCH  12  14
ENDBRANCH  11  12
ENDBRANCH   1  11
BRANCH   1  16
ATOM     16  O2  <0> d           2.785   0.634   1.145  0.00  0.00    -0.375 OA
ATOM     17  H16 <0> d           2.604   1.125   1.958  0.00  0.00     0.211 HD
ENDBRANCH   1  16
BRANCH   8  18
ATOM     18  C12 <0> d           2.917   5.100  -0.077  0.00  0.00     0.158 C 
BRANCH  18  19
ATOM     19  C13 <0> d           3.126   5.566  -1.495  0.00  0.00    -0.017 C 
ATOM     20  C14 <0> d           2.479   6.614  -1.942  0.00  0.00     0.008 C 
ENDBRANCH  18  19
ENDBRANCH   8  18
TORSDOF 6
