REMARK  2 active torsions:
REMARK  status: ('A' for Active; 'I' for Inactive)
REMARK    1  A    between atoms: N1_2  and  C2_3 
REMARK    2  A    between atoms: C6_7  and  N3_13 
ROOT
ATOM      1  C2  <0> d           0.708  -0.491   1.190  0.00  0.00     0.312 A 
ATOM      2  C3  <0> d           0.813  -1.999   1.169  0.00  0.00     0.008 A 
ATOM      3  C4  <0> d           1.423  -2.882   0.306  0.00  0.00     0.014 A 
ATOM      4  C5  <0> d           1.351  -4.242   0.543  0.00  0.00     0.030 A 
ATOM      5  C6  <0> d           0.664  -4.713   1.656  0.00  0.00     0.032 A 
ATOM      6  C7  <0> d           0.051  -3.823   2.524  0.00  0.00     0.059 A 
ATOM      7  C8  <0> d           0.122  -2.454   2.286  0.00  0.00     0.045 A 
ATOM      8  N2  <0> d          -0.404  -1.376   2.999  0.00  0.00    -0.324 N 
ATOM      9  C9  <0> d          -0.107  -0.192   2.430  0.00  0.00     0.257 A 
ATOM     10  O1  <0> d          -0.430   0.905   2.832  0.00  0.00    -0.270 OA
ATOM     11  H9  <0> d          -0.923  -1.468   3.813  0.00  0.00     0.169 HD
ENDROOT
BRANCH   5  12
ATOM     12  N3  <0> d           0.590  -6.086   1.899  0.00  0.00    -0.372 N 
ATOM     13  C15 <0> d          -0.022  -6.606   3.136  0.00  0.00     0.199 C 
ATOM     14  C14 <0> d           0.866  -7.715   3.642  0.00  0.00     0.101 A 
ATOM     15  N4  <0> d           1.884  -8.248   2.925  0.00  0.00    -0.342 N 
ATOM     16  N5  <0> d           0.804  -8.317   4.792  0.00  0.00    -0.353 N 
ATOM     17  C11 <0> d           2.280  -7.827   1.579  0.00  0.00     0.149 C 
ATOM     18  C12 <0> d           2.451  -9.225   3.691  0.00  0.00     0.109 A 
ATOM     19  C10 <0> d           1.125  -7.056   0.931  0.00  0.00     0.143 C 
ATOM     20  C13 <0> d           1.766  -9.253   4.852  0.00  0.00     0.106 A 
ATOM     21  H18 <0> d           0.166  -8.122   5.495  0.00  0.00     0.166 HD
ENDBRANCH   5  12
BRANCH   1  22
ATOM     22  N1  <0> d           0.014  -0.007  -0.011  0.00  0.00    -0.062 N 
ATOM     23  C1  <0> d          -0.010   1.462  -0.005  0.00  0.00     0.268 C 
ATOM     24  H5  <0> d          -0.931  -0.359  -0.018  0.00  0.00     0.278 HD
ATOM     25  H19 <0> d           0.500  -0.332  -0.834  0.00  0.00     0.278 HD
ENDBRANCH   1  22
TORSDOF 2
