REMARK  6 active torsions:
REMARK  status: ('A' for Active; 'I' for Inactive)
REMARK    1  A    between atoms: C4_4  and  C7_7 
REMARK    2  A    between atoms: C7_7  and  C8_8 
REMARK    3  A    between atoms: C8_8  and  N1_9 
REMARK    4  A    between atoms: N2_12  and  C13_15 
REMARK    5  A    between atoms: N4_28  and  C23_29 
REMARK    6  A    between atoms: C23_29  and  C24_30 
REMARK       I    between atoms: C24_30  and  N5_32 
ROOT
ATOM      1  C13 <0> d           9.408  -1.946   2.482  0.00  0.00     0.709 A 
ATOM      2  N3  <0> d           9.684  -0.833   3.130  0.00  0.00    -0.056 NA
ATOM      3  C14 <0> d          10.881  -0.640   3.671  0.00  0.00     0.133 A 
ATOM      4  C15 <0> d          11.903  -1.600   3.585  0.00  0.00     0.076 A 
ATOM      5  C16 <0> d          13.169  -1.246   4.230  0.00  0.00    -0.026 A 
ATOM      6  C17 <0> d          13.230  -0.045   4.840  0.00  0.00    -0.008 A 
ATOM      7  S1  <0> d          11.630   0.677   4.596  0.00  0.00    -0.073 SA
ATOM      8  C18 <0> d          14.400   0.546   5.565  0.00  0.00     0.047 C 
ATOM      9  C19 <0> d          15.417  -0.572   5.837  0.00  0.00     0.005 C 
ATOM     10  C20 <0> d          15.630  -1.366   4.545  0.00  0.00     0.005 C 
ATOM     11  C21 <0> d          14.376  -2.179   4.223  0.00  0.00     0.041 C 
ATOM     12  C22 <0> d          11.574  -2.799   2.876  0.00  0.00     0.276 A 
ATOM     13  O1  <0> d          12.398  -3.688   2.750  0.00  0.00    -0.266 OA
ATOM     14  N4  <0> d          10.340  -2.932   2.355  0.00  0.00    -0.136 N 
ENDROOT
BRANCH   1  15
ATOM     15  N2  <0> d           8.162  -2.118   1.932  0.00  0.00    -0.212 N 
ATOM     16  C10 <0> d           7.873  -1.675   0.559  0.00  0.00     0.169 C 
ATOM     17  C9  <0> d           6.597  -0.828   0.580  0.00  0.00     0.255 C 
ATOM     18  N1  <0> d           5.513  -1.592   1.210  0.00  0.00    -0.068 N 
ATOM     19  C12 <0> d           5.838  -1.851   2.619  0.00  0.00     0.255 C 
ATOM     20  H30 <0> d           5.398  -2.470   0.726  0.00  0.00     0.280 HD
ATOM     21  C11 <0> d           7.077  -2.749   2.699  0.00  0.00     0.169 C 
BRANCH  18  22
ATOM     22  C8  <0> d           4.264  -0.824   1.131  0.00  0.00     0.239 C 
BRANCH  22  23
ATOM     23  C7  <0> d           3.858  -0.660  -0.334  0.00  0.00     0.066 C 
BRANCH  23  24
ATOM     24  C4  <0> d           2.576   0.129  -0.415  0.00  0.00    -0.057 A 
ATOM     25  C3  <0> d           2.618   1.507  -0.513  0.00  0.00     0.007 A 
ATOM     26  C2  <0> d           1.442   2.230  -0.589  0.00  0.00     0.001 A 
ATOM     27  C1  <0> d           0.225   1.575  -0.566  0.00  0.00     0.000 A 
ATOM     28  C6  <0> d           0.183   0.197  -0.469  0.00  0.00     0.001 A 
ATOM     29  C5  <0> d           1.359  -0.526  -0.392  0.00  0.00     0.007 A 
ENDBRANCH  23  24
ENDBRANCH  22  23
ENDBRANCH  18  22
ENDBRANCH   1  15
BRANCH  14  30
ATOM     30  C23 <0> d           9.995  -4.159   1.633  0.00  0.00     0.253 C 
BRANCH  30  31
ATOM     31  C24 <0> d          10.411  -4.027   0.190  0.00  0.00     0.234 C 
ATOM     32  O2  <0> d          10.944  -3.008  -0.196  0.00  0.00    -0.272 OA
ATOM     33  N5  <0> d          10.191  -5.040  -0.670  0.00  0.00    -0.369 N 
ATOM     34  H28 <0> d           9.765  -5.855  -0.361  0.00  0.00     0.159 HD
ATOM     35  H29 <0> d          10.459  -4.955  -1.599  0.00  0.00     0.159 HD
ENDBRANCH  30  31
ENDBRANCH  14  30
TORSDOF 6
