REMARK  7 active torsions:
REMARK  status: ('A' for Active; 'I' for Inactive)
REMARK    1  A    between atoms: C3_5  and  S1_15 
REMARK    2  A    between atoms: N3_6  and  C4_7 
REMARK    3  A    between atoms: C7_10  and  O1_13 
REMARK    4  A    between atoms: S1_15  and  C11_16 
REMARK    5  A    between atoms: C11_16  and  C12_17 
REMARK       I    between atoms: C12_17  and  N4_19 
REMARK    6  A    between atoms: N4_19  and  C13_20 
REMARK    7  A    between atoms: C18_25  and  N5_26 
REMARK       I    between atoms: N5_26  and  C19_27 
ROOT
ATOM      1  C12 <0> d           0.090  -6.247   1.004  0.00  0.00     0.231 C 
ATOM      2  O2  <0> d           0.080  -6.311   2.215  0.00  0.00    -0.272 OA
ATOM      3  N4  <0> d           0.102  -7.377   0.269  0.00  0.00    -0.324 N 
ATOM      4  H13 <0> d           0.029  -7.328  -0.697  0.00  0.00     0.169 HD
ENDROOT
BRANCH   1   5
ATOM      5  C11 <0> d           0.090  -4.904   0.320  0.00  0.00     0.185 C 
BRANCH   5   6
ATOM      6  S1  <0> d           0.073  -3.590   1.570  0.00  0.00    -0.080 SA
BRANCH   6   7
ATOM      7  C3  <0> d           0.074  -2.103   0.625  0.00  0.00     0.196 A 
ATOM      8  N2  <0> d           0.085  -2.009  -0.684  0.00  0.00    -0.122 NA
ATOM      9  N1  <0> d           0.082  -0.773  -1.035  0.00  0.00    -0.134 NA
ATOM     10  C2  <0> d           0.070  -0.007   0.019  0.00  0.00     0.131 A 
ATOM     11  C1  <0> d           0.064   1.500   0.029  0.00  0.00     0.093 C 
ATOM     12  N3  <0> d           0.071  -0.826   1.117  0.00  0.00    -0.276 N 
BRANCH  12  13
ATOM     13  C4  <0> d           0.065  -0.437   2.466  0.00  0.00     0.043 A 
ATOM     14  C9  <0> d          -1.026  -0.737   3.270  0.00  0.00     0.033 A 
ATOM     15  C8  <0> d          -1.028  -0.359   4.598  0.00  0.00     0.039 A 
ATOM     16  C7  <0> d           0.053   0.332   5.125  0.00  0.00     0.068 A 
ATOM     17  C6  <0> d           1.141   0.637   4.320  0.00  0.00     0.039 A 
ATOM     18  C5  <0> d           1.147   0.254   2.994  0.00  0.00     0.033 A 
BRANCH  16  19
ATOM     19  O1  <0> d           0.048   0.709   6.432  0.00  0.00    -0.356 OA
ATOM     20  C10 <0> d          -1.104   0.361   7.202  0.00  0.00     0.210 C 
ENDBRANCH  16  19
ENDBRANCH  12  13
ENDBRANCH   6   7
ENDBRANCH   5   6
ENDBRANCH   1   5
BRANCH   3  21
ATOM     21  C13 <0> d           0.219  -8.623   0.900  0.00  0.00     0.065 A 
ATOM     22  C18 <0> d          -0.274  -9.770   0.280  0.00  0.00     0.065 A 
ATOM     23  C17 <0> d          -0.150 -11.001   0.906  0.00  0.00     0.077 A 
ATOM     24  C16 <0> d           0.450 -11.088   2.149  0.00  0.00     0.157 A 
ATOM     25  C15 <0> d           0.935  -9.946   2.769  0.00  0.00     0.157 A 
ATOM     26  F1  <0> d           0.565 -12.287   2.760  0.00  0.00    -0.203 F 
ATOM     27  C14 <0> d           0.820  -8.716   2.147  0.00  0.00     0.077 A 
ATOM     28  F2  <0> d           1.522 -10.035   3.983  0.00  0.00    -0.203 F 
BRANCH  22  29
ATOM     29  N5  <0> d          -0.888  -9.679  -0.977  0.00  0.00    -0.325 N 
ATOM     30  C19 <0> d          -0.908 -10.749  -1.796  0.00  0.00     0.218 C 
ATOM     31  O3  <0> d          -0.309 -11.759  -1.489  0.00  0.00    -0.274 OA
ATOM     32  C20 <0> d          -1.674 -10.692  -3.092  0.00  0.00     0.117 C 
ATOM     33  H16 <0> d          -1.298  -8.846  -1.257  0.00  0.00     0.169 HD
ENDBRANCH  22  29
ENDBRANCH   3  21
TORSDOF 7
