REMARK  3 active torsions:
REMARK  status: ('A' for Active; 'I' for Inactive)
REMARK    1  A    between atoms: C3_3  and  C6_8 
REMARK       I    between atoms: C6_8  and  N2_10 
REMARK    2  A    between atoms: N2_10  and  C7_11 
REMARK    3  A    between atoms: C11_15  and  C16_23 
ROOT
ATOM      1  C7  <0> d          -0.118  -0.333  -4.708  0.00  0.00     0.037 A 
ATOM      2  C8  <0> d           0.209   0.960  -5.122  0.00  0.00     0.030 A 
ATOM      3  C9  <0> d           0.272   1.266  -6.449  0.00  0.00     0.016 A 
ATOM      4  C10 <0> d           0.008   0.277  -7.405  0.00  0.00    -0.002 A 
ATOM      5  C11 <0> d           0.069   0.575  -8.836  0.00  0.00    -0.037 A 
ATOM      6  C12 <0> d          -0.196  -0.421  -9.718  0.00  0.00     0.082 A 
ATOM      7  C13 <0> d          -0.522  -1.712  -9.255  0.00  0.00     0.246 A 
ATOM      8  O2  <0> d          -0.756  -2.593 -10.065  0.00  0.00    -0.268 OA
ATOM      9  N3  <0> d          -0.580  -1.997  -7.942  0.00  0.00    -0.323 N 
ATOM     10  H1  <0> d          -0.808  -2.896  -7.658  0.00  0.00     0.169 HD
ATOM     11  C14 <0> d          -0.322  -1.029  -6.994  0.00  0.00     0.048 A 
ATOM     12  C15 <0> d          -0.378  -1.325  -5.639  0.00  0.00     0.060 A 
ENDROOT
BRANCH   1  13
ATOM     13  N2  <0> d          -0.179  -0.628  -3.346  0.00  0.00    -0.322 N 
ATOM     14  C6  <0> d          -1.077  -1.523  -2.890  0.00  0.00     0.265 C 
ATOM     15  O1  <0> d          -1.897  -2.003  -3.650  0.00  0.00    -0.267 OA
ATOM     16  H8  <0> d           0.426  -0.189  -2.728  0.00  0.00     0.169 HD
BRANCH  14  17
ATOM     17  C3  <0> d          -1.066  -1.919  -1.478  0.00  0.00     0.099 A 
ATOM     18  C2  <0> d          -1.879  -2.804  -0.805  0.00  0.00     0.054 A 
ATOM     19  C1  <0> d          -2.989  -3.548  -1.503  0.00  0.00     0.072 C 
ATOM     20  N1  <0> d          -1.642  -2.962   0.473  0.00  0.00    -0.250 NA
ATOM     21  C4  <0> d          -0.671  -2.316   1.078  0.00  0.00     0.072 A 
ATOM     22  S1  <0> d           0.006  -1.387  -0.152  0.00  0.00    -0.068 SA
ATOM     23  C5  <0> d          -0.263  -2.386   2.527  0.00  0.00     0.078 C 
ENDBRANCH  14  17
ENDBRANCH   1  13
BRANCH   5  24
ATOM     24  C16 <0> d           0.418   1.959  -9.320  0.00  0.00     0.011 C 
ATOM     25  C17 <0> d           1.926   2.181  -9.186  0.00  0.00     0.015 C 
ATOM     26  C18 <0> d           0.010   2.104 -10.787  0.00  0.00     0.015 C 
ENDBRANCH   5  24
TORSDOF 3
