REMARK  9 active torsions:
REMARK  status: ('A' for Active; 'I' for Inactive)
REMARK    1  A    between atoms: C2_2  and  O1_3 
REMARK    2  A    between atoms: O1_3  and  C3_4 
REMARK    3  A    between atoms: C8_9  and  C9_10 
REMARK    4  A    between atoms: C10_11  and  C17_24 
REMARK    5  A    between atoms: C12_15  and  S1_19 
REMARK    6  A    between atoms: S1_19  and  C15_20 
REMARK    7  A    between atoms: C15_20  and  C16_21 
REMARK       I    between atoms: C16_21  and  N3_23 
REMARK    8  A    between atoms: C17_24  and  O5_26 
REMARK    9  A    between atoms: O5_26  and  C18_27 
ROOT
ATOM      1  C9  <0> d          -3.681  -1.676  -0.473  0.00  0.00     0.089 C 
ATOM      2  C10 <0> d          -5.035  -2.120  -1.031  0.00  0.00     0.179 C 
ATOM      3  C11 <0> d          -6.141  -1.591  -0.155  0.00  0.00     0.193 C 
ATOM      4  O2  <0> d          -7.307  -1.222  -0.715  0.00  0.00    -0.174 OA
ATOM      5  N1  <0> d          -5.989  -1.486   1.130  0.00  0.00    -0.217 NA
ATOM      6  C12 <0> d          -4.824  -1.799   1.742  0.00  0.00     0.114 C 
ATOM      7  C13 <0> d          -3.658  -1.922   1.016  0.00  0.00     0.068 C 
ATOM      8  C14 <0> d          -2.435  -2.283   1.669  0.00  0.00     0.099 C 
ATOM      9  N2  <0> d          -1.465  -2.570   2.186  0.00  0.00    -0.192 NA
ENDROOT
BRANCH   1  10
ATOM     10  C8  <0> d          -2.580  -2.466  -1.132  0.00  0.00    -0.014 A 
ATOM     11  C3  <0> d          -1.264  -2.288  -0.734  0.00  0.00     0.075 A 
ATOM     12  C4  <0> d          -0.253  -3.021  -1.339  0.00  0.00     0.037 A 
ATOM     13  C5  <0> d          -0.559  -3.922  -2.340  0.00  0.00     0.003 A 
ATOM     14  C6  <0> d          -1.872  -4.094  -2.739  0.00  0.00     0.001 A 
ATOM     15  C7  <0> d          -2.881  -3.365  -2.138  0.00  0.00     0.011 A 
BRANCH  11  16
ATOM     16  O1  <0> d          -0.965  -1.401   0.252  0.00  0.00    -0.351 OA
BRANCH  16  17
ATOM     17  C2  <0> d           0.416  -1.239   0.582  0.00  0.00     0.171 C 
ATOM     18  C1  <0> d           0.555  -0.207   1.704  0.00  0.00     0.034 C 
ENDBRANCH  16  17
ENDBRANCH  11  16
ENDBRANCH   1  10
BRANCH   6  19
ATOM     19  S1  <0> d          -4.795  -2.051   3.486  0.00  0.00    -0.100 SA
BRANCH  19  20
ATOM     20  C15 <0> d          -6.516  -1.787   3.995  0.00  0.00     0.183 C 
BRANCH  20  21
ATOM     21  C16 <0> d          -6.633  -1.974   5.486  0.00  0.00     0.225 C 
ATOM     22  O3  <0> d          -5.652  -2.258   6.140  0.00  0.00    -0.273 OA
ATOM     23  N3  <0> d          -7.827  -1.827   6.093  0.00  0.00    -0.369 N 
ATOM     24  H14 <0> d          -8.612  -1.600   5.569  0.00  0.00     0.159 HD
ATOM     25  H15 <0> d          -7.903  -1.947   7.052  0.00  0.00     0.159 HD
ENDBRANCH  20  21
ENDBRANCH  19  20
ENDBRANCH   6  19
BRANCH   2  26
ATOM     26  C17 <0> d          -5.097  -3.625  -1.062  0.00  0.00     0.272 C 
ATOM     27  O4  <0> d          -4.530  -4.271  -0.212  0.00  0.00    -0.264 OA
BRANCH  26  28
ATOM     28  O5  <0> d          -5.780  -4.249  -2.034  0.00  0.00    -0.321 OA
BRANCH  28  29
ATOM     29  C18 <0> d          -5.796  -5.678  -2.002  0.00  0.00     0.174 C 
ATOM     30  C19 <0> d          -6.618  -6.206  -3.179  0.00  0.00     0.034 C 
ENDBRANCH  28  29
ENDBRANCH  26  28
ENDBRANCH   2  26
TORSDOF 9
