REMARK  6 active torsions:
REMARK  status: ('A' for Active; 'I' for Inactive)
REMARK    1  A    between atoms: C6_6  and  N1_9 
REMARK       I    between atoms: N1_9  and  C9_10 
REMARK    2  A    between atoms: C9_10  and  C10_12 
REMARK    3  A    between atoms: C13_15  and  C16_18 
REMARK    4  A    between atoms: C16_18  and  N2_19 
REMARK    5  A    between atoms: C19_22  and  O3_25 
REMARK    6  A    between atoms: C20_23  and  O2_24 
ROOT
ATOM      1  C10 <0> d           1.936  -4.254   4.128  0.00  0.00     0.078 C 
ATOM      2  C11 <0> d           3.439  -4.283   3.848  0.00  0.00     0.014 C 
ATOM      3  C12 <0> d           4.179  -4.790   5.088  0.00  0.00     0.007 C 
ATOM      4  C13 <0> d           3.696  -6.201   5.428  0.00  0.00     0.005 C 
ATOM      5  C14 <0> d           2.193  -6.172   5.709  0.00  0.00     0.007 C 
ATOM      6  C15 <0> d           1.453  -5.665   4.469  0.00  0.00     0.014 C 
ENDROOT
BRANCH   4   7
ATOM      7  C16 <0> d           4.436  -6.708   6.668  0.00  0.00     0.154 C 
BRANCH   7   8
ATOM      8  N2  <0> d           4.063  -8.101   6.924  0.00  0.00    -0.284 NA
ATOM      9  C17 <0> d           4.957  -9.044   6.828  0.00  0.00     0.116 A 
ATOM     10  C20 <0> d           6.394  -9.090   6.495  0.00  0.00     0.132 A 
ATOM     11  C18 <0> d           4.951 -10.524   7.001  0.00  0.00     0.098 A 
ATOM     12  C19 <0> d           6.387 -10.460   6.663  0.00  0.00     0.130 A 
ATOM     13  N3  <0> d           4.083 -11.445   7.309  0.00  0.00    -0.377 N 
ATOM     14  C24 <0> d           4.363 -12.889   7.412  0.00  0.00     0.123 C 
ATOM     15  C21 <0> d           2.661 -11.219   7.604  0.00  0.00     0.123 C 
ATOM     16  C23 <0> d           3.267 -13.436   8.364  0.00  0.00     0.021 C 
ATOM     17  C22 <0> d           2.038 -12.591   7.938  0.00  0.00     0.021 C 
BRANCH  10  18
ATOM     18  O2  <0> d           7.331  -8.170   6.163  0.00  0.00    -0.356 OA
ATOM     19  H38 <0> d           8.209  -8.543   6.002  0.00  0.00     0.218 HD
ENDBRANCH  10  18
BRANCH  12  20
ATOM     20  O3  <0> d           7.349 -11.407   6.552  0.00  0.00    -0.356 OA
ATOM     21  H29 <0> d           8.218 -11.058   6.311  0.00  0.00     0.218 HD
ENDBRANCH  12  20
ENDBRANCH   7   8
ENDBRANCH   4   7
BRANCH   1  22
ATOM     22  C9  <0> d           1.207  -3.754   2.907  0.00  0.00     0.222 C 
ATOM     23  N1  <0> d           1.471  -2.526   2.420  0.00  0.00    -0.356 N 
ATOM     24  H16 <0> d           2.131  -1.963   2.855  0.00  0.00     0.162 HD
ATOM     25  O1  <0> d           0.382  -4.458   2.364  0.00  0.00    -0.273 OA
BRANCH  23  26
ATOM     26  C6  <0> d           0.763  -2.041   1.233  0.00  0.00     0.088 C 
ATOM     27  C5  <0> d           1.479  -2.534  -0.026  0.00  0.00     0.025 C 
ATOM     28  C4  <0> d           0.739  -2.027  -1.265  0.00  0.00     0.002 C 
ATOM     29  C3  <0> d           0.718  -0.497  -1.257  0.00  0.00     0.005 C 
ATOM     30  C2  <0> d           0.002  -0.004   0.002  0.00  0.00    -0.013 C 
ATOM     31  C1  <0> d          -0.019   1.526   0.010  0.00  0.00     0.010 C 
ATOM     32  C7  <0> d           0.742  -0.511   1.242  0.00  0.00     0.008 C 
ATOM     33  C8  <0> d           0.026  -0.018   2.500  0.00  0.00     0.012 C 
ENDBRANCH  23  26
ENDBRANCH   1  22
TORSDOF 6
