REMARK  4 active torsions:
REMARK  status: ('A' for Active; 'I' for Inactive)
REMARK       I    between atoms: C2_2  and  N1_4 
REMARK    1  A    between atoms: C5_7  and  C8_10 
REMARK       I    between atoms: C8_10  and  N2_12 
REMARK    2  A    between atoms: C10_14  and  C17_22 
REMARK       I    between atoms: C17_22  and  N4_24 
REMARK    3  A    between atoms: N4_24  and  C18_25 
REMARK    4  A    between atoms: C18_25  and  C19_26 
ROOT
ATOM      1  C8  <0> d          -1.814  -2.637  -4.384  0.00  0.00     0.224 C 
ATOM      2  O2  <0> d          -2.551  -1.887  -4.989  0.00  0.00    -0.273 OA
ATOM      3  N2  <0> d          -1.925  -3.970  -4.548  0.00  0.00    -0.350 N 
ATOM      4  C9  <0> d          -1.063  -5.030  -3.977  0.00  0.00     0.140 C 
ATOM      5  C10 <0> d          -2.041  -6.162  -3.589  0.00  0.00     0.106 C 
ATOM      6  C11 <0> d          -3.269  -5.945  -4.489  0.00  0.00    -0.007 C 
ATOM      7  C12 <0> d          -2.943  -4.706  -5.336  0.00  0.00     0.136 C 
ATOM      8  C13 <0> d          -4.508  -5.684  -3.638  0.00  0.00     0.039 C 
ATOM      9  C14 <0> d          -5.726  -5.527  -4.553  0.00  0.00     0.233 C 
ATOM     10  N3  <0> d          -5.902  -6.749  -5.349  0.00  0.00    -0.075 N 
ATOM     11  C15 <0> d          -4.746  -6.942  -6.232  0.00  0.00     0.233 C 
ATOM     12  C16 <0> d          -3.487  -7.158  -5.388  0.00  0.00     0.039 C 
ATOM     13  H23 <0> d          -5.988  -7.542  -4.731  0.00  0.00     0.277 HD
ATOM     14  H39 <0> d          -6.740  -6.668  -5.906  0.00  0.00     0.277 HD
ENDROOT
BRANCH   5  15
ATOM     15  C17 <0> d          -1.420  -7.508  -3.861  0.00  0.00     0.224 C 
ATOM     16  O3  <0> d          -0.551  -7.617  -4.701  0.00  0.00    -0.273 OA
ATOM     17  N4  <0> d          -1.829  -8.591  -3.171  0.00  0.00    -0.358 N 
ATOM     18  H28 <0> d          -2.524  -8.504  -2.499  0.00  0.00     0.162 HD
BRANCH  17  19
ATOM     19  C18 <0> d          -1.225  -9.899  -3.435  0.00  0.00     0.156 C 
BRANCH  19  20
ATOM     20  C19 <0> d          -1.865 -10.950  -2.524  0.00  0.00     0.166 C 
ATOM     21  O5  <0> d          -3.238 -11.200  -2.906  0.00  0.00    -0.347 OA
ATOM     22  C21 <0> d          -3.507 -12.538  -2.454  0.00  0.00     0.157 C 
ATOM     23  O4  <0> d          -2.267 -13.252  -2.358  0.00  0.00    -0.353 OA
ATOM     24  C22 <0> d          -4.179 -12.490  -1.081  0.00  0.00     0.078 C 
ATOM     25  C23 <0> d          -4.430 -13.243  -3.450  0.00  0.00     0.078 C 
ATOM     26  C20 <0> d          -1.218 -12.340  -2.742  0.00  0.00     0.205 C 
ENDBRANCH  19  20
ENDBRANCH  17  19
ENDBRANCH   5  15
BRANCH   1  27
ATOM     27  C5  <0> d          -0.773  -2.077  -3.449  0.00  0.00     0.081 C 
ATOM     28  C4  <0> d          -0.415  -0.652  -3.878  0.00  0.00     0.034 C 
ATOM     29  C3  <0> d           0.667  -0.099  -2.946  0.00  0.00     0.126 C 
ATOM     30  N1  <0> d           0.199  -0.212  -1.558  0.00  0.00    -0.352 N 
ATOM     31  C2  <0> d           0.187   0.865  -0.748  0.00  0.00     0.215 C 
ATOM     32  C7  <0> d          -0.250  -1.522  -1.068  0.00  0.00     0.126 C 
ATOM     33  C1  <0> d          -0.172   0.710   0.707  0.00  0.00     0.117 C 
ATOM     34  O1  <0> d           0.465   1.960  -1.190  0.00  0.00    -0.274 OA
ATOM     35  C6  <0> d          -1.327  -2.058  -2.022  0.00  0.00     0.034 C 
ENDBRANCH   1  27
TORSDOF 4
