REMARK  4 active torsions:
REMARK  status: ('A' for Active; 'I' for Inactive)
REMARK    1  A    between atoms: C2_2  and  C3_3 
REMARK    2  A    between atoms: C2_2  and  N3_15 
REMARK       I    between atoms: C3_3  and  N1_5 
REMARK    3  A    between atoms: N1_5  and  C4_6 
REMARK       I    between atoms: N3_15  and  C11_16 
REMARK    4  A    between atoms: C11_16  and  C12_18 
ROOT
ATOM      1  C1  <0> d          -0.019   1.526   0.010  0.00  0.00     0.042 C 
ATOM      2  C2  <0> d           0.002  -0.004   0.002  0.00  0.00     0.172 C 
ENDROOT
BRANCH   2   3
ATOM      3  C3  <0> d           0.707  -0.490  -1.238  0.00  0.00     0.242 C 
ATOM      4  O1  <0> d           1.704  -1.174  -1.140  0.00  0.00    -0.271 OA
ATOM      5  N1  <0> d           0.231  -0.164  -2.456  0.00  0.00    -0.329 N 
ATOM      6  H7  <0> d          -0.566   0.383  -2.534  0.00  0.00     0.165 HD
BRANCH   5   7
ATOM      7  C4  <0> d           0.917  -0.637  -3.661  0.00  0.00     0.254 A 
ATOM      8  S1  <0> d           2.388   0.400  -4.034  0.00  0.00    -0.081 SA
ATOM      9  C10 <0> d           1.864   1.016  -5.620  0.00  0.00     0.030 A 
ATOM     10  C5  <0> d           0.609   0.439  -5.839  0.00  0.00     0.047 A 
ATOM     11  C9  <0> d           2.456   1.866  -6.525  0.00  0.00     0.021 A 
ATOM     12  N2  <0> d           0.097  -0.409  -4.859  0.00  0.00    -0.359 N 
ATOM     13  C6  <0> d          -0.029   0.773  -7.047  0.00  0.00     0.030 A 
ATOM     14  H8  <0> d          -0.769  -0.834  -4.964  0.00  0.00     0.162 HD
ATOM     15  C7  <0> d           0.562   1.623  -7.953  0.00  0.00     0.002 A 
ATOM     16  C8  <0> d           1.805   2.178  -7.707  0.00  0.00     0.002 A 
ENDBRANCH   5   7
ENDBRANCH   2   3
BRANCH   2  17
ATOM     17  N3  <0> d           0.711  -0.489   1.189  0.00  0.00    -0.346 N 
ATOM     18  C11 <0> d           0.051  -0.633   2.355  0.00  0.00     0.244 C 
ATOM     19  O2  <0> d          -1.129  -0.361   2.423  0.00  0.00    -0.271 OA
ATOM     20  H13 <0> d           1.654  -0.707   1.135  0.00  0.00     0.163 HD
BRANCH  18  21
ATOM     21  C12 <0> d           0.780  -1.133   3.576  0.00  0.00     0.198 A 
ATOM     22  N4  <0> d          -0.143  -1.230   4.712  0.00  0.00    -0.373 N 
ATOM     23  C19 <0> d          -0.189  -2.481   5.106  0.00  0.00     0.039 A 
ATOM     24  H19 <0> d          -0.637  -0.493   5.105  0.00  0.00     0.161 HD
ATOM     25  C14 <0> d           0.700  -3.316   4.267  0.00  0.00    -0.011 A 
ATOM     26  C18 <0> d          -0.915  -3.119   6.150  0.00  0.00     0.030 A 
ATOM     27  C13 <0> d           1.296  -2.534   3.338  0.00  0.00     0.021 A 
ATOM     28  C15 <0> d           0.782  -4.752   4.559  0.00  0.00     0.013 A 
ATOM     29  C16 <0> d           0.048  -5.258   5.576  0.00  0.00     0.001 A 
ATOM     30  C17 <0> d          -0.787  -4.446   6.357  0.00  0.00     0.002 A 
ENDBRANCH  18  21
ENDBRANCH   2  17
TORSDOF 4
