REMARK  4 active torsions:
REMARK  status: ('A' for Active; 'I' for Inactive)
REMARK    1  A    between atoms: C2_2  and  C3_3 
REMARK    2  A    between atoms: N1_6  and  C8_9 
REMARK    3  A    between atoms: C8_9  and  C9_10 
REMARK    4  A    between atoms: C13_14  and  N2_15 
ROOT
ATOM      1  C3  <0> d          -1.433  -0.534   0.013  0.00  0.00    -0.041 C 
ATOM      2  C4  <0> d          -2.172  -0.035  -1.232  0.00  0.00     0.037 C 
ATOM      3  C5  <0> d          -3.581  -0.633  -1.256  0.00  0.00     0.235 C 
ATOM      4  N1  <0> d          -3.495  -2.098  -1.290  0.00  0.00    -0.071 N 
ATOM      5  C6  <0> d          -2.851  -2.587  -0.065  0.00  0.00     0.235 C 
ATOM      6  C7  <0> d          -1.414  -2.065   0.004  0.00  0.00     0.037 C 
ATOM      7  C15 <0> d          -2.152  -0.038   1.269  0.00  0.00     0.015 C 
ATOM      8  H32 <0> d          -2.952  -2.383  -2.091  0.00  0.00     0.279 HD
ENDROOT
BRANCH   4   9
ATOM      9  C8  <0> d          -4.846  -2.664  -1.391  0.00  0.00     0.241 C 
BRANCH   9  10
ATOM     10  C9  <0> d          -4.752  -4.183  -1.552  0.00  0.00     0.042 C 
ATOM     11  C13 <0> d          -6.161  -4.801  -1.551  0.00  0.00     0.191 C 
ATOM     12  C12 <0> d          -6.333  -5.504  -2.915  0.00  0.00     0.033 C 
ATOM     13  C11 <0> d          -4.884  -5.794  -3.378  0.00  0.00     0.002 C 
ATOM     14  C10 <0> d          -4.117  -4.531  -2.914  0.00  0.00     0.008 C 
BRANCH  11  15
ATOM     15  N2  <0> d          -7.173  -3.748  -1.396  0.00  0.00    -0.074 N 
ATOM     16  C14 <0> d          -8.503  -4.360  -1.276  0.00  0.00     0.267 C 
ATOM     17  H24 <0> d          -6.974  -3.210  -0.565  0.00  0.00     0.277 HD
ATOM     18  H31 <0> d          -7.153  -3.141  -2.202  0.00  0.00     0.277 HD
ENDBRANCH  11  15
ENDBRANCH   9  10
ENDBRANCH   4   9
BRANCH   1  19
ATOM     19  C2  <0> d           0.002  -0.004   0.002  0.00  0.00     0.005 C 
ATOM     20  C1  <0> d          -0.019   1.526   0.010  0.00  0.00     0.006 C 
ENDBRANCH   1  19
TORSDOF 4
