REMARK  5 active torsions:
REMARK  status: ('A' for Active; 'I' for Inactive)
REMARK    1  A    between atoms: C2_2  and  N1_3 
REMARK    2  A    between atoms: C5_6  and  C7_10 
REMARK    3  A    between atoms: N3_17  and  C13_19 
REMARK    4  A    between atoms: C13_19  and  C14_20 
REMARK       I    between atoms: C14_20  and  N4_22 
REMARK    5  A    between atoms: N4_22  and  C15_23 
ROOT
ATOM      1  N1  <0> d           0.688  -0.476  -1.203  0.00  0.00    -0.302 N 
ATOM      2  C3  <0> d          -0.057  -0.690  -2.328  0.00  0.00     0.048 A 
ATOM      3  C4  <0> d           0.512  -1.125  -3.471  0.00  0.00     0.061 A 
ATOM      4  C5  <0> d           2.007  -1.367  -3.465  0.00  0.00     0.161 A 
ATOM      5  N2  <0> d           2.720  -1.107  -2.203  0.00  0.00    -0.330 N 
ATOM      6  C6  <0> d           2.012  -0.670  -1.144  0.00  0.00     0.323 A 
ATOM      7  O1  <0> d           2.592  -0.448  -0.099  0.00  0.00    -0.247 OA
ATOM      8  C11 <0> d          -0.463  -1.267  -4.480  0.00  0.00     0.255 A 
ATOM      9  O2  <0> d          -0.229  -1.644  -5.614  0.00  0.00    -0.268 OA
ATOM     10  N3  <0> d          -1.684  -0.932  -4.027  0.00  0.00    -0.334 N 
ATOM     11  C12 <0> d          -1.533  -0.536  -2.619  0.00  0.00     0.184 A 
ATOM     12  H7  <0> d           3.679  -1.244  -2.137  0.00  0.00     0.165 HD
ENDROOT
BRANCH  10  13
ATOM     13  C13 <0> d          -2.932  -0.957  -4.793  0.00  0.00     0.229 C 
BRANCH  13  14
ATOM     14  C14 <0> d          -3.580  -2.310  -4.655  0.00  0.00     0.236 C 
ATOM     15  O3  <0> d          -3.052  -3.170  -3.982  0.00  0.00    -0.272 OA
ATOM     16  N4  <0> d          -4.747  -2.566  -5.279  0.00  0.00    -0.352 N 
ATOM     17  H15 <0> d          -5.170  -1.879  -5.817  0.00  0.00     0.163 HD
BRANCH  16  18
ATOM     18  C15 <0> d          -5.377  -3.882  -5.144  0.00  0.00     0.022 C 
ATOM     19  C16 <0> d          -5.679  -4.154  -3.668  0.00  0.00     0.037 C 
ATOM     20  C17 <0> d          -6.681  -3.908  -5.944  0.00  0.00     0.037 C 
ATOM     21  C18 <0> d          -4.430  -4.958  -5.677  0.00  0.00     0.037 C 
ENDBRANCH  16  18
ENDBRANCH  13  14
ENDBRANCH  10  13
BRANCH   4  22
ATOM     22  C7  <0> d           2.623  -0.500  -4.533  0.00  0.00    -0.024 A 
ATOM     23  C10 <0> d           2.855   0.815  -4.302  0.00  0.00     0.059 A 
ATOM     24  S1  <0> d           3.573   1.341  -5.850  0.00  0.00    -0.113 SA
ATOM     25  C9  <0> d           3.506  -0.226  -6.703  0.00  0.00     0.050 A 
ATOM     26  C8  <0> d           2.954  -1.033  -5.765  0.00  0.00     0.017 A 
ENDBRANCH   4  22
BRANCH   1  27
ATOM     27  C2  <0> d           0.002  -0.004   0.002  0.00  0.00     0.129 C 
ATOM     28  C1  <0> d          -0.019   1.526   0.010  0.00  0.00     0.027 C 
ENDBRANCH   1  27
TORSDOF 5
