REMARK  5 active torsions:
REMARK  status: ('A' for Active; 'I' for Inactive)
REMARK    1  A    between atoms: C6_7  and  N5_20 
REMARK    2  A    between atoms: C7_9  and  C8_11 
REMARK    3  A    between atoms: C8_11  and  N3_12 
REMARK    4  A    between atoms: N3_12  and  C10_14 
REMARK    5  A    between atoms: C10_14  and  C11_15 
REMARK       I    between atoms: C11_15  and  N4_17 
ROOT
ATOM      1  C1  <0> d          -1.596   1.384   0.669  0.00  0.00     0.050 C 
ATOM      2  C2  <0> d          -1.424  -0.111   0.597  0.00  0.00    -0.032 A 
ATOM      3  C3  <0> d          -2.079  -0.826  -0.330  0.00  0.00    -0.012 A 
ATOM      4  S1  <0> d          -1.557  -2.500  -0.011  0.00  0.00    -0.074 SA
ATOM      5  C4  <0> d          -0.472  -2.195   1.358  0.00  0.00     0.114 A 
ATOM      6  C5  <0> d          -0.541  -0.794   1.526  0.00  0.00     0.052 A 
ATOM      7  C6  <0> d           0.255  -0.267   2.579  0.00  0.00     0.137 A 
ATOM      8  N1  <0> d           0.991  -1.091   3.307  0.00  0.00    -0.214 NA
ATOM      9  C7  <0> d           1.012  -2.394   3.089  0.00  0.00     0.155 A 
ATOM     10  N2  <0> d           0.286  -2.944   2.134  0.00  0.00    -0.224 NA
ATOM     11  C14 <0> d          -3.032  -0.331  -1.388  0.00  0.00     0.057 C 
ENDROOT
BRANCH   9  12
ATOM     12  C8  <0> d           1.873  -3.273   3.958  0.00  0.00     0.315 C 
BRANCH  12  13
ATOM     13  N3  <0> d           1.098  -3.723   5.122  0.00  0.00    -0.060 N 
ATOM     14  C9  <0> d          -0.005  -4.582   4.672  0.00  0.00     0.270 C 
ATOM     15  H22 <0> d           0.723  -2.921   5.606  0.00  0.00     0.280 HD
BRANCH  13  16
ATOM     16  C10 <0> d           1.970  -4.480   6.029  0.00  0.00     0.337 C 
BRANCH  16  17
ATOM     17  C11 <0> d           1.207  -4.836   7.279  0.00  0.00     0.245 C 
ATOM     18  O1  <0> d           0.051  -4.492   7.402  0.00  0.00    -0.272 OA
ATOM     19  N4  <0> d           1.811  -5.535   8.261  0.00  0.00    -0.359 N 
ATOM     20  C12 <0> d           1.069  -5.881   9.476  0.00  0.00     0.152 C 
ATOM     21  C13 <0> d           3.208  -5.950   8.112  0.00  0.00     0.152 C 
ENDBRANCH  16  17
ENDBRANCH  13  16
ENDBRANCH  12  13
ENDBRANCH   9  12
BRANCH   7  22
ATOM     22  N5  <0> d           0.262   1.092   2.839  0.00  0.00    -0.383 N 
ATOM     23  H17 <0> d           0.110   1.724   2.119  0.00  0.00     0.157 HD
ATOM     24  H18 <0> d           0.418   1.412   3.741  0.00  0.00     0.157 HD
ENDBRANCH   7  22
TORSDOF 5
