REMARK  4 active torsions:
REMARK  status: ('A' for Active; 'I' for Inactive)
REMARK    1  A    between atoms: N1_4  and  C5_6 
REMARK    2  A    between atoms: N2_9  and  C9_11 
REMARK    3  A    between atoms: C9_11  and  C16_19 
REMARK    4  A    between atoms: C16_19  and  N4_20 
ROOT
ATOM      1  C9  <0> d           1.409  -5.056  -0.635  0.00  0.00     0.212 C 
ATOM      2  C10 <0> d           0.025  -5.560  -0.219  0.00  0.00     0.316 C 
ATOM      3  N3  <0> d           0.101  -6.995   0.087  0.00  0.00     0.091 N 
ATOM      4  C11 <0> d           0.505  -7.767  -1.096  0.00  0.00     0.273 C 
ATOM      5  C12 <0> d           1.902  -7.325  -1.538  0.00  0.00     0.037 C 
ATOM      6  C13 <0> d           2.398  -6.227  -0.588  0.00  0.00     0.031 C 
ATOM      7  C14 <0> d           2.422  -6.790   0.839  0.00  0.00     0.037 C 
ATOM      8  C15 <0> d           1.010  -7.247   1.214  0.00  0.00     0.273 C 
ENDROOT
BRANCH   1   9
ATOM      9  N2  <0> d           1.849  -4.003   0.290  0.00  0.00     0.104 N 
ATOM     10  C7  <0> d           1.164  -2.717  -0.002  0.00  0.00     0.276 C 
ATOM     11  C6  <0> d           1.285  -1.906   1.306  0.00  0.00     0.065 C 
ATOM     12  C5  <0> d           1.472  -2.960   2.416  0.00  0.00     0.218 C 
ATOM     13  C8  <0> d           1.450  -4.321   1.688  0.00  0.00     0.306 C 
BRANCH  12  14
ATOM     14  N1  <0> d           0.371  -2.882   3.385  0.00  0.00    -0.065 N 
ATOM     15  C3  <0> d           0.375  -1.558   4.059  0.00  0.00     0.235 C 
ATOM     16  C2  <0> d          -0.410  -1.825   5.368  0.00  0.00     0.029 C 
ATOM     17  C1  <0> d           0.051  -3.247   5.764  0.00  0.00     0.029 C 
ATOM     18  C4  <0> d           0.563  -3.882   4.458  0.00  0.00     0.235 C 
ATOM     19  H32 <0> d          -0.513  -3.034   2.922  0.00  0.00     0.280 HD
ENDBRANCH  12  14
ENDBRANCH   1   9
BRANCH   1  20
ATOM     20  C16 <0> d           1.347  -4.495  -2.057  0.00  0.00     0.273 C 
BRANCH  20  21
ATOM     21  N4  <0> d           2.680  -4.023  -2.456  0.00  0.00    -0.077 N 
ATOM     22  H29 <0> d           3.023  -3.365  -1.772  0.00  0.00     0.274 HD
ATOM     23  H30 <0> d           3.312  -4.808  -2.514  0.00  0.00     0.274 HD
ATOM     24  H31 <0> d           2.622  -3.571  -3.357  0.00  0.00     0.274 HD
ENDBRANCH  20  21
ENDBRANCH   1  20
TORSDOF 4
