REMARK  7 active torsions:
REMARK  status: ('A' for Active; 'I' for Inactive)
REMARK    1  A    between atoms: C6_6  and  C7_7 
REMARK    2  A    between atoms: C7_7  and  N1_8 
REMARK    3  A    between atoms: N2_11  and  C14_17 
REMARK    4  A    between atoms: C10_12  and  C12_14 
REMARK    5  A    between atoms: C12_14  and  C13_15 
REMARK    6  A    between atoms: C13_15  and  O1_16 
REMARK    7  A    between atoms: C14_17  and  C15_18 
ROOT
ATOM      1  N1  <0> d           0.606   0.699  -2.440  0.00  0.00     0.096 N 
ATOM      2  C8  <0> d           1.929   1.303  -2.233  0.00  0.00     0.300 C 
ATOM      3  C9  <0> d           2.454   0.912  -0.850  0.00  0.00     0.265 C 
ATOM      4  N2  <0> d           1.506   1.363   0.178  0.00  0.00    -0.059 N 
ATOM      5  C10 <0> d           0.182   0.759  -0.030  0.00  0.00     0.218 C 
ATOM      6  C11 <0> d          -0.343   1.151  -1.413  0.00  0.00     0.306 C 
ATOM      7  H23 <0> d           1.399   2.454   0.086  0.00  0.00     0.280 HD
ENDROOT
BRANCH   1   8
ATOM      8  C7  <0> d           0.100   0.990  -3.788  0.00  0.00     0.311 C 
BRANCH   8   9
ATOM      9  C6  <0> d          -0.157   2.470  -3.921  0.00  0.00    -0.028 A 
ATOM     10  C1  <0> d          -1.415   2.975  -3.593  0.00  0.00     0.011 A 
ATOM     11  C2  <0> d          -1.695   4.296  -3.689  0.00  0.00     0.035 A 
ATOM     12  C3  <0> d          -0.700   5.202  -4.142  0.00  0.00     0.096 A 
ATOM     13  N4  <0> d          -0.769   6.520  -4.311  0.00  0.00    -0.191 NA
ATOM     14  C4  <0> d           0.615   4.672  -4.490  0.00  0.00     0.096 A 
ATOM     15  S2  <0> d           0.639   6.969  -4.832  0.00  0.00     0.117 SA
ATOM     16  N3  <0> d           1.447   5.628  -4.898  0.00  0.00    -0.191 NA
ATOM     17  C5  <0> d           0.838   3.276  -4.360  0.00  0.00     0.043 A 
ENDBRANCH   8   9
ENDBRANCH   1   8
BRANCH   5  18
ATOM     18  C12 <0> d          -0.783   1.263   1.045  0.00  0.00     0.061 C 
BRANCH  18  19
ATOM     19  C13 <0> d          -2.143   0.585   0.867  0.00  0.00     0.166 C 
BRANCH  19  20
ATOM     20  O1  <0> d          -3.007   0.962   1.941  0.00  0.00    -0.401 OA
ATOM     21  H17 <0> d          -4.034   0.570   1.984  0.00  0.00     0.209 HD
ENDBRANCH  19  20
ENDBRANCH  18  19
ENDBRANCH   5  18
BRANCH   4  22
ATOM     22  C14 <0> d           2.011   1.072   1.526  0.00  0.00     0.274 C 
BRANCH  22  23
ATOM     23  C15 <0> d           3.284   1.844   1.762  0.00  0.00    -0.026 A 
ATOM     24  C18 <0> d           4.486   1.301   1.450  0.00  0.00     0.058 A 
ATOM     25  S1  <0> d           5.613   2.604   1.917  0.00  0.00    -0.113 SA
ATOM     26  C17 <0> d           4.406   3.781   2.506  0.00  0.00     0.050 A 
ATOM     27  C16 <0> d           3.243   3.114   2.306  0.00  0.00     0.016 A 
ENDBRANCH  22  23
ENDBRANCH   4  22
TORSDOF 7
