REMARK  7 active torsions:
REMARK  status: ('A' for Active; 'I' for Inactive)
REMARK    1  A    between atoms: C8_8  and  O4_28 
REMARK    2  A    between atoms: C13_15  and  C14_16 
REMARK    3  A    between atoms: C14_16  and  N1_32 
REMARK    4  A    between atoms: C16_18  and  C18_20 
REMARK    5  A    between atoms: C16_18  and  N1_32 
REMARK    6  A    between atoms: C18_20  and  C19_21 
REMARK    7  A    between atoms: C18_20  and  O3_27 
ROOT
ATOM      1  C1  <0> d          -3.499  -3.496   6.033  0.00  0.00     0.011 C 
ATOM      2  C2  <0> d          -2.639  -2.714   7.030  0.00  0.00    -0.003 C 
ATOM      3  C3  <0> d          -2.329  -3.614   8.226  0.00  0.00     0.009 C 
ATOM      4  C4  <0> d          -1.542  -2.796   9.254  0.00  0.00     0.028 C 
ATOM      5  C5  <0> d          -0.318  -2.237   8.586  0.00  0.00    -0.023 C 
ATOM      6  C6  <0> d          -0.250  -1.999   7.309  0.00  0.00    -0.070 C 
ATOM      7  C7  <0> d          -1.357  -2.268   6.332  0.00  0.00     0.009 C 
ATOM      8  C8  <0> d          -1.627  -1.020   5.503  0.00  0.00     0.138 C 
ATOM      9  C9  <0> d          -0.437  -0.224   5.070  0.00  0.00     0.060 C 
ATOM     10  C10 <0> d           0.695  -0.058   6.093  0.00  0.00     0.143 C 
ATOM     11  C11 <0> d           1.029  -1.397   6.762  0.00  0.00     0.068 C 
ATOM     12  O1  <0> d           1.858   0.289   5.264  0.00  0.00    -0.315 OA
ATOM     13  C12 <0> d           1.686  -0.108   3.994  0.00  0.00     0.265 C 
ATOM     14  O2  <0> d           2.496   0.015   3.102  0.00  0.00    -0.265 OA
ATOM     15  C13 <0> d           0.310  -0.742   3.836  0.00  0.00     0.120 C 
ATOM     16  C25 <0> d          -0.930  -3.413   5.403  0.00  0.00     0.023 C 
ENDROOT
BRANCH  15  17
ATOM     17  C14 <0> d          -0.355  -0.244   2.549  0.00  0.00     0.250 C 
BRANCH  17  18
ATOM     18  N1  <0> d           0.403  -0.760   1.390  0.00  0.00    -0.067 N 
ATOM     19  C15 <0> d           0.253  -2.228   1.300  0.00  0.00     0.270 C 
ATOM     20  H36 <0> d           1.396  -0.533   1.514  0.00  0.00     0.280 HD
BRANCH  18  21
ATOM     21  C16 <0> d          -0.083  -0.126   0.146  0.00  0.00     0.216 C 
ATOM     22  C17 <0> d           0.017   1.394   0.290  0.00  0.00     0.043 C 
BRANCH  21  23
ATOM     23  C18 <0> d           0.794  -0.586  -1.020  0.00  0.00     0.181 C 
BRANCH  23  24
ATOM     24  C19 <0> d           2.231  -0.229  -0.739  0.00  0.00    -0.028 A 
ATOM     25  C24 <0> d           3.070  -1.154  -0.146  0.00  0.00     0.010 A 
ATOM     26  C23 <0> d           4.388  -0.827   0.111  0.00  0.00     0.001 A 
ATOM     27  C22 <0> d           4.867   0.425  -0.224  0.00  0.00     0.000 A 
ATOM     28  C21 <0> d           4.029   1.351  -0.817  0.00  0.00     0.001 A 
ATOM     29  C20 <0> d           2.712   1.022  -1.079  0.00  0.00     0.010 A 
ENDBRANCH  23  24
BRANCH  23  30
ATOM     30  O3  <0> d           0.368   0.061  -2.221  0.00  0.00    -0.389 OA
ATOM     31  H31 <0> d           0.422   1.026  -2.187  0.00  0.00     0.210 HD
ENDBRANCH  23  30
ENDBRANCH  21  23
ENDBRANCH  18  21
ENDBRANCH  17  18
ENDBRANCH  15  17
BRANCH   8  32
ATOM     32  O4  <0> d          -2.494  -0.144   6.242  0.00  0.00    -0.394 OA
ATOM     33  H32 <0> d          -2.809   0.617   5.734  0.00  0.00     0.210 HD
ENDBRANCH   8  32
TORSDOF 7
