REMARK  3 active torsions:
REMARK  status: ('A' for Active; 'I' for Inactive)
REMARK    1  A    between atoms: C7_9  and  C8_11 
REMARK    2  A    between atoms: C14_17  and  N5_23 
REMARK    3  A    between atoms: C15_19  and  S2_21 
ROOT
ATOM      1  C1  <0> d          -0.018   1.503   0.010  0.00  0.00     0.071 C 
ATOM      2  C2  <0> d           0.002  -0.004   0.002  0.00  0.00     0.048 A 
ATOM      3  C3  <0> d          -0.006  -0.710  -1.225  0.00  0.00     0.052 A 
ATOM      4  C4  <0> d          -0.019  -0.187  -2.584  0.00  0.00     0.066 A 
ATOM      5  C5  <0> d          -0.021  -1.115  -3.602  0.00  0.00     0.077 A 
ATOM      6  S1  <0> d           0.006  -2.684  -2.800  0.00  0.00    -0.063 SA
ATOM      7  C6  <0> d           0.018  -2.125  -1.114  0.00  0.00     0.115 A 
ATOM      8  N1  <0> d           0.038  -2.721   0.057  0.00  0.00    -0.220 NA
ATOM      9  C7  <0> d           0.040  -2.001   1.172  0.00  0.00     0.161 A 
ATOM     10  N2  <0> d           0.022  -0.672   1.133  0.00  0.00    -0.232 NA
ATOM     11  C14 <0> d          -0.042  -0.753  -5.013  0.00  0.00     0.116 C 
ATOM     12  N3  <0> d          -0.393   0.498  -5.261  0.00  0.00    -0.346 N 
ATOM     13  C15 <0> d          -0.784   1.390  -4.175  0.00  0.00     0.247 C 
ATOM     14  N4  <0> d          -0.035   1.177  -2.936  0.00  0.00    -0.358 N 
ATOM     15  H10 <0> d           0.422   2.031  -2.416  0.00  0.00     0.162 HD
ATOM     16  H16 <0> d          -0.391   0.876  -6.294  0.00  0.00     0.164 HD
ENDROOT
BRANCH   9  17
ATOM     17  C8  <0> d           0.063  -2.691   2.484  0.00  0.00     0.012 A 
ATOM     18  C13 <0> d           0.082  -4.084   2.543  0.00  0.00     0.015 A 
ATOM     19  C12 <0> d           0.104  -4.720   3.767  0.00  0.00     0.001 A 
ATOM     20  C11 <0> d           0.106  -3.979   4.935  0.00  0.00     0.000 A 
ATOM     21  C10 <0> d           0.087  -2.596   4.883  0.00  0.00     0.001 A 
ATOM     22  C9  <0> d           0.071  -1.949   3.665  0.00  0.00     0.015 A 
ENDBRANCH   9  17
BRANCH  11  23
ATOM     23  N5  <0> d           0.279  -1.648  -6.015  0.00  0.00    -0.385 N 
ATOM     24  H14 <0> d           0.248  -1.329  -7.068  0.00  0.00     0.157 HD
ATOM     25  H15 <0> d           0.565  -2.679  -5.761  0.00  0.00     0.157 HD
ENDBRANCH  11  23
BRANCH  13  26
ATOM     26  S2  <0> d          -2.549   1.147  -3.834  0.00  0.00    -0.128 SA
ATOM     27  C16 <0> d          -2.651  -0.567  -3.247  0.00  0.00     0.093 C 
ENDBRANCH  13  26
TORSDOF 3
