REMARK  6 active torsions:
REMARK  status: ('A' for Active; 'I' for Inactive)
REMARK    1  A    between atoms: C2_2  and  C3_3 
REMARK    2  A    between atoms: C3_3  and  C4_4 
REMARK    3  A    between atoms: C3_3  and  N1_6 
REMARK       I    between atoms: N1_6  and  C5_7 
REMARK    4  A    between atoms: C5_7  and  C6_9 
REMARK    5  A    between atoms: C6_9  and  C7_10 
REMARK    6  A    between atoms: C12_15  and  O5_21 
ROOT
ATOM      1  C7  <0> d           2.295   5.953   0.014  0.00  0.00     0.033 A 
ATOM      2  C8  <0> d           2.380   4.597   0.005  0.00  0.00    -0.036 A 
ATOM      3  C9  <0> d           1.135   3.826   0.012  0.00  0.00     0.006 A 
ATOM      4  C10 <0> d           1.154   2.426   0.004  0.00  0.00     0.041 A 
ATOM      5  C11 <0> d          -0.021   1.732   0.012  0.00  0.00     0.068 A 
ATOM      6  C12 <0> d          -1.241   2.408   0.021  0.00  0.00     0.092 A 
ATOM      7  C13 <0> d          -1.278   3.792   0.034  0.00  0.00     0.076 A 
ATOM      8  C14 <0> d          -0.093   4.513   0.027  0.00  0.00     0.093 A 
ATOM      9  O3  <0> d          -0.107   5.864   0.035  0.00  0.00    -0.274 OA
ATOM     10  C15 <0> d           1.030   6.576   0.029  0.00  0.00     0.295 A 
ATOM     11  O4  <0> d           0.969   7.793   0.037  0.00  0.00    -0.259 OA
ATOM     12 Cl1  <0> d           0.002  -0.004   0.002  0.00  0.00    -0.081 Cl
ATOM     13  C17 <0> d           3.719   3.905  -0.011  0.00  0.00     0.050 C 
ENDROOT
BRANCH   1  14
ATOM     14  C6  <0> d           3.549   6.788   0.007  0.00  0.00     0.148 C 
BRANCH  14  15
ATOM     15  C5  <0> d           3.980   7.058   1.426  0.00  0.00     0.222 C 
ATOM     16  N1  <0> d           5.085   7.791   1.667  0.00  0.00    -0.346 N 
ATOM     17  H7  <0> d           5.603   8.145   0.927  0.00  0.00     0.163 HD
ATOM     18  O2  <0> d           3.333   6.616   2.351  0.00  0.00    -0.273 OA
BRANCH  16  19
ATOM     19  C3  <0> d           5.504   8.054   3.046  0.00  0.00     0.185 C 
BRANCH  19  20
ATOM     20  C2  <0> d           6.348   6.883   3.554  0.00  0.00     0.032 C 
ATOM     21  C1  <0> d           5.483   5.624   3.626  0.00  0.00     0.007 C 
ENDBRANCH  19  20
BRANCH  19  22
ATOM     22  C4  <0> d           6.322   9.319   3.090  0.00  0.00     0.196 C 
ATOM     23  O1  <0> d           6.532   9.938   2.074  0.00  0.00    -0.646 OA
ATOM     24  O6  <0> d           6.816   9.758   4.259  0.00  0.00    -0.646 OA
ENDBRANCH  19  22
ENDBRANCH  16  19
ENDBRANCH  14  15
ENDBRANCH   1  14
BRANCH   6  25
ATOM     25  O5  <0> d          -2.402   1.704   0.022  0.00  0.00    -0.354 OA
ATOM     26  C16 <0> d          -3.617   2.456   0.032  0.00  0.00     0.210 C 
ENDBRANCH   6  25
TORSDOF 6
