REMARK  7 active torsions:
REMARK  status: ('A' for Active; 'I' for Inactive)
REMARK    1  A    between atoms: C2_2  and  C3_3 
REMARK    2  A    between atoms: C3_3  and  N1_4 
REMARK    3  A    between atoms: C4_5  and  N3_10 
REMARK       I    between atoms: N3_10  and  C8_11 
REMARK    4  A    between atoms: C8_11  and  C9_13 
REMARK    5  A    between atoms: C9_13  and  C10_14 
REMARK    6  A    between atoms: C10_14  and  C11_15 
REMARK       I    between atoms: C11_15  and  N4_17 
REMARK    7  A    between atoms: N4_17  and  C12_18 
ROOT
ATOM      1  C11 <0> d          -1.882   6.200   0.550  0.00  0.00     0.218 C 
ATOM      2  O2  <0> d          -1.487   6.312  -0.591  0.00  0.00    -0.274 OA
ATOM      3  N4  <0> d          -2.425   5.038   0.964  0.00  0.00    -0.352 N 
ATOM      4  H18 <0> d          -2.783   4.936   1.999  0.00  0.00     0.163 HD
ENDROOT
BRANCH   1   5
ATOM      5  C10 <0> d          -1.767   7.360   1.505  0.00  0.00     0.112 C 
BRANCH   5   6
ATOM      6  C9  <0> d          -1.122   8.548   0.789  0.00  0.00     0.112 C 
BRANCH   6   7
ATOM      7  C8  <0> d          -1.006   9.708   1.744  0.00  0.00     0.223 C 
ATOM      8  N3  <0> d          -0.464  10.870   1.330  0.00  0.00    -0.312 N 
ATOM      9  H13 <0> d          -0.105  10.972   0.295  0.00  0.00     0.170 HD
ATOM     10  O1  <0> d          -1.402   9.595   2.885  0.00  0.00    -0.273 OA
BRANCH   8  11
ATOM     11  C4  <0> d          -0.358  11.944   2.214  0.00  0.00     0.128 A 
ATOM     12  N1  <0> d           0.162  13.161   1.935  0.00  0.00    -0.254 N 
ATOM     13  N2  <0> d           0.078  13.942   3.094  0.00  0.00    -0.176 NA
ATOM     14  C6  <0> d          -0.472  13.222   4.038  0.00  0.00     0.054 A 
ATOM     15  C5  <0> d          -0.763  11.959   3.513  0.00  0.00     0.078 A 
ATOM     16  C7  <0> d          -0.750  13.677   5.447  0.00  0.00     0.072 C 
BRANCH  12  17
ATOM     17  C3  <0> d           0.716  13.586   0.647  0.00  0.00     0.152 C 
BRANCH  17  18
ATOM     18  C2  <0> d          -0.396  14.198  -0.209  0.00  0.00     0.018 C 
ATOM     19  C1  <0> d           0.182  14.643  -1.554  0.00  0.00     0.007 C 
ENDBRANCH  17  18
ENDBRANCH  12  17
ENDBRANCH   8  11
ENDBRANCH   6   7
ENDBRANCH   5   6
ENDBRANCH   1   5
BRANCH   3  20
ATOM     20  C12 <0> d          -2.537   3.910   0.035  0.00  0.00     0.123 C 
ATOM     21  C20 <0> d          -1.242   3.137   0.027  0.00  0.00    -0.002 A 
ATOM     22  C19 <0> d          -1.228   1.753   0.017  0.00  0.00     0.078 A 
ATOM     23  C21 <0> d          -0.048   3.838   0.020  0.00  0.00     0.012 A 
ATOM     24  O4  <0> d          -2.375   1.025   0.038  0.00  0.00    -0.339 OA
ATOM     25  C24 <0> d          -0.013   1.076   0.008  0.00  0.00     0.037 A 
ATOM     26  C14 <0> d          -3.588   1.688  -0.313  0.00  0.00     0.074 C 
ATOM     27  C13 <0> d          -3.681   2.995   0.480  0.00  0.00     0.068 C 
ATOM     28  C18 <0> d          -4.785   0.797   0.026  0.00  0.00     0.065 C 
ATOM     29  C15 <0> d          -3.595   1.997  -1.812  0.00  0.00     0.065 C 
ATOM     30  C17 <0> d          -4.729  -0.470  -0.832  0.00  0.00     0.170 C 
ATOM     31  O3  <0> d          -4.714  -0.107  -2.214  0.00  0.00    -0.391 OA
ATOM     32  C16 <0> d          -3.586   0.683  -2.598  0.00  0.00     0.170 C 
ATOM     33  C23 <0> d           1.174   1.780   0.000  0.00  0.00     0.003 A 
ATOM     34  C22 <0> d           1.157   3.162   0.007  0.00  0.00     0.001 A 
ENDBRANCH   3  20
TORSDOF 7
