REMARK  4 active torsions:
REMARK  status: ('A' for Active; 'I' for Inactive)
REMARK    1  A    between atoms: N1_9  and  C8_13 
REMARK    2  A    between atoms: C8_13  and  C9_14 
REMARK       I    between atoms: C9_14  and  N2_16 
REMARK    3  A    between atoms: N2_16  and  C10_17 
REMARK    4  A    between atoms: C13_20  and  C15_23 
ROOT
ATOM      1  C9  <0> d          -1.665   2.400   1.439  0.00  0.00     0.242 C 
ATOM      2  O4  <0> d          -1.074   1.862   2.351  0.00  0.00    -0.271 OA
ATOM      3  N2  <0> d          -2.742   3.168   1.694  0.00  0.00    -0.309 N 
ATOM      4  H7  <0> d          -3.214   3.598   0.964  0.00  0.00     0.170 HD
ENDROOT
BRANCH   1   5
ATOM      5  C8  <0> d          -1.194   2.208   0.020  0.00  0.00     0.248 C 
BRANCH   5   6
ATOM      6  N1  <0> d          -0.016   1.337   0.009  0.00  0.00    -0.228 N 
ATOM      7  C7  <0> d           0.002  -0.004   0.002  0.00  0.00     0.269 A 
ATOM      8  C5  <0> d           1.306  -0.680  -0.014  0.00  0.00     0.056 A 
ATOM      9  O1  <0> d          -1.032  -0.643   0.008  0.00  0.00    -0.266 OA
ATOM     10  C4  <0> d           2.379   0.221  -0.019  0.00  0.00     0.095 A 
ATOM     11  C6  <0> d           1.614  -2.051  -0.025  0.00  0.00     0.018 A 
ATOM     12  C3  <0> d           3.679  -0.198  -0.035  0.00  0.00     0.026 A 
ATOM     13  S1  <0> d           1.589   1.807  -0.003  0.00  0.00     0.269 S 
ATOM     14  C2  <0> d           3.963  -1.556  -0.045  0.00  0.00     0.002 A 
ATOM     15  C1  <0> d           2.924  -2.470  -0.041  0.00  0.00     0.001 A 
ATOM     16  O2  <0> d           1.847   2.431  -1.254  0.00  0.00    -0.200 OA
ATOM     17  O3  <0> d           1.871   2.417   1.249  0.00  0.00    -0.200 OA
ENDBRANCH   5   6
ENDBRANCH   1   5
BRANCH   3  18
ATOM     18  C10 <0> d          -3.177   3.346   3.007  0.00  0.00     0.151 A 
ATOM     19  N3  <0> d          -2.528   2.757   3.998  0.00  0.00    -0.241 NA
ATOM     20  C14 <0> d          -2.906   2.898   5.254  0.00  0.00     0.135 A 
ATOM     21  C13 <0> d          -4.001   3.672   5.581  0.00  0.00     0.067 A 
ATOM     22  C12 <0> d          -4.710   4.308   4.571  0.00  0.00     0.045 A 
ATOM     23  C11 <0> d          -4.286   4.146   3.263  0.00  0.00     0.080 A 
ATOM     24 Cl1  <0> d          -5.131   4.923   1.961  0.00  0.00    -0.080 Cl
BRANCH  21  25
ATOM     25  C15 <0> d          -4.423   3.825   7.020  0.00  0.00     0.418 C 
ATOM     26  F1  <0> d          -3.557   3.094   7.840  0.00  0.00    -0.166 F 
ATOM     27  F2  <0> d          -4.375   5.177   7.379  0.00  0.00    -0.166 F 
ATOM     28  F3  <0> d          -5.728   3.347   7.177  0.00  0.00    -0.166 F 
ENDBRANCH  21  25
ENDBRANCH   3  18
TORSDOF 4
