REMARK  5 active torsions:
REMARK  status: ('A' for Active; 'I' for Inactive)
REMARK    1  A    between atoms: C2_2  and  C3_3 
REMARK    2  A    between atoms: C2_2  and  N2_19 
REMARK       I    between atoms: C3_3  and  N1_5 
REMARK    3  A    between atoms: N1_5  and  C4_6 
REMARK    4  A    between atoms: C9_11  and  S1_12 
REMARK    5  A    between atoms: S1_12  and  C10_13 
ROOT
ATOM      1  C3  <0> d           0.162   4.199   0.723  0.00  0.00     0.253 C 
ATOM      2  O1  <0> d          -0.610   3.556   1.403  0.00  0.00    -0.271 OA
ATOM      3  N1  <0> d           0.528   5.438   1.109  0.00  0.00    -0.324 N 
ATOM      4  H5  <0> d           1.292   5.988   0.539  0.00  0.00     0.169 HD
ENDROOT
BRANCH   3   5
ATOM      5  C4  <0> d          -0.065   6.025   2.234  0.00  0.00     0.052 A 
ATOM      6  C9  <0> d          -0.203   7.411   2.309  0.00  0.00     0.032 A 
ATOM      7  C8  <0> d          -0.792   7.986   3.427  0.00  0.00     0.021 A 
ATOM      8  C7  <0> d          -1.238   7.186   4.461  0.00  0.00     0.002 A 
ATOM      9  C6  <0> d          -1.101   5.812   4.386  0.00  0.00     0.002 A 
ATOM     10  C5  <0> d          -0.521   5.230   3.275  0.00  0.00     0.031 A 
BRANCH   6  11
ATOM     11  S1  <0> d           0.366   8.429   0.988  0.00  0.00    -0.088 SA
BRANCH  11  12
ATOM     12  C10 <0> d           0.029  10.069   1.537  0.00  0.00     0.005 A 
ATOM     13  C15 <0> d           0.936  10.729   2.357  0.00  0.00     0.019 A 
ATOM     14  C14 <0> d           0.669  12.014   2.785  0.00  0.00     0.001 A 
ATOM     15  C13 <0> d          -0.501  12.644   2.400  0.00  0.00     0.000 A 
ATOM     16  C12 <0> d          -1.406  11.990   1.584  0.00  0.00     0.001 A 
ATOM     17  C11 <0> d          -1.142  10.707   1.147  0.00  0.00     0.019 A 
ENDBRANCH  11  12
ENDBRANCH   6  11
ENDBRANCH   3   5
BRANCH   1  18
ATOM     18  C2  <0> d           0.712   3.613  -0.551  0.00  0.00     0.276 C 
ATOM     19  C1  <0> d           0.315   4.500  -1.733  0.00  0.00     0.050 C 
BRANCH  18  20
ATOM     20  N2  <0> d           0.165   2.264  -0.747  0.00  0.00    -0.049 N 
ATOM     21  C19 <0> d          -1.285   2.313  -0.981  0.00  0.00     0.338 C 
ATOM     22  C18 <0> d          -1.794   0.943  -1.330  0.00  0.00     0.243 C 
ATOM     23  N3  <0> d          -0.991  -0.049  -1.728  0.00  0.00    -0.358 N 
ATOM     24  O2  <0> d          -2.985   0.727  -1.246  0.00  0.00    -0.272 OA
ATOM     25  C17 <0> d           0.459   0.096  -1.827  0.00  0.00     0.150 C 
ATOM     26  H19 <0> d          -1.466  -1.006  -1.987  0.00  0.00     0.162 HD
ATOM     27  C16 <0> d           0.837   1.578  -1.862  0.00  0.00     0.256 C 
ATOM     28  H22 <0> d           0.348   1.695   0.177  0.00  0.00     0.281 HD
ENDBRANCH  18  20
ENDBRANCH   1  18
TORSDOF 5
