REMARK  2 active torsions:
REMARK  status: ('A' for Active; 'I' for Inactive)
REMARK    1  A    between atoms: C7_9  and  O4_14 
REMARK    2  A    between atoms: C10_12  and  O3_13 
ROOT
ATOM      1  C1  <0> d          -0.018   1.467   0.010  0.00  0.00     0.055 C 
ATOM      2  C2  <0> d           1.141   2.157   0.003  0.00  0.00     0.055 C 
ATOM      3  C3  <0> d           2.423   1.435  -0.028  0.00  0.00     0.161 C 
ATOM      4  O1  <0> d           3.446   2.014  -0.323  0.00  0.00    -0.292 OA
ATOM      5  C4  <0> d           2.451  -0.035   0.313  0.00  0.00     0.134 C 
ATOM      6  C5  <0> d           1.273  -0.725  -0.389  0.00  0.00     0.134 C 
ATOM      7  C6  <0> d           0.002  -0.004   0.002  0.00  0.00     0.161 C 
ATOM      8  O2  <0> d          -0.990  -0.632   0.305  0.00  0.00    -0.292 OA
ATOM      9  C7  <0> d           1.197  -2.159   0.076  0.00  0.00     0.056 C 
ATOM     10  C8  <0> d           1.487  -2.462   1.344  0.00  0.00     0.035 C 
ATOM     11  C9  <0> d           1.868  -1.393   2.280  0.00  0.00     0.035 C 
ATOM     12  C10 <0> d           2.330  -0.218   1.802  0.00  0.00     0.056 C 
ENDROOT
BRANCH   9  13
ATOM     13  O4  <0> d           0.836  -3.137  -0.793  0.00  0.00    -0.364 OA
ATOM     14  H8  <0> d           0.816  -4.021  -0.403  0.00  0.00     0.217 HD
ENDBRANCH   9  13
BRANCH  12  15
ATOM     15  O3  <0> d           2.701   0.780   2.643  0.00  0.00    -0.364 OA
ATOM     16  H7  <0> d           2.586   0.568   3.580  0.00  0.00     0.217 HD
ENDBRANCH  12  15
TORSDOF 2
