REMARK  7 active torsions:
REMARK  status: ('A' for Active; 'I' for Inactive)
REMARK    1  A    between atoms: C2_2  and  C3_3 
REMARK    2  A    between atoms: C3_3  and  C4_4 
REMARK    3  A    between atoms: C3_3  and  N3_21 
REMARK    4  A    between atoms: C4_4  and  C5_5 
REMARK    5  A    between atoms: C4_4  and  N1_12 
REMARK    6  A    between atoms: N1_12  and  C12_14 
REMARK    7  A    between atoms: C12_14  and  C13_15 
ROOT
ATOM      1  C4  <0> d           0.630  -2.023  -1.329  0.00  0.00     0.251 C 
ENDROOT
BRANCH   1   2
ATOM      2  C3  <0> d           0.718  -0.497  -1.257  0.00  0.00     0.218 C 
BRANCH   2   3
ATOM      3  C2  <0> d           0.002  -0.004   0.002  0.00  0.00     0.031 C 
ATOM      4  C1  <0> d          -0.019   1.526   0.010  0.00  0.00     0.007 C 
ENDBRANCH   2   3
BRANCH   2   5
ATOM      5  N3  <0> d           2.129  -0.090  -1.209  0.00  0.00    -0.073 N 
ATOM      6  H21 <0> d           2.601  -0.415  -2.039  0.00  0.00     0.274 HD
ATOM      7  H22 <0> d           2.187   0.916  -1.162  0.00  0.00     0.274 HD
ATOM      8  H23 <0> d           2.567  -0.491  -0.394  0.00  0.00     0.274 HD
ENDBRANCH   2   5
ENDBRANCH   1   2
BRANCH   1   9
ATOM      9  C5  <0> d           1.391  -2.625  -0.175  0.00  0.00    -0.025 A 
ATOM     10  C10 <0> d           2.668  -3.117  -0.371  0.00  0.00     0.011 A 
ATOM     11  C9  <0> d           3.368  -3.665   0.687  0.00  0.00     0.019 A 
ATOM     12  C8  <0> d           2.787  -3.730   1.940  0.00  0.00     0.011 A 
ATOM     13  C7  <0> d           1.507  -3.243   2.135  0.00  0.00     0.019 A 
ATOM     14 Br1  <0> d           3.741  -4.485   3.388  0.00  0.00    -0.051 Br
ATOM     15  C6  <0> d           0.810  -2.690   1.077  0.00  0.00     0.011 A 
ENDBRANCH   1   9
BRANCH   1  16
ATOM     16  N1  <0> d          -0.777  -2.437  -1.256  0.00  0.00    -0.059 N 
ATOM     17  C11 <0> d          -0.862  -3.902  -1.324  0.00  0.00     0.271 C 
ATOM     18  H24 <0> d          -1.177  -2.117  -0.386  0.00  0.00     0.280 HD
BRANCH  16  19
ATOM     19  C12 <0> d          -1.519  -1.850  -2.380  0.00  0.00     0.296 C 
BRANCH  19  20
ATOM     20  C13 <0> d          -2.984  -2.172  -2.237  0.00  0.00     0.090 A 
ATOM     21  N2  <0> d          -3.571  -3.264  -2.641  0.00  0.00    -0.131 NA
ATOM     22  O1  <0> d          -4.945  -3.167  -2.313  0.00  0.00    -0.218 OA
ATOM     23  C15 <0> d          -5.143  -1.982  -1.715  0.00  0.00     0.077 A 
ATOM     24  C14 <0> d          -3.959  -1.344  -1.652  0.00  0.00     0.065 A 
ATOM     25  C16 <0> d          -6.460  -1.458  -1.203  0.00  0.00     0.079 C 
ENDBRANCH  19  20
ENDBRANCH  16  19
ENDBRANCH   1  16
TORSDOF 7
