REMARK  4 active torsions:
REMARK  status: ('A' for Active; 'I' for Inactive)
REMARK    1  A    between atoms: C5_5  and  C6_7 
REMARK       I    between atoms: C6_7  and  N1_9 
REMARK    2  A    between atoms: N1_9  and  N2_10 
REMARK       I    between atoms: N2_10  and  C7_11 
REMARK    3  A    between atoms: C7_11  and  C8_13 
REMARK    4  A    between atoms: C8_13  and  S2_15 
ROOT
ATOM      1  C6  <0> d           1.076  -3.942  -0.026  0.00  0.00     0.277 C 
ATOM      2  O1  <0> d           0.342  -4.913  -0.027  0.00  0.00    -0.265 OA
ATOM      3  N1  <0> d           2.413  -4.108  -0.033  0.00  0.00    -0.263 N 
ATOM      4  H7  <0> d           2.998  -3.334  -0.032  0.00  0.00     0.190 HD
ENDROOT
BRANCH   3   5
ATOM      5  N2  <0> d           2.959  -5.398  -0.043  0.00  0.00    -0.266 N 
ATOM      6  C7  <0> d           4.296  -5.564  -0.050  0.00  0.00     0.249 C 
ATOM      7  O2  <0> d           5.027  -4.596  -0.049  0.00  0.00    -0.271 OA
ATOM      8  H8  <0> d           2.374  -6.172  -0.044  0.00  0.00     0.190 HD
BRANCH   6   9
ATOM      9  C8  <0> d           4.883  -6.952  -0.061  0.00  0.00     0.136 C 
ATOM     10  C9  <0> d           4.859  -7.527   1.357  0.00  0.00     0.031 C 
BRANCH   9  11
ATOM     11  S2  <0> d           6.596  -6.880  -0.654  0.00  0.00    -0.160 SA
ATOM     12  C10 <0> d           7.101  -8.619  -0.751  0.00  0.00     0.090 C 
ENDBRANCH   9  11
ENDBRANCH   6   9
ENDBRANCH   3   5
BRANCH   1  13
ATOM     13  C5  <0> d           0.505  -2.592  -0.016  0.00  0.00     0.074 A 
ATOM     14  C4  <0> d          -0.827  -2.207  -0.007  0.00  0.00     0.025 A 
ATOM     15  C3  <0> d          -1.056  -0.852   0.002  0.00  0.00     0.015 A 
ATOM     16  C2  <0> d           0.002  -0.004   0.002  0.00  0.00    -0.020 A 
ATOM     17  C1  <0> d          -0.018   1.503   0.010  0.00  0.00     0.056 C 
ATOM     18  S1  <0> d           1.341  -1.018  -0.017  0.00  0.00    -0.090 SA
ENDBRANCH   1  13
TORSDOF 4
