REMARK  0 active torsions:
REMARK  status: ('A' for Active; 'I' for Inactive)
ROOT
ATOM      1  C1  <0> d          -4.120  -3.651   1.362  0.00  0.00     0.091 C 
ATOM      2  C2  <0> d          -3.042  -2.659   1.006  0.00  0.00     0.105 A 
ATOM      3  N1  <0> d          -1.871  -3.117   0.621  0.00  0.00    -0.227 NA
ATOM      4  C3  <0> d          -0.937  -2.223   0.312  0.00  0.00     0.116 A 
ATOM      5  C4  <0> d          -1.133  -0.825   0.377  0.00  0.00     0.075 A 
ATOM      6  C5  <0> d           0.002  -0.004   0.002  0.00  0.00    -0.023 A 
ATOM      7  C6  <0> d           1.129  -0.657  -0.372  0.00  0.00     0.020 A 
ATOM      8  S1  <0> d           0.733  -2.380  -0.240  0.00  0.00    -0.072 SA
ATOM      9  C7  <0> d           2.421  -0.034  -0.802  0.00  0.00     0.316 C 
ATOM     10  N2  <0> d           2.173   1.390  -1.097  0.00  0.00     0.088 N 
ATOM     11  C8  <0> d           1.428   2.023  -0.001  0.00  0.00     0.274 C 
ATOM     12  C9  <0> d          -0.019   1.523   0.010  0.00  0.00     0.070 C 
ATOM     13  C10 <0> d          -2.425  -0.368   0.803  0.00  0.00     0.262 A 
ATOM     14  O1  <0> d          -2.697   0.817   0.893  0.00  0.00    -0.267 OA
ATOM     15  N3  <0> d          -3.323  -1.337   1.100  0.00  0.00    -0.306 N 
ATOM     16  C11 <0> d          -4.661  -0.938   1.541  0.00  0.00     0.161 C 
ATOM     17  H6  <0> d           3.133   1.911  -1.223  0.00  0.00     0.316 HD
ENDROOT
TORSDOF 0
