REMARK  2 active torsions:
REMARK  status: ('A' for Active; 'I' for Inactive)
REMARK    1  A    between atoms: C6_6  and  N2_8 
REMARK    2  A    between atoms: C7_9  and  C8_10 
ROOT
ATOM      1  C8  <0> d           0.186  -4.641   3.675  0.00  0.00     0.059 A 
ATOM      2  C9  <0> d          -0.442  -4.091   4.894  0.00  0.00    -0.003 A 
ATOM      3  C10 <0> d          -1.173  -2.909   4.871  0.00  0.00     0.013 A 
ATOM      4  C11 <0> d          -1.741  -2.436   6.036  0.00  0.00     0.001 A 
ATOM      5  C12 <0> d          -1.587  -3.130   7.228  0.00  0.00     0.001 A 
ATOM      6  C13 <0> d          -0.865  -4.303   7.271  0.00  0.00     0.018 A 
ATOM      7  C14 <0> d          -0.283  -4.799   6.104  0.00  0.00     0.043 A 
ATOM      8  C15 <0> d           0.494  -6.046   6.106  0.00  0.00     0.259 A 
ATOM      9  O1  <0> d           0.635  -6.661   7.146  0.00  0.00    -0.267 OA
ATOM     10  N3  <0> d           1.051  -6.518   4.979  0.00  0.00    -0.289 N 
ATOM     11  C16 <0> d           0.935  -5.898   3.793  0.00  0.00     0.260 A 
ATOM     12  O2  <0> d           1.461  -6.381   2.807  0.00  0.00    -0.267 OA
ATOM     13  H13 <0> d           1.557  -7.345   5.022  0.00  0.00     0.172 HD
ENDROOT
BRANCH   1  14
ATOM     14  C7  <0> d           0.068  -3.997   2.464  0.00  0.00     0.107 C 
ATOM     15  N2  <0> d          -0.114  -2.649   2.425  0.00  0.00    -0.351 N 
ATOM     16  H7  <0> d          -0.057  -2.128   3.242  0.00  0.00     0.166 HD
BRANCH  15  17
ATOM     17  C6  <0> d          -0.380  -2.017   1.214  0.00  0.00     0.105 A 
ATOM     18  C5  <0> d          -0.459  -2.769   0.047  0.00  0.00     0.048 A 
ATOM     19  C4  <0> d          -0.725  -2.129  -1.151  0.00  0.00     0.006 A 
ATOM     20  C3  <0> d          -0.903  -0.752  -1.140  0.00  0.00     0.025 A 
ATOM     21  C2  <0> d          -0.810  -0.067   0.056  0.00  0.00     0.007 A 
ATOM     22  C1  <0> d          -1.002   1.427   0.075  0.00  0.00     0.068 C 
ATOM     23  N1  <0> d          -0.550  -0.704   1.182  0.00  0.00    -0.346 N 
ATOM     24  H14 <0> d          -0.487  -0.199   2.007  0.00  0.00     0.167 HD
ENDBRANCH  15  17
ENDBRANCH   1  14
TORSDOF 2
