REMARK  5 active torsions:
REMARK  status: ('A' for Active; 'I' for Inactive)
REMARK    1  A    between atoms: O1_2  and  C2_3 
REMARK    2  A    between atoms: C5_6  and  N2_9 
REMARK       I    between atoms: N2_9  and  C7_10 
REMARK    3  A    between atoms: C7_10  and  C8_12 
REMARK       I    between atoms: C8_12  and  N3_14 
REMARK    4  A    between atoms: N3_14  and  C9_15 
REMARK    5  A    between atoms: C9_15  and  C10_16 
ROOT
ATOM      1  N2  <0> d           2.456  -2.353  -4.298  0.00  0.00    -0.318 N 
ATOM      2  C7  <0> d           2.901  -1.564  -5.296  0.00  0.00     0.314 C 
ATOM      3  O2  <0> d           2.834  -0.356  -5.191  0.00  0.00    -0.262 OA
ATOM      4  H7  <0> d           2.579  -3.314  -4.348  0.00  0.00     0.169 HD
ENDROOT
BRANCH   1   5
ATOM      5  C5  <0> d           1.817  -1.786  -3.190  0.00  0.00     0.052 A 
ATOM      6  C4  <0> d           1.040  -0.637  -3.334  0.00  0.00     0.035 A 
ATOM      7  C3  <0> d           0.427  -0.112  -2.211  0.00  0.00     0.060 A 
ATOM      8  C2  <0> d           0.604  -0.742  -0.986  0.00  0.00     0.163 A 
ATOM      9  N1  <0> d           1.352  -1.828  -0.884  0.00  0.00    -0.235 NA
ATOM     10  C6  <0> d           1.948  -2.360  -1.934  0.00  0.00     0.149 A 
BRANCH   8  11
ATOM     11  O1  <0> d           0.005  -0.234   0.122  0.00  0.00    -0.339 OA
ATOM     12  C1  <0> d           0.229  -0.923   1.354  0.00  0.00     0.211 C 
ENDBRANCH   8  11
ENDBRANCH   1   5
BRANCH   2  13
ATOM     13  C8  <0> d           3.477  -2.175  -6.531  0.00  0.00     0.309 C 
ATOM     14  O3  <0> d           3.544  -3.382  -6.636  0.00  0.00    -0.262 OA
ATOM     15  N3  <0> d           3.922  -1.386  -7.529  0.00  0.00    -0.348 N 
ATOM     16  H8  <0> d           3.868  -0.421  -7.445  0.00  0.00     0.163 HD
BRANCH  15  17
ATOM     17  C9  <0> d           4.487  -1.986  -8.740  0.00  0.00     0.168 C 
BRANCH  17  18
ATOM     18  C10 <0> d           4.906  -0.895  -9.692  0.00  0.00    -0.003 C 
ATOM     19  C11 <0> d           6.173  -0.737  -9.991  0.00  0.00     0.028 C 
ATOM     20 Br1  <0> d           3.605   0.246 -10.455  0.00  0.00    -0.055 Br
ENDBRANCH  17  18
ENDBRANCH  15  17
ENDBRANCH   2  13
TORSDOF 5
