REMARK  3 active torsions:
REMARK  status: ('A' for Active; 'I' for Inactive)
REMARK    1  A    between atoms: C7_9  and  C10_13 
REMARK    2  A    between atoms: C10_13  and  N3_14 
REMARK    3  A    between atoms: C14_18  and  C15_19 
ROOT
ATOM      1  C1  <0> d          -0.018   1.503   0.010  0.00  0.00     0.052 C 
ATOM      2  C2  <0> d           0.002  -0.004   0.002  0.00  0.00    -0.015 A 
ATOM      3  C3  <0> d           0.006  -0.685  -1.179  0.00  0.00     0.012 A 
ATOM      4  C4  <0> d           0.025  -2.086  -1.169  0.00  0.00     0.018 A 
ATOM      5  C5  <0> d           0.039  -2.757   0.005  0.00  0.00     0.102 A 
ATOM      6  N1  <0> d           0.035  -2.087   1.190  0.00  0.00    -0.273 N 
ATOM      7  C6  <0> d           0.023  -0.720   1.213  0.00  0.00     0.142 A 
ATOM      8  N2  <0> d           0.025  -0.056   2.368  0.00  0.00    -0.233 NA
ATOM      9  C7  <0> d           0.045  -0.693   3.528  0.00  0.00     0.068 A 
ATOM     10  C8  <0> d           0.064  -2.074   3.559  0.00  0.00     0.104 A 
ATOM     11  C9  <0> d           0.050  -2.779   2.349  0.00  0.00     0.255 A 
ATOM     12  O1  <0> d           0.066  -3.999   2.343  0.00  0.00    -0.268 OA
ENDROOT
BRANCH   9  13
ATOM     13  C10 <0> d           0.047   0.089   4.816  0.00  0.00     0.295 C 
BRANCH  13  14
ATOM     14  N3  <0> d           1.293   0.860   4.919  0.00  0.00    -0.052 N 
ATOM     15  C14 <0> d           1.248   1.718   6.117  0.00  0.00     0.288 C 
ATOM     16  C13 <0> d           2.441   1.318   7.011  0.00  0.00     0.046 C 
ATOM     17  C12 <0> d           3.420   0.650   6.010  0.00  0.00     0.030 C 
ATOM     18  C11 <0> d           2.441  -0.064   5.044  0.00  0.00     0.236 C 
ATOM     19  H17 <0> d           1.408   1.432   4.096  0.00  0.00     0.281 HD
BRANCH  15  20
ATOM     20  C15 <0> d           1.371   3.165   5.716  0.00  0.00     0.205 C 
ATOM     21  O2  <0> d           1.174   4.044   6.538  0.00  0.00    -0.646 OA
ATOM     22  O3  <0> d           1.667   3.457   4.570  0.00  0.00    -0.646 OA
ENDBRANCH  15  20
ENDBRANCH  13  14
ENDBRANCH   9  13
TORSDOF 3
