REMARK  1 active torsions:
REMARK  status: ('A' for Active; 'I' for Inactive)
REMARK       I    between atoms: C2_2  and  N1_4 
REMARK       I    between atoms: N2_12  and  C19_26 
REMARK    1  A    between atoms: C14_17  and  N5_23 
ROOT
ATOM      1  C1  <0> d          -4.498   3.484  -1.002  0.00  0.00     0.117 C 
ATOM      2  C2  <0> d          -3.787   2.916   0.199  0.00  0.00     0.215 C 
ATOM      3  O1  <0> d          -4.201   3.150   1.315  0.00  0.00    -0.274 OA
ATOM      4  N1  <0> d          -2.686   2.145   0.032  0.00  0.00    -0.352 N 
ATOM      5  C3  <0> d          -2.119   1.973  -1.303  0.00  0.00     0.126 C 
ATOM      6  C4  <0> d          -0.598   2.088  -1.300  0.00  0.00     0.033 C 
ATOM      7  C5  <0> d           0.061   1.348  -0.147  0.00  0.00     0.012 C 
ATOM      8  C6  <0> d          -0.573   1.742   1.186  0.00  0.00     0.033 C 
ATOM      9  C7  <0> d          -2.080   1.488   1.192  0.00  0.00     0.126 C 
ATOM     10  C8  <0> d          -0.037  -0.168  -0.349  0.00  0.00     0.050 C 
ATOM     11  C9  <0> d          -1.400  -0.649  -0.782  0.00  0.00     0.136 C 
ATOM     12  N2  <0> d          -1.585  -2.061  -0.407  0.00  0.00    -0.348 N 
ATOM     13  C10 <0> d          -1.436  -2.404   1.013  0.00  0.00     0.153 C 
ATOM     14  C11 <0> d          -0.136  -1.825   1.507  0.00  0.00     0.002 C 
ATOM     15  C12 <0> d           0.483  -0.839   0.898  0.00  0.00    -0.031 C 
ATOM     16  C13 <0> d           1.769  -0.312   1.423  0.00  0.00     0.076 C 
ATOM     17  C14 <0> d           2.265   0.850   0.928  0.00  0.00     0.062 C 
ATOM     18  C15 <0> d           1.557   1.700  -0.088  0.00  0.00     0.188 C 
ATOM     19  C16 <0> d           2.193   1.493  -1.400  0.00  0.00     0.092 C 
ATOM     20  N3  <0> d           2.683   1.334  -2.412  0.00  0.00    -0.195 NA
ATOM     21  C17 <0> d           1.746   3.112   0.285  0.00  0.00     0.092 C 
ATOM     22  N4  <0> d           1.892   4.201   0.574  0.00  0.00    -0.195 NA
ATOM     23  C18 <0> d           2.507  -1.015   2.428  0.00  0.00     0.102 C 
ATOM     24  N6  <0> d           3.093  -1.573   3.225  0.00  0.00    -0.191 NA
ATOM     25  C19 <0> d          -1.882  -2.995  -1.330  0.00  0.00     0.216 C 
ATOM     26  O2  <0> d          -2.086  -2.667  -2.480  0.00  0.00    -0.274 OA
ATOM     27  C20 <0> d          -1.963  -4.447  -0.935  0.00  0.00     0.117 C 
ENDROOT
BRANCH  17  28
ATOM     28  N5  <0> d           3.472   1.286   1.401  0.00  0.00    -0.399 N 
ATOM     29  H18 <0> d           3.905   2.224   1.022  0.00  0.00     0.156 HD
ATOM     30  H19 <0> d           4.011   0.698   2.159  0.00  0.00     0.156 HD
ENDBRANCH  17  28
TORSDOF 1
