REMARK  7 active torsions:
REMARK  status: ('A' for Active; 'I' for Inactive)
REMARK    1  A    between atoms: C2_2  and  C3_3 
REMARK    2  A    between atoms: C3_3  and  C4_4 
REMARK    3  A    between atoms: C3_3  and  C10_10 
REMARK       I    between atoms: C10_10  and  N1_12 
REMARK    4  A    between atoms: C12_14  and  C19_22 
REMARK       I    between atoms: C19_22  and  N3_24 
REMARK    5  A    between atoms: N3_24  and  C20_25 
REMARK    6  A    between atoms: C20_25  and  C21_26 
REMARK    7  A    between atoms: C21_26  and  C22_27 
ROOT
ATOM      1  C10 <0> d           0.139  -0.044   2.302  0.00  0.00     0.228 C 
ATOM      2  O1  <0> d          -0.087  -0.862   3.169  0.00  0.00    -0.273 OA
ATOM      3  N1  <0> d          -0.160   1.254   2.506  0.00  0.00    -0.350 N 
ATOM      4  C11 <0> d           0.120   2.402   1.611  0.00  0.00     0.140 C 
ATOM      5  C12 <0> d          -1.138   3.293   1.714  0.00  0.00     0.106 C 
ATOM      6  C13 <0> d          -1.764   2.932   3.072  0.00  0.00    -0.007 C 
ATOM      7  C14 <0> d          -0.849   1.856   3.672  0.00  0.00     0.136 C 
ATOM      8  C15 <0> d          -3.169   2.371   2.873  0.00  0.00     0.039 C 
ATOM      9  C16 <0> d          -3.792   2.072   4.239  0.00  0.00     0.233 C 
ATOM     10  N2  <0> d          -3.845   3.305   5.035  0.00  0.00    -0.075 N 
ATOM     11  C17 <0> d          -2.484   3.788   5.300  0.00  0.00     0.233 C 
ATOM     12  C18 <0> d          -1.805   4.159   3.978  0.00  0.00     0.039 C 
ATOM     13  H21 <0> d          -4.357   4.010   4.526  0.00  0.00     0.277 HD
ATOM     14  H39 <0> d          -4.311   3.120   5.910  0.00  0.00     0.277 HD
ENDROOT
BRANCH   5  15
ATOM     15  C19 <0> d          -0.753   4.750   1.683  0.00  0.00     0.224 C 
ATOM     16  O2  <0> d           0.339   5.097   2.082  0.00  0.00    -0.273 OA
ATOM     17  N3  <0> d          -1.621   5.666   1.210  0.00  0.00    -0.360 N 
ATOM     18  H26 <0> d          -2.493   5.388   0.891  0.00  0.00     0.162 HD
BRANCH  17  19
ATOM     19  C20 <0> d          -1.246   7.082   1.179  0.00  0.00     0.127 C 
BRANCH  19  20
ATOM     20  C21 <0> d          -2.402   7.903   0.603  0.00  0.00     0.060 C 
BRANCH  20  21
ATOM     21  C22 <0> d          -2.016   9.359   0.571  0.00  0.00    -0.029 A 
ATOM     22  C23 <0> d          -1.263  10.039  -0.486  0.00  0.00    -0.001 A 
ATOM     23  C24 <0> d          -0.701   9.626  -1.696  0.00  0.00     0.014 A 
ATOM     24  C28 <0> d          -1.148  11.381  -0.080  0.00  0.00     0.049 A 
ATOM     25  C25 <0> d          -0.042  10.530  -2.481  0.00  0.00     0.002 A 
ATOM     26  C26 <0> d           0.075  11.855  -2.084  0.00  0.00     0.009 A 
ATOM     27  C27 <0> d          -0.472  12.283  -0.894  0.00  0.00    -0.034 A 
ATOM     28  C30 <0> d          -0.337  13.725  -0.476  0.00  0.00     0.050 C 
ATOM     29  N4  <0> d          -1.788  11.494   1.133  0.00  0.00    -0.364 N 
ATOM     30  H35 <0> d          -1.865  12.313   1.649  0.00  0.00     0.165 HD
ATOM     31  C29 <0> d          -2.304  10.282   1.502  0.00  0.00     0.096 A 
ENDBRANCH  20  21
ENDBRANCH  19  20
ENDBRANCH  17  19
ENDBRANCH   5  15
BRANCH   1  32
ATOM     32  C3  <0> d           0.754  -0.480   0.997  0.00  0.00     0.110 C 
BRANCH  32  33
ATOM     33  C2  <0> d           0.269  -1.889   0.650  0.00  0.00     0.014 C 
ATOM     34  C1  <0> d          -1.236  -1.859   0.380  0.00  0.00     0.006 C 
ENDBRANCH  32  33
BRANCH  32  35
ATOM     35  C4  <0> d           2.256  -0.483   1.126  0.00  0.00    -0.045 A 
ATOM     36  C9  <0> d           3.021   0.320   0.301  0.00  0.00     0.008 A 
ATOM     37  C8  <0> d           4.399   0.320   0.422  0.00  0.00     0.001 A 
ATOM     38  C7  <0> d           5.010  -0.488   1.362  0.00  0.00     0.000 A 
ATOM     39  C6  <0> d           4.245  -1.295   2.183  0.00  0.00     0.001 A 
ATOM     40  C5  <0> d           2.867  -1.292   2.065  0.00  0.00     0.008 A 
ENDBRANCH  32  35
ENDBRANCH   1  32
TORSDOF 7
