REMARK  5 active torsions:
REMARK  status: ('A' for Active; 'I' for Inactive)
REMARK    1  A    between atoms: C4_4  and  C5_7 
REMARK    2  A    between atoms: C5_7  and  N2_8 
REMARK    3  A    between atoms: N3_11  and  C10_14 
REMARK    4  A    between atoms: C10_14  and  C11_15 
REMARK    5  A    between atoms: C14_21  and  C17_26 
ROOT
ATOM      1  C11 <0> d          -6.366   0.161   5.036  0.00  0.00     0.134 A 
ATOM      2  N4  <0> d          -7.049   0.212   6.208  0.00  0.00    -0.309 N 
ATOM      3  H1  <0> d          -6.506   0.353   7.155  0.00  0.00     0.170 HD
ATOM      4  C12 <0> d          -8.389   0.094   6.243  0.00  0.00     0.260 A 
ATOM      5  O2  <0> d          -8.988   0.147   7.303  0.00  0.00    -0.267 OA
ATOM      6  C13 <0> d          -9.100  -0.100   5.016  0.00  0.00     0.081 A 
ATOM      7  C14 <0> d         -10.534  -0.258   4.796  0.00  0.00     0.023 A 
ATOM      8  C15 <0> d         -10.982  -0.432   3.526  0.00  0.00     0.067 A 
ATOM      9  S1  <0> d          -9.489  -0.392   2.553  0.00  0.00    -0.080 SA
ATOM     10  C16 <0> d          -8.311  -0.146   3.856  0.00  0.00     0.116 A 
ATOM     11  N5  <0> d          -6.987  -0.016   3.900  0.00  0.00    -0.225 NA
ENDROOT
BRANCH   1  12
ATOM     12  C10 <0> d          -4.866   0.303   5.045  0.00  0.00     0.313 C 
BRANCH  12  13
ATOM     13  N3  <0> d          -4.370   0.350   3.663  0.00  0.00    -0.061 N 
ATOM     14  C7  <0> d          -2.905   0.241   3.625  0.00  0.00     0.265 C 
ATOM     15  C6  <0> d          -2.435   0.214   2.169  0.00  0.00     0.300 C 
ATOM     16  N2  <0> d          -2.887   1.435   1.488  0.00  0.00     0.097 N 
ATOM     17  C9  <0> d          -4.352   1.545   1.526  0.00  0.00     0.300 C 
ATOM     18  C8  <0> d          -4.822   1.572   2.983  0.00  0.00     0.265 C 
ATOM     19  H22 <0> d          -4.789  -0.513   3.125  0.00  0.00     0.280 HD
BRANCH  16  20
ATOM     20  C5  <0> d          -2.391   1.482   0.106  0.00  0.00     0.333 C 
BRANCH  20  21
ATOM     21  C4  <0> d          -0.890   1.615   0.116  0.00  0.00     0.092 A 
ATOM     22  C3  <0> d           0.054   0.567   0.020  0.00  0.00     0.065 A 
ATOM     23  C2  <0> d           1.251   1.199   0.069  0.00  0.00     0.077 A 
ATOM     24  C1  <0> d           2.613   0.557   0.002  0.00  0.00     0.079 C 
ATOM     25  O1  <0> d           0.985   2.507   0.190  0.00  0.00    -0.218 OA
ATOM     26  N1  <0> d          -0.205   2.718   0.217  0.00  0.00    -0.131 NA
ENDBRANCH  20  21
ENDBRANCH  16  20
ENDBRANCH  12  13
ENDBRANCH   1  12
BRANCH   7  27
ATOM     27  C17 <0> d         -11.478  -0.231   5.931  0.00  0.00     0.086 A 
ATOM     28  O3  <0> d         -11.370  -0.947   7.066  0.00  0.00    -0.322 OA
ATOM     29  C20 <0> d         -12.409  -0.666   7.872  0.00  0.00     0.142 A 
ATOM     30  C19 <0> d         -13.199   0.237   7.259  0.00  0.00     0.027 A 
ATOM     31  C18 <0> d         -12.605   0.527   6.014  0.00  0.00     0.040 A 
ENDBRANCH   7  27
TORSDOF 5
