REMARK  6 active torsions:
REMARK  status: ('A' for Active; 'I' for Inactive)
REMARK    1  A    between atoms: C2_2  and  C3_3 
REMARK    2  A    between atoms: C3_3  and  N1_4 
REMARK    3  A    between atoms: C6_7  and  C8_9 
REMARK    4  A    between atoms: C8_9  and  N2_10 
REMARK       I    between atoms: N2_10  and  C9_11 
REMARK    5  A    between atoms: C9_11  and  C10_13 
REMARK       I    between atoms: C10_13  and  N3_15 
REMARK    6  A    between atoms: N3_15  and  C11_16 
ROOT
ATOM      1  N2  <0> d           3.837  -5.310  -2.713  0.00  0.00    -0.352 N 
ATOM      2  C9  <0> d           4.127  -6.445  -3.380  0.00  0.00     0.309 C 
ATOM      3  O1  <0> d           3.403  -6.823  -4.278  0.00  0.00    -0.262 OA
ATOM      4  H17 <0> d           4.415  -5.008  -1.995  0.00  0.00     0.162 HD
ENDROOT
BRANCH   2   5
ATOM      5  C10 <0> d           5.339  -7.237  -3.015  0.00  0.00     0.313 C 
ATOM      6  O2  <0> d           6.063  -6.859  -2.117  0.00  0.00    -0.262 OA
ATOM      7  N3  <0> d           5.629  -8.371  -3.682  0.00  0.00    -0.319 N 
ATOM      8  H18 <0> d           5.016  -8.709  -4.353  0.00  0.00     0.169 HD
BRANCH   7   9
ATOM      9  C11 <0> d           6.812  -9.061  -3.406  0.00  0.00     0.036 A 
ATOM     10  C16 <0> d           7.311  -9.097  -2.111  0.00  0.00     0.048 A 
ATOM     11  C15 <0> d           8.479  -9.785  -1.841  0.00  0.00     0.013 A 
ATOM     12  C14 <0> d           9.158 -10.426  -2.862  0.00  0.00     0.019 A 
ATOM     13 Br1  <0> d           9.156  -9.842  -0.076  0.00  0.00    -0.051 Br
ATOM     14  C13 <0> d           8.666 -10.387  -4.154  0.00  0.00     0.004 A 
ATOM     15  C12 <0> d           7.496  -9.707  -4.429  0.00  0.00     0.029 A 
ENDBRANCH   7   9
ENDBRANCH   2   5
BRANCH   1  16
ATOM     16  C8  <0> d           2.648  -4.533  -3.071  0.00  0.00     0.129 C 
BRANCH  16  17
ATOM     17  C6  <0> d           2.551  -3.302  -2.168  0.00  0.00     0.031 C 
ATOM     18  C5  <0> d           2.284  -3.720  -0.698  0.00  0.00     0.035 C 
ATOM     19  C4  <0> d           1.577  -2.461  -0.138  0.00  0.00     0.235 C 
ATOM     20  N1  <0> d           0.735  -1.974  -1.252  0.00  0.00    -0.071 N 
ATOM     21  C7  <0> d           1.310  -2.457  -2.521  0.00  0.00     0.241 C 
ATOM     22  H23 <0> d          -0.203  -2.330  -1.147  0.00  0.00     0.279 HD
BRANCH  20  23
ATOM     23  C3  <0> d           0.711  -0.505  -1.248  0.00  0.00     0.234 C 
BRANCH  23  24
ATOM     24  C2  <0> d           0.001  -0.010   0.014  0.00  0.00     0.023 C 
ATOM     25  C1  <0> d          -0.024   1.520   0.018  0.00  0.00     0.007 C 
ENDBRANCH  23  24
ENDBRANCH  20  23
ENDBRANCH  16  17
ENDBRANCH   1  16
TORSDOF 6
