REMARK  5 active torsions:
REMARK  status: ('A' for Active; 'I' for Inactive)
REMARK    1  A    between atoms: C2_2  and  N1_3 
REMARK    2  A    between atoms: N1_3  and  C3_4 
REMARK    3  A    between atoms: N1_3  and  S2_8 
REMARK    4  A    between atoms: C3_4  and  C4_5 
REMARK    5  A    between atoms: S2_8  and  C5_11 
ROOT
ATOM      1  S2  <0> d          -2.092  -0.923   1.446  0.00  0.00     0.265 S 
ATOM      2  O1  <0> d          -3.116  -1.857   1.133  0.00  0.00    -0.200 OA
ATOM      3  O2  <0> d          -1.043  -1.219   2.357  0.00  0.00    -0.200 OA
ENDROOT
BRANCH   1   4
ATOM      4  N1  <0> d          -1.372  -0.511   0.012  0.00  0.00    -0.301 N 
BRANCH   4   5
ATOM      5  C2  <0> d           0.002  -0.004   0.002  0.00  0.00     0.131 C 
ATOM      6  C1  <0> d          -0.019   1.526   0.010  0.00  0.00     0.027 C 
ENDBRANCH   4   5
BRANCH   4   7
ATOM      7  C3  <0> d          -2.110  -0.654  -1.245  0.00  0.00     0.204 C 
BRANCH   7   8
ATOM      8  C4  <0> d          -1.778  -1.983  -1.874  0.00  0.00     0.089 C 
ATOM      9  S1  <0> d          -0.754  -2.976  -1.151  0.00  0.00    -0.064 SA
ATOM     10  N2  <0> d          -2.344  -2.334  -3.046  0.00  0.00    -0.392 N 
ATOM     11  H8  <0> d          -2.964  -1.732  -3.485  0.00  0.00     0.156 HD
ATOM     12  H9  <0> d          -2.130  -3.189  -3.451  0.00  0.00     0.156 HD
ENDBRANCH   7   8
ENDBRANCH   4   7
ENDBRANCH   1   4
BRANCH   1  13
ATOM     13  C5  <0> d          -2.898   0.520   2.058  0.00  0.00     0.137 A 
ATOM     14  C7  <0> d          -4.167   0.888   1.796  0.00  0.00     0.100 A 
ATOM     15  O3  <0> d          -4.407   2.038   2.444  0.00  0.00    -0.216 OA
ATOM     16  C8  <0> d          -5.146   0.138   0.930  0.00  0.00     0.081 C 
ATOM     17  N3  <0> d          -3.225   2.403   3.134  0.00  0.00    -0.132 NA
ATOM     18  C6  <0> d          -2.325   1.491   2.899  0.00  0.00     0.084 A 
ATOM     19  C9  <0> d          -0.917   1.478   3.435  0.00  0.00     0.074 C 
ENDBRANCH   1  13
TORSDOF 5
