REMARK  3 active torsions:
REMARK  status: ('A' for Active; 'I' for Inactive)
REMARK    1  A    between atoms: C2_2  and  C3_3 
REMARK    2  A    between atoms: C3_3  and  C4_4 
REMARK    3  A    between atoms: C3_3  and  N2_7 
ROOT
ATOM      1  N2  <0> d           2.125  -0.091  -1.209  0.00  0.00    -0.276 N 
ATOM      2  C5  <0> d           2.960  -0.479  -0.236  0.00  0.00     0.228 A 
ATOM      3  O1  <0> d           2.667  -1.194   0.698  0.00  0.00    -0.273 OA
ATOM      4  C6  <0> d           4.331   0.116  -0.490  0.00  0.00     0.122 A 
ATOM      5  C7  <0> d           4.131   0.916  -1.783  0.00  0.00     0.050 A 
ATOM      6  C8  <0> d           2.686   0.697  -2.140  0.00  0.00     0.236 A 
ATOM      7  O2  <0> d           2.120   1.158  -3.107  0.00  0.00    -0.272 OA
ATOM      8  C9  <0> d           4.436   2.403  -1.560  0.00  0.00     0.020 C 
ATOM      9  C10 <0> d           5.884   2.571  -2.089  0.00  0.00     0.001 C 
ATOM     10  C11 <0> d           5.913   1.631  -3.321  0.00  0.00     0.001 C 
ATOM     11  C12 <0> d           5.061   0.416  -2.891  0.00  0.00     0.020 C 
ENDROOT
BRANCH   1  12
ATOM     12  C3  <0> d           0.718  -0.497  -1.257  0.00  0.00     0.156 C 
BRANCH  12  13
ATOM     13  C2  <0> d           0.002  -0.004   0.002  0.00  0.00     0.028 C 
ATOM     14  C1  <0> d          -0.019   1.526   0.010  0.00  0.00     0.007 C 
ENDBRANCH  12  13
BRANCH  12  15
ATOM     15  C4  <0> d           0.632  -2.000  -1.327  0.00  0.00     0.094 C 
ATOM     16  S1  <0> d           1.942  -2.888  -1.101  0.00  0.00    -0.064 SA
ATOM     17  N1  <0> d          -0.550  -2.596  -1.582  0.00  0.00    -0.392 N 
ATOM     18  H7  <0> d          -1.345  -2.057  -1.720  0.00  0.00     0.156 HD
ATOM     19  H8  <0> d          -0.606  -3.563  -1.627  0.00  0.00     0.156 HD
ENDBRANCH  12  15
ENDBRANCH   1  12
TORSDOF 3
