REMARK  5 active torsions:
REMARK  status: ('A' for Active; 'I' for Inactive)
REMARK    1  A    between atoms: C2_2  and  C3_3 
REMARK    2  A    between atoms: N1_5  and  C7_9 
REMARK    3  A    between atoms: C7_9  and  C8_10 
REMARK    4  A    between atoms: C7_9  and  C9_12 
REMARK    5  A    between atoms: C8_10  and  N2_11 
ROOT
ATOM      1  C7  <0> d          -2.823  -4.028   0.224  0.00  0.00     0.305 C 
ENDROOT
BRANCH   1   2
ATOM      2  N1  <0> d          -2.508  -2.594   0.212  0.00  0.00     0.105 N 
ATOM      3  C4  <0> d          -1.054  -2.373   0.223  0.00  0.00     0.305 C 
ATOM      4  C3  <0> d          -0.772  -0.869   0.270  0.00  0.00     0.149 C 
ATOM      5  O1  <0> d          -1.407  -0.234  -0.843  0.00  0.00    -0.382 OA
ATOM      6  C6  <0> d          -2.824  -0.429  -0.885  0.00  0.00     0.198 C 
ATOM      7  C5  <0> d          -3.127  -1.928  -0.944  0.00  0.00     0.299 C 
BRANCH   4   8
ATOM      8  C2  <0> d           0.738  -0.630   0.201  0.00  0.00     0.029 C 
ATOM      9  C1  <0> d           1.026   0.863   0.371  0.00  0.00     0.007 C 
ENDBRANCH   4   8
ENDBRANCH   1   2
BRANCH   1  10
ATOM     10  C8  <0> d          -4.341  -4.217   0.217  0.00  0.00     0.272 C 
BRANCH  10  11
ATOM     11  N2  <0> d          -4.932  -3.478   1.340  0.00  0.00    -0.077 N 
ATOM     12  H16 <0> d          -5.933  -3.603   1.335  0.00  0.00     0.274 HD
ATOM     13  H17 <0> d          -4.554  -3.827   2.208  0.00  0.00     0.274 HD
ATOM     14  H20 <0> d          -4.715  -2.497   1.249  0.00  0.00     0.274 HD
ENDBRANCH  10  11
ENDBRANCH   1  10
BRANCH   1  15
ATOM     15  C9  <0> d          -2.229  -4.684  -0.996  0.00  0.00     0.089 A 
ATOM     16  O2  <0> d          -2.341  -4.240  -2.259  0.00  0.00    -0.305 OA
ATOM     17  C12 <0> d          -1.684  -5.070  -3.085  0.00  0.00     0.121 A 
ATOM     18  C11 <0> d          -1.150  -6.065  -2.352  0.00  0.00     0.048 A 
ATOM     19 Br1  <0> d          -1.540  -4.878  -4.961  0.00  0.00    -0.023 Br
ATOM     20  C10 <0> d          -1.502  -5.815  -1.006  0.00  0.00     0.038 A 
ENDBRANCH   1  15
TORSDOF 5
