REMARK  6 active torsions:
REMARK  status: ('A' for Active; 'I' for Inactive)
REMARK    1  A    between atoms: C3_3  and  C10_14 
REMARK    2  A    between atoms: C10_14  and  C11_16 
REMARK    3  A    between atoms: C11_16  and  C12_17 
REMARK    4  A    between atoms: C12_17  and  C13_20 
REMARK    5  A    between atoms: N3_18  and  O4_19 
REMARK       I    between atoms: C13_20  and  N4_22 
REMARK    6  A    between atoms: N4_22  and  C14_23 
ROOT
ATOM      1  C12 <0> d           0.809  11.165   1.305  0.00  0.00     0.136 C 
ATOM      2  N3  <0> d          -0.460  11.397   1.383  0.00  0.00    -0.135 NA
ENDROOT
BRANCH   1   3
ATOM      3  C11 <0> d           1.305   9.906   0.642  0.00  0.00     0.153 C 
BRANCH   3   4
ATOM      4  C10 <0> d           0.130   9.096   0.159  0.00  0.00     0.186 C 
ATOM      5  O3  <0> d          -1.000   9.501   0.336  0.00  0.00    -0.290 OA
BRANCH   4   6
ATOM      6  C3  <0> d           0.352   7.815  -0.527  0.00  0.00     0.137 A 
ATOM      7  C2  <0> d          -0.728   7.145  -1.103  0.00  0.00     0.073 A 
ATOM      8  C1  <0> d          -2.110   7.739  -1.016  0.00  0.00     0.074 C 
ATOM      9  N2  <0> d          -0.545   5.982  -1.729  0.00  0.00    -0.189 N 
ATOM     10  C9  <0> d           0.716   5.448  -1.803  0.00  0.00     0.095 A 
ATOM     11  O2  <0> d          -1.642   5.304  -2.313  0.00  0.00    -0.080 OA
ATOM     12  C4  <0> d           1.799   6.138  -1.215  0.00  0.00     0.095 A 
ATOM     13  C8  <0> d           0.944   4.237  -2.454  0.00  0.00     0.034 A 
ATOM     14  N1  <0> d           1.585   7.307  -0.591  0.00  0.00    -0.181 N 
ATOM     15  C5  <0> d           3.090   5.588  -1.293  0.00  0.00     0.034 A 
ATOM     16  O1  <0> d           2.516   7.905  -0.083  0.00  0.00    -0.080 OA
ATOM     17  C6  <0> d           3.279   4.399  -1.933  0.00  0.00     0.002 A 
ATOM     18  C7  <0> d           2.209   3.724  -2.510  0.00  0.00     0.002 A 
ENDBRANCH   4   6
ENDBRANCH   3   4
ENDBRANCH   1   3
BRANCH   1  19
ATOM     19  C13 <0> d           1.772  12.132   1.865  0.00  0.00     0.273 C 
ATOM     20  O5  <0> d           2.961  12.001   1.649  0.00  0.00    -0.266 OA
ATOM     21  N4  <0> d           1.333  13.162   2.616  0.00  0.00    -0.320 N 
ATOM     22  H11 <0> d           0.396  13.221   2.857  0.00  0.00     0.169 HD
BRANCH  21  23
ATOM     23  C14 <0> d           2.230  14.146   3.046  0.00  0.00     0.058 A 
ATOM     24  C19 <0> d           1.958  14.883   4.192  0.00  0.00     0.062 A 
ATOM     25  C18 <0> d           2.845  15.854   4.615  0.00  0.00     0.051 A 
ATOM     26 Cl1  <0> d           0.503  14.584   5.092  0.00  0.00    -0.082 Cl
ATOM     27  C17 <0> d           4.004  16.093   3.899  0.00  0.00     0.057 A 
ATOM     28  C16 <0> d           4.279  15.360   2.756  0.00  0.00     0.058 A 
ATOM     29 Cl2  <0> d           5.117  17.314   4.433  0.00  0.00    -0.082 Cl
ATOM     30  C15 <0> d           3.397  14.384   2.332  0.00  0.00     0.057 A 
ATOM     31 Cl3  <0> d           5.735  15.662   1.861  0.00  0.00    -0.082 Cl
ENDBRANCH  21  23
ENDBRANCH   1  19
BRANCH   2  32
ATOM     32  O4  <0> d          -0.923  12.647   1.863  0.00  0.00    -0.266 OA
ATOM     33  H10 <0> d          -1.886  12.727   1.885  0.00  0.00     0.247 HD
ENDBRANCH   2  32
TORSDOF 6
