REMARK  6 active torsions:
REMARK  status: ('A' for Active; 'I' for Inactive)
REMARK    1  A    between atoms: C5_5  and  N2_13 
REMARK    2  A    between atoms: C7_7  and  N1_8 
REMARK    3  A    between atoms: N1_8  and  S1_9 
REMARK       I    between atoms: N2_13  and  C9_14 
REMARK    4  A    between atoms: C9_14  and  C10_16 
REMARK    5  A    between atoms: C11_17  and  C12_18 
REMARK    6  A    between atoms: C15_21  and  N3_24 
ROOT
ATOM      1  N2  <0> d           0.056  -4.173  -0.027  0.00  0.00    -0.324 N 
ATOM      2  C9  <0> d          -0.043  -4.838  -1.196  0.00  0.00     0.245 C 
ATOM      3  O3  <0> d          -0.056  -4.223  -2.246  0.00  0.00    -0.268 OA
ATOM      4  H10 <0> d           0.144  -4.665   0.804  0.00  0.00     0.169 HD
ENDROOT
BRANCH   2   5
ATOM      5  C10 <0> d          -0.135  -6.298  -1.202  0.00  0.00     0.075 C 
ATOM      6  C11 <0> d          -0.234  -6.963  -2.372  0.00  0.00     0.017 C 
BRANCH   6   7
ATOM      7  C12 <0> d          -0.326  -8.430  -2.378  0.00  0.00    -0.036 A 
ATOM      8  C17 <0> d          -0.429  -9.122  -3.590  0.00  0.00     0.013 A 
ATOM      9  C16 <0> d          -0.511 -10.496  -3.591  0.00  0.00     0.031 A 
ATOM     10  C15 <0> d          -0.501 -11.196  -2.389  0.00  0.00     0.039 A 
ATOM     11  C14 <0> d          -0.404 -10.513  -1.182  0.00  0.00     0.031 A 
ATOM     12  C13 <0> d          -0.317  -9.139  -1.171  0.00  0.00     0.013 A 
BRANCH  10  13
ATOM     13  N3  <0> d          -0.589 -12.592  -2.395  0.00  0.00    -0.315 N 
ATOM     14  C20 <0> d          -0.591 -13.406  -1.306  0.00  0.00     0.214 A 
ATOM     15  N4  <0> d          -0.689 -14.643  -1.712  0.00  0.00    -0.254 NA
ATOM     16  C19 <0> d          -0.745 -14.668  -3.053  0.00  0.00     0.135 A 
ATOM     17  C18 <0> d          -0.684 -13.399  -3.500  0.00  0.00     0.117 A 
ENDBRANCH  10  13
ENDBRANCH   6   7
ENDBRANCH   2   5
BRANCH   1  18
ATOM     18  C5  <0> d           0.033  -2.776  -0.014  0.00  0.00     0.037 A 
ATOM     19  C4  <0> d          -0.733  -2.084  -0.945  0.00  0.00     0.030 A 
ATOM     20  C3  <0> d          -0.757  -0.703  -0.931  0.00  0.00     0.011 A 
ATOM     21  C2  <0> d          -0.021  -0.004   0.007  0.00  0.00    -0.032 A 
ATOM     22  C1  <0> d          -0.051   1.502   0.018  0.00  0.00     0.050 C 
ATOM     23  C7  <0> d           0.751  -0.690   0.936  0.00  0.00     0.077 A 
ATOM     24  C6  <0> d           0.774  -2.078   0.929  0.00  0.00     0.062 A 
BRANCH  23  25
ATOM     25  N1  <0> d           1.500   0.016   1.881  0.00  0.00    -0.165 NA
BRANCH  25  26
ATOM     26  S1  <0> d           2.420  -0.802   2.988  0.00  0.00     0.247 S 
ATOM     27  O1  <0> d           1.484  -1.530   3.771  0.00  0.00    -0.204 OA
ATOM     28  O2  <0> d           3.400  -1.480   2.215  0.00  0.00    -0.204 OA
ATOM     29  C8  <0> d           3.201   0.492   3.992  0.00  0.00     0.188 C 
ENDBRANCH  25  26
ENDBRANCH  23  25
ENDBRANCH   1  18
TORSDOF 6
