REMARK  7 active torsions:
REMARK  status: ('A' for Active; 'I' for Inactive)
REMARK    1  A    between atoms: C6_6  and  C20_25 
REMARK    2  A    between atoms: C7_7  and  N1_8 
REMARK       I    between atoms: N1_8  and  C8_9 
REMARK       I    between atoms: C8_9  and  N2_11 
REMARK    3  A    between atoms: N2_11  and  C9_12 
REMARK    4  A    between atoms: C9_12  and  C10_13 
REMARK    5  A    between atoms: C10_13  and  C11_14 
REMARK    6  A    between atoms: C10_13  and  N3_22 
REMARK    7  A    between atoms: C15_18  and  O2_20 
ROOT
ATOM      1  N1  <0> d           0.340  -0.006   2.574  0.00  0.00    -0.308 N 
ATOM      2  C8  <0> d          -0.169   1.242   2.571  0.00  0.00     0.320 C 
ATOM      3  O1  <0> d          -0.793   1.643   1.608  0.00  0.00    -0.247 OA
ATOM      4  N2  <0> d           0.015   2.047   3.637  0.00  0.00    -0.341 N 
ATOM      5  H8  <0> d           0.791  -0.344   3.362  0.00  0.00     0.170 HD
ATOM      6  H9  <0> d           0.512   1.727   4.406  0.00  0.00     0.164 HD
ENDROOT
BRANCH   4   7
ATOM      7  C9  <0> d          -0.538   3.403   3.635  0.00  0.00     0.162 C 
BRANCH   7   8
ATOM      8  C10 <0> d          -0.289   4.058   4.995  0.00  0.00     0.238 C 
BRANCH   8   9
ATOM      9  C11 <0> d           1.192   4.241   5.201  0.00  0.00    -0.023 A 
ATOM     10  C16 <0> d           1.896   3.345   5.982  0.00  0.00     0.046 A 
ATOM     11  C15 <0> d           3.261   3.511   6.166  0.00  0.00     0.068 A 
ATOM     12  C14 <0> d           3.914   4.583   5.575  0.00  0.00     0.037 A 
ATOM     13  C13 <0> d           3.204   5.479   4.799  0.00  0.00     0.003 A 
ATOM     14  C12 <0> d           1.845   5.309   4.612  0.00  0.00     0.009 A 
BRANCH  11  15
ATOM     15  O2  <0> d           3.958   2.628   6.929  0.00  0.00    -0.356 OA
ATOM     16  C17 <0> d           5.359   2.864   7.080  0.00  0.00     0.210 C 
ENDBRANCH  11  15
ENDBRANCH   8   9
BRANCH   8  17
ATOM     17  N3  <0> d          -0.955   5.367   5.038  0.00  0.00    -0.069 N 
ATOM     18  C18 <0> d          -2.406   5.182   4.906  0.00  0.00     0.270 C 
ATOM     19  C19 <0> d          -0.659   6.025   6.317  0.00  0.00     0.270 C 
ATOM     20  H32 <0> d          -0.619   5.940   4.279  0.00  0.00     0.279 HD
ENDBRANCH   8  17
ENDBRANCH   7   8
ENDBRANCH   4   7
BRANCH   1  21
ATOM     21  C7  <0> d           0.216  -0.814   1.438  0.00  0.00     0.049 A 
ATOM     22  C2  <0> d          -1.033  -1.278   1.047  0.00  0.00    -0.035 A 
ATOM     23  C1  <0> d          -2.257  -0.912   1.845  0.00  0.00     0.050 C 
ATOM     24  C3  <0> d          -1.152  -2.071  -0.078  0.00  0.00     0.009 A 
ATOM     25  C4  <0> d          -0.029  -2.407  -0.811  0.00  0.00     0.001 A 
ATOM     26  C5  <0> d           1.217  -1.951  -0.421  0.00  0.00     0.010 A 
ATOM     27  C6  <0> d           1.343  -1.158   0.702  0.00  0.00    -0.027 A 
BRANCH  27  28
ATOM     28  C20 <0> d           2.701  -0.663   1.127  0.00  0.00     0.013 C 
ATOM     29  C21 <0> d           3.613  -1.857   1.414  0.00  0.00     0.015 C 
ATOM     30  C22 <0> d           3.308   0.185   0.007  0.00  0.00     0.015 C 
ENDBRANCH  27  28
ENDBRANCH   1  21
TORSDOF 7
