REMARK  6 active torsions:
REMARK  status: ('A' for Active; 'I' for Inactive)
REMARK    1  A    between atoms: C3_4  and  C14_19 
REMARK    2  A    between atoms: C5_6  and  S1_7 
REMARK    3  A    between atoms: S1_7  and  C6_8 
REMARK    4  A    between atoms: C7_11  and  C11_16 
REMARK    5  A    between atoms: N4_12  and  C8_13 
REMARK    6  A    between atoms: C14_19  and  N5_20 
ROOT
ATOM      1  S1  <0> d          -1.488  -0.906   0.649  0.00  0.00    -0.050 SA
ENDROOT
BRANCH   1   2
ATOM      2  C5  <0> d          -0.016   0.042   0.843  0.00  0.00     0.011 A 
ATOM      3  C1  <0> d           0.354   0.542   2.091  0.00  0.00     0.038 A 
ATOM      4  C2  <0> d           1.514   1.279   2.201  0.00  0.00     0.118 A 
ATOM      5  N1  <0> d           2.271   1.512   1.144  0.00  0.00    -0.264 NA
ATOM      6  C3  <0> d           1.955   1.056  -0.054  0.00  0.00     0.060 A 
ATOM      7  C4  <0> d           0.811   0.311  -0.248  0.00  0.00     0.048 A 
BRANCH   6   8
ATOM      8  C14 <0> d           2.857   1.354  -1.224  0.00  0.00     0.288 C 
BRANCH   8   9
ATOM      9  N5  <0> d           2.514   2.668  -1.784  0.00  0.00    -0.074 N 
ATOM     10  H16 <0> d           1.553   2.661  -2.093  0.00  0.00     0.274 HD
ATOM     11  H17 <0> d           2.635   3.377  -1.077  0.00  0.00     0.274 HD
ATOM     12  H18 <0> d           3.117   2.867  -2.568  0.00  0.00     0.274 HD
ENDBRANCH   8   9
ENDBRANCH   6   8
ENDBRANCH   1   2
BRANCH   1  13
ATOM     13  C6  <0> d          -2.749   0.306   0.429  0.00  0.00     0.196 A 
ATOM     14  N4  <0> d          -4.091   0.073   0.333  0.00  0.00    -0.306 N 
ATOM     15  C7  <0> d          -4.670   1.301   0.175  0.00  0.00     0.135 A 
ATOM     16  N3  <0> d          -3.711   2.184   0.172  0.00  0.00    -0.134 NA
ATOM     17  N2  <0> d          -2.575   1.602   0.322  0.00  0.00    -0.122 NA
BRANCH  14  18
ATOM     18  C8  <0> d          -4.770  -1.224   0.390  0.00  0.00     0.093 A 
ATOM     19  C10 <0> d          -4.450  -2.138   1.575  0.00  0.00     0.028 A 
ATOM     20  C9  <0> d          -3.917  -2.478   0.181  0.00  0.00     0.028 A 
ENDBRANCH  14  18
BRANCH  15  21
ATOM     21  C11 <0> d          -6.143   1.581   0.026  0.00  0.00     0.057 A 
ATOM     22  C13 <0> d          -6.799   2.486   1.070  0.00  0.00     0.013 A 
ATOM     23  C12 <0> d          -6.556   3.006  -0.348  0.00  0.00     0.013 A 
ENDBRANCH  15  21
ENDBRANCH   1  13
TORSDOF 6
