REMARK  3 active torsions:
REMARK  status: ('A' for Active; 'I' for Inactive)
REMARK    1  A    between atoms: C6_6  and  O1_8 
REMARK    2  A    between atoms: O1_8  and  C7_9 
REMARK    3  A    between atoms: C13_15  and  O2_19 
ROOT
ATOM      1  C1  <0> d           4.535  -1.144   1.821  0.00  0.00     0.070 C 
ATOM      2  C2  <0> d           3.362  -1.957   1.338  0.00  0.00     0.033 A 
ATOM      3  C3  <0> d           3.481  -2.698   0.176  0.00  0.00     0.028 A 
ATOM      4  C4  <0> d           2.405  -3.445  -0.268  0.00  0.00     0.029 A 
ATOM      5  C5  <0> d           1.224  -3.422   0.484  0.00  0.00     0.097 A 
ATOM      6  C6  <0> d           1.182  -2.646   1.652  0.00  0.00     0.191 A 
ATOM      7  N1  <0> d           2.242  -1.954   2.034  0.00  0.00    -0.228 NA
ATOM      8  C17 <0> d           0.081  -4.178   0.068  0.00  0.00     0.104 C 
ATOM      9  N2  <0> d          -0.826  -4.776  -0.262  0.00  0.00    -0.191 NA
ENDROOT
BRANCH   6  10
ATOM     10  O1  <0> d           0.050  -2.609   2.395  0.00  0.00    -0.291 OA
BRANCH  10  11
ATOM     11  C7  <0> d           0.080  -1.927   3.570  0.00  0.00     0.078 A 
ATOM     12  C16 <0> d           0.165  -2.615   4.747  0.00  0.00     0.049 A 
ATOM     13  C15 <0> d           0.202  -1.911   5.962  0.00  0.00    -0.021 A 
ATOM     14  C10 <0> d           0.138  -0.495   5.948  0.00  0.00    -0.026 A 
ATOM     15  C14 <0> d           0.294  -2.586   7.191  0.00  0.00     0.049 A 
ATOM     16  C9  <0> d           0.045   0.180   4.718  0.00  0.00     0.015 A 
ATOM     17  C11 <0> d           0.168   0.209   7.164  0.00  0.00     0.015 A 
ATOM     18  C8  <0> d           0.017  -0.530   3.559  0.00  0.00     0.038 A 
ATOM     19  C12 <0> d           0.259  -0.473   8.337  0.00  0.00     0.037 A 
ATOM     20  C13 <0> d           0.322  -1.870   8.353  0.00  0.00     0.066 A 
BRANCH  20  21
ATOM     21  O2  <0> d           0.412  -2.523   9.541  0.00  0.00    -0.361 OA
ATOM     22  H12 <0> d          -0.443  -2.752   9.931  0.00  0.00     0.217 HD
ENDBRANCH  20  21
ENDBRANCH  10  11
ENDBRANCH   6  10
TORSDOF 3
