REMARK  3 active torsions:
REMARK  status: ('A' for Active; 'I' for Inactive)
REMARK    1  A    between atoms: N3_13  and  N4_16 
REMARK    2  A    between atoms: C11_17  and  C12_18 
REMARK    3  A    between atoms: C15_21  and  S1_23 
ROOT
ATOM      1  C1  <0> d          -0.023   1.373   0.011  0.00  0.00     0.021 A 
ATOM      2  C2  <0> d           1.118   2.106   0.013  0.00  0.00     0.031 A 
ATOM      3  C3  <0> d           2.377   1.459  -0.007  0.00  0.00     0.041 A 
ATOM      4  N1  <0> d           3.612   1.940   0.031  0.00  0.00    -0.371 N 
ATOM      5  C4  <0> d           4.534   0.843  -0.174  0.00  0.00     0.230 C 
ATOM      6  C5  <0> d           3.724  -0.427  -0.013  0.00  0.00     0.080 C 
ATOM      7  C6  <0> d           2.400  -0.017  -0.016  0.00  0.00     0.019 A 
ATOM      8  C7  <0> d           1.173  -0.713  -0.022  0.00  0.00     0.035 A 
ATOM      9  C8  <0> d           0.003  -0.024  -0.008  0.00  0.00     0.011 A 
ATOM     10 Br1  <0> d          -1.631  -0.977  -0.015  0.00  0.00    -0.051 Br
ATOM     11  N2  <0> d           4.276  -1.602   0.257  0.00  0.00    -0.243 NA
ATOM     12  C9  <0> d           5.522  -1.612   0.691  0.00  0.00     0.238 C 
ATOM     13  N3  <0> d           6.189  -0.479   1.027  0.00  0.00    -0.193 N 
ATOM     14  C10 <0> d           5.686   0.744   0.779  0.00  0.00     0.274 C 
ATOM     15  O1  <0> d           6.164   1.730   1.298  0.00  0.00    -0.268 OA
ATOM     16  H9  <0> d           3.857   2.868   0.173  0.00  0.00     0.161 HD
ENDROOT
BRANCH  13  17
ATOM     17  N4  <0> d           7.430  -0.591   1.669  0.00  0.00    -0.174 NA
ATOM     18  C11 <0> d           7.873  -1.762   2.029  0.00  0.00     0.176 C 
BRANCH  18  19
ATOM     19  C12 <0> d           9.117  -1.870   2.794  0.00  0.00     0.096 A 
ATOM     20  O2  <0> d           9.897  -0.843   3.188  0.00  0.00    -0.295 OA
ATOM     21  C15 <0> d          10.950  -1.319   3.869  0.00  0.00     0.192 A 
ATOM     22  C14 <0> d          10.866  -2.665   3.914  0.00  0.00     0.055 A 
ATOM     23  C13 <0> d           9.694  -3.029   3.228  0.00  0.00     0.042 A 
BRANCH  21  24
ATOM     24  S1  <0> d          12.236  -0.347   4.582  0.00  0.00     0.161 S 
ATOM     25  O3  <0> d          11.646   0.931   4.947  0.00  0.00    -0.590 OA
ATOM     26  O4  <0> d          12.720  -1.074   5.745  0.00  0.00    -0.590 OA
ATOM     27  O5  <0> d          13.266  -0.199   3.565  0.00  0.00    -0.590 OA
ENDBRANCH  21  24
ENDBRANCH  18  19
ENDBRANCH  13  17
TORSDOF 3
