REMARK  6 active torsions:
REMARK  status: ('A' for Active; 'I' for Inactive)
REMARK    1  A    between atoms: C3_3  and  C6_8 
REMARK    2  A    between atoms: C6_8  and  N3_10 
REMARK       I    between atoms: N3_10  and  C8_11 
REMARK    3  A    between atoms: C8_11  and  C9_13 
REMARK       I    between atoms: C9_13  and  N4_15 
REMARK    4  A    between atoms: N4_15  and  C10_16 
REMARK    5  A    between atoms: C14_20  and  N5_22 
REMARK       I    between atoms: N5_22  and  C16_23 
REMARK    6  A    between atoms: C16_23  and  C17_25 
ROOT
ATOM      1  C9  <0> d          -1.735  -2.104  -5.440  0.00  0.00     0.314 C 
ATOM      2  O2  <0> d          -1.677  -3.266  -5.093  0.00  0.00    -0.262 OA
ATOM      3  N4  <0> d          -2.323  -1.779  -6.609  0.00  0.00    -0.319 N 
ATOM      4  H13 <0> d          -2.430  -0.847  -6.855  0.00  0.00     0.169 HD
ENDROOT
BRANCH   1   5
ATOM      5  C8  <0> d          -1.155  -1.035  -4.574  0.00  0.00     0.310 C 
ATOM      6  N3  <0> d          -0.566  -1.361  -3.405  0.00  0.00    -0.344 N 
ATOM      7  H12 <0> d          -0.520  -2.289  -3.128  0.00  0.00     0.163 HD
ATOM      8  O1  <0> d          -1.213   0.126  -4.921  0.00  0.00    -0.262 OA
BRANCH   6   9
ATOM      9  C6  <0> d           0.003  -0.312  -2.555  0.00  0.00     0.117 C 
ATOM     10  C7  <0> d           1.427   0.001  -3.017  0.00  0.00     0.037 C 
BRANCH   9  11
ATOM     11  C3  <0> d           0.031  -0.786  -1.125  0.00  0.00     0.007 A 
ATOM     12  C2  <0> d           0.025   0.002  -0.025  0.00  0.00     0.036 A 
ATOM     13  C1  <0> d          -0.009   1.509  -0.011  0.00  0.00     0.070 C 
ATOM     14  N2  <0> d           0.062  -0.802   1.058  0.00  0.00    -0.278 N 
ATOM     15  N1  <0> d           0.083  -2.129   0.609  0.00  0.00    -0.184 NA
ATOM     16  C5  <0> d           0.075  -0.365   2.456  0.00  0.00     0.179 C 
ATOM     17  C4  <0> d           0.067  -2.118  -0.699  0.00  0.00     0.150 A 
ENDBRANCH   9  11
ENDBRANCH   6   9
ENDBRANCH   1   5
BRANCH   3  18
ATOM     18  C10 <0> d          -2.780  -2.784  -7.465  0.00  0.00     0.037 A 
ATOM     19  C15 <0> d          -3.312  -3.954  -6.941  0.00  0.00     0.059 A 
ATOM     20  C14 <0> d          -3.771  -4.947  -7.795  0.00  0.00     0.036 A 
ATOM     21  C13 <0> d          -3.684  -4.774  -9.170  0.00  0.00     0.029 A 
ATOM     22  C12 <0> d          -3.147  -3.610  -9.689  0.00  0.00     0.004 A 
ATOM     23  C11 <0> d          -2.696  -2.617  -8.842  0.00  0.00     0.029 A 
BRANCH  20  24
ATOM     24  N5  <0> d          -4.315  -6.125  -7.270  0.00  0.00    -0.327 N 
ATOM     25  C16 <0> d          -4.112  -7.299  -7.900  0.00  0.00     0.226 C 
ATOM     26  O3  <0> d          -3.530  -7.324  -8.964  0.00  0.00    -0.273 OA
ATOM     27  H18 <0> d          -4.838  -6.096  -6.454  0.00  0.00     0.169 HD
BRANCH  25  28
ATOM     28  C17 <0> d          -4.608  -8.581  -7.282  0.00  0.00     0.078 A 
ATOM     29  C19 <0> d          -4.348  -9.881  -8.046  0.00  0.00     0.015 A 
ATOM     30  C18 <0> d          -3.560  -9.571  -6.771  0.00  0.00     0.015 A 
ENDBRANCH  25  28
ENDBRANCH  20  24
ENDBRANCH   3  18
TORSDOF 6
