REMARK  4 active torsions:
REMARK  status: ('A' for Active; 'I' for Inactive)
REMARK    1  A    between atoms: C7_8  and  C9_10 
REMARK    2  A    between atoms: C9_10  and  N2_11 
REMARK       I    between atoms: N2_11  and  C10_12 
REMARK    3  A    between atoms: C10_12  and  C11_14 
REMARK    4  A    between atoms: C13_16  and  N3_21 
ROOT
ATOM      1  N2  <0> d          -2.409  -3.297   2.229  0.00  0.00    -0.356 N 
ATOM      2  C10 <0> d          -3.193  -3.338   3.325  0.00  0.00     0.253 C 
ATOM      3  O1  <0> d          -2.818  -2.821   4.359  0.00  0.00    -0.268 OA
ATOM      4  H17 <0> d          -2.708  -3.710   1.403  0.00  0.00     0.162 HD
ENDROOT
BRANCH   1   5
ATOM      5  C9  <0> d          -1.106  -2.630   2.284  0.00  0.00     0.127 C 
BRANCH   5   6
ATOM      6  C7  <0> d          -0.424  -2.727   0.918  0.00  0.00     0.007 C 
ATOM      7  C6  <0> d           0.940  -2.035   0.979  0.00  0.00     0.039 C 
ATOM      8  C5  <0> d           0.724  -0.529   1.202  0.00  0.00     0.188 C 
ATOM      9  N1  <0> d           0.012  -0.004   0.007  0.00  0.00    -0.066 N 
ATOM     10  C4  <0> d          -0.293  -0.363   2.354  0.00  0.00     0.035 C 
ATOM     11  C1  <0> d          -0.003   1.465   0.018  0.00  0.00     0.270 C 
ATOM     12  C2  <0> d          -1.366  -0.543   0.161  0.00  0.00     0.188 C 
ATOM     13  H23 <0> d           0.438  -0.349  -0.840  0.00  0.00     0.280 HD
ATOM     14  C8  <0> d          -1.305  -2.046  -0.153  0.00  0.00     0.039 C 
ATOM     15  C3  <0> d          -1.674  -0.372   1.666  0.00  0.00     0.035 C 
ENDBRANCH   5   6
ENDBRANCH   1   5
BRANCH   2  16
ATOM     16  C11 <0> d          -4.507  -4.011   3.268  0.00  0.00     0.051 A 
ATOM     17  C16 <0> d          -5.321  -4.054   4.402  0.00  0.00     0.026 A 
ATOM     18  C15 <0> d          -6.552  -4.679   4.345  0.00  0.00     0.022 A 
ATOM     19 Br1  <0> d          -4.743  -3.251   6.013  0.00  0.00    -0.050 Br
ATOM     20  C14 <0> d          -6.977  -5.273   3.172  0.00  0.00     0.030 A 
ATOM     21  C13 <0> d          -6.171  -5.240   2.039  0.00  0.00     0.026 A 
ATOM     22  C12 <0> d          -4.937  -4.610   2.084  0.00  0.00     0.047 A 
BRANCH  21  23
ATOM     23  N3  <0> d          -6.606  -5.841   0.855  0.00  0.00    -0.399 N 
ATOM     24  H21 <0> d          -6.044  -5.818   0.065  0.00  0.00     0.156 HD
ATOM     25  H22 <0> d          -7.469  -6.282   0.823  0.00  0.00     0.156 HD
ENDBRANCH  21  23
ENDBRANCH   2  16
TORSDOF 4
