REMARK  7 active torsions:
REMARK  status: ('A' for Active; 'I' for Inactive)
REMARK    1  A    between atoms: C4_4  and  O3_22 
REMARK    2  A    between atoms: C5_5  and  C7_7 
REMARK    3  A    between atoms: C11_11  and  C13_14 
REMARK    4  A    between atoms: C13_14  and  C14_15 
REMARK    5  A    between atoms: C13_14  and  N1_18 
REMARK    6  A    between atoms: C14_15  and  C15_16 
REMARK    7  A    between atoms: N1_18  and  C16_19 
ROOT
ATOM      1  C7  <0> d           1.244  -2.166  -0.022  0.00  0.00     0.033 A 
ATOM      2  C8  <0> d           1.263  -2.872   1.180  0.00  0.00     0.025 A 
ATOM      3  C9  <0> d           1.287  -4.253   1.166  0.00  0.00     0.021 A 
ATOM      4  C10 <0> d           1.293  -4.936  -0.038  0.00  0.00     0.014 A 
ATOM      5  C11 <0> d           1.275  -4.242  -1.233  0.00  0.00     0.004 A 
ATOM      6  C12 <0> d           1.244  -2.859  -1.232  0.00  0.00     0.137 A 
ATOM      7  F1  <0> d           1.220  -2.182  -2.401  0.00  0.00    -0.204 F 
ATOM      8 Br1  <0> d           1.256  -1.942   2.826  0.00  0.00    -0.050 Br
ENDROOT
BRANCH   1   9
ATOM      9  C5  <0> d           1.219  -0.683  -0.013  0.00  0.00     0.012 A 
ATOM     10  C4  <0> d           2.415   0.041  -0.021  0.00  0.00     0.076 A 
ATOM     11  C3  <0> d           2.382   1.426  -0.013  0.00  0.00     0.037 A 
ATOM     12  C2  <0> d           1.169   2.089   0.002  0.00  0.00     0.003 A 
ATOM     13  C1  <0> d          -0.017   1.376   0.010  0.00  0.00     0.001 A 
ATOM     14  C6  <0> d           0.002  -0.004   0.002  0.00  0.00     0.015 A 
BRANCH  10  15
ATOM     15  O3  <0> d           3.606  -0.613  -0.037  0.00  0.00    -0.360 OA
ATOM     16  H13 <0> d           3.960  -0.806   0.842  0.00  0.00     0.217 HD
ENDBRANCH  10  15
ENDBRANCH   1   9
BRANCH   5  17
ATOM     17  C13 <0> d           1.282  -4.993  -2.539  0.00  0.00     0.126 C 
BRANCH  17  18
ATOM     18  C14 <0> d           2.719  -5.112  -3.051  0.00  0.00     0.099 C 
BRANCH  18  19
ATOM     19  C15 <0> d           2.715  -5.755  -4.415  0.00  0.00     0.233 C 
ATOM     20  O1  <0> d           3.246  -5.198  -5.346  0.00  0.00    -0.307 OA
ENDBRANCH  18  19
ENDBRANCH  17  18
BRANCH  17  21
ATOM     21  N1  <0> d           0.724  -6.332  -2.336  0.00  0.00    -0.359 N 
ATOM     22  H11 <0> d           0.756  -6.743  -1.458  0.00  0.00     0.162 HD
BRANCH  21  23
ATOM     23  C16 <0> d           0.164  -6.993  -3.368  0.00  0.00     0.349 C 
ATOM     24  O2  <0> d           0.123  -6.479  -4.466  0.00  0.00    -0.284 OA
ENDBRANCH  21  23
ENDBRANCH  17  21
ENDBRANCH   5  17
TORSDOF 7
