REMARK  8 active torsions:
REMARK  status: ('A' for Active; 'I' for Inactive)
REMARK    1  A    between atoms: C2_2  and  C3_3 
REMARK    2  A    between atoms: C3_3  and  C4_4 
REMARK    3  A    between atoms: C3_3  and  N2_17 
REMARK    4  A    between atoms: C9_9  and  O1_10 
REMARK    5  A    between atoms: O1_10  and  C10_11 
REMARK    6  A    between atoms: C10_11  and  C11_12 
REMARK       I    between atoms: C11_12  and  N1_14 
REMARK       I    between atoms: N2_17  and  C14_18 
REMARK    7  A    between atoms: C14_18  and  C15_20 
REMARK       I    between atoms: C15_20  and  N3_22 
REMARK    8  A    between atoms: N3_22  and  C16_23 
ROOT
ATOM      1  C3  <0> d          -1.444  -0.538   0.018  0.00  0.00     0.120 C 
ENDROOT
BRANCH   1   2
ATOM      2  C2  <0> d          -0.010  -0.006   0.018  0.00  0.00     0.025 C 
ATOM      3  C1  <0> d          -0.034   1.524   0.032  0.00  0.00     0.007 C 
ENDBRANCH   1   2
BRANCH   1   4
ATOM      4  C4  <0> d          -1.423  -2.041   0.128  0.00  0.00    -0.002 A 
ATOM      5  C9  <0> d          -1.340  -2.644   1.375  0.00  0.00     0.077 A 
ATOM      6  C8  <0> d          -1.326  -4.028   1.473  0.00  0.00     0.037 A 
ATOM      7  C7  <0> d          -1.383  -4.802   0.330  0.00  0.00     0.003 A 
ATOM      8  C6  <0> d          -1.459  -4.198  -0.912  0.00  0.00     0.001 A 
ATOM      9  C5  <0> d          -1.478  -2.819  -1.012  0.00  0.00     0.012 A 
BRANCH   5  10
ATOM     10  O1  <0> d          -1.279  -1.881   2.497  0.00  0.00    -0.341 OA
BRANCH  10  11
ATOM     11  C10 <0> d          -1.196  -2.571   3.746  0.00  0.00     0.278 C 
BRANCH  11  12
ATOM     12  C11 <0> d          -1.137  -1.568   4.870  0.00  0.00     0.243 C 
ATOM     13  O2  <0> d          -1.163  -0.381   4.626  0.00  0.00    -0.271 OA
ATOM     14  N1  <0> d          -1.055  -1.992   6.147  0.00  0.00    -0.359 N 
ATOM     15  C12 <0> d          -0.997  -1.018   7.240  0.00  0.00     0.152 C 
ATOM     16  C13 <0> d          -1.023  -3.426   6.442  0.00  0.00     0.152 C 
ENDBRANCH  11  12
ENDBRANCH  10  11
ENDBRANCH   5  10
ENDBRANCH   1   4
BRANCH   1  17
ATOM     17  N2  <0> d          -2.109  -0.150  -1.228  0.00  0.00    -0.344 N 
ATOM     18  C14 <0> d          -2.696   1.059  -1.331  0.00  0.00     0.310 C 
ATOM     19  O3  <0> d          -2.673   1.827  -0.391  0.00  0.00    -0.262 OA
ATOM     20  H19 <0> d          -2.128  -0.763  -1.980  0.00  0.00     0.163 HD
BRANCH  18  21
ATOM     21  C15 <0> d          -3.373   1.455  -2.602  0.00  0.00     0.314 C 
ATOM     22  O4  <0> d          -3.396   0.688  -3.542  0.00  0.00    -0.262 OA
ATOM     23  N3  <0> d          -3.959   2.665  -2.704  0.00  0.00    -0.319 N 
ATOM     24  H20 <0> d          -4.000   3.251  -1.933  0.00  0.00     0.169 HD
BRANCH  23  25
ATOM     25  C16 <0> d          -4.509   3.074  -3.922  0.00  0.00     0.035 A 
ATOM     26  C21 <0> d          -5.118   2.146  -4.758  0.00  0.00     0.030 A 
ATOM     27  C20 <0> d          -5.666   2.555  -5.958  0.00  0.00     0.009 A 
ATOM     28  C19 <0> d          -5.597   3.884  -6.334  0.00  0.00    -0.062 A 
ATOM     29  C18 <0> d          -4.986   4.809  -5.507  0.00  0.00     0.009 A 
ATOM     30  C22 <0> d          -6.189   4.325  -7.647  0.00  0.00     0.048 C 
ATOM     31  C17 <0> d          -4.442   4.408  -4.303  0.00  0.00     0.030 A 
ENDBRANCH  23  25
ENDBRANCH  18  21
ENDBRANCH   1  17
TORSDOF 8
