REMARK  3 active torsions:
REMARK  status: ('A' for Active; 'I' for Inactive)
REMARK    1  A    between atoms: C6_6  and  C8_8 
REMARK    2  A    between atoms: C9_11  and  C10_13 
REMARK    3  A    between atoms: C11_14  and  O3_24 
ROOT
ATOM      1  C8  <0> d           0.516  -2.656   2.514  0.00  0.00     0.163 A 
ATOM      2  N1  <0> d           0.635  -3.932   2.680  0.00  0.00    -0.113 NA
ATOM      3  O1  <0> d           0.875  -4.246   4.039  0.00  0.00    -0.227 OA
ATOM      4  C9  <0> d           0.898  -2.998   4.749  0.00  0.00     0.274 A 
ATOM      5  N2  <0> d           0.665  -1.980   3.712  0.00  0.00    -0.343 N 
ATOM      6  H9  <0> d           0.621  -1.020   3.843  0.00  0.00     0.164 HD
ENDROOT
BRANCH   4   7
ATOM      7  C10 <0> d           2.262  -2.783   5.407  0.00  0.00     0.186 A 
ATOM      8  C18 <0> d           3.282  -2.588   4.309  0.00  0.00     0.237 A 
ATOM      9  N3  <0> d           4.322  -3.391   4.223  0.00  0.00    -0.326 N 
ATOM     10  O2  <0> d           3.142  -1.687   3.502  0.00  0.00    -0.272 OA
ATOM     11  C17 <0> d           4.546  -4.404   5.070  0.00  0.00     0.047 A 
ATOM     12  H18 <0> d           4.960  -3.241   3.508  0.00  0.00     0.169 HD
ATOM     13  C12 <0> d           3.636  -4.704   6.179  0.00  0.00     0.021 A 
ATOM     14  C16 <0> d           5.682  -5.215   4.906  0.00  0.00     0.030 A 
ATOM     15  C11 <0> d           2.495  -3.924   6.378  0.00  0.00     0.073 A 
ATOM     16  C13 <0> d           3.928  -5.785   7.035  0.00  0.00     0.016 A 
ATOM     17  C14 <0> d           5.046  -6.530   6.819  0.00  0.00     0.001 A 
ATOM     18  C15 <0> d           5.911  -6.246   5.766  0.00  0.00     0.002 A 
BRANCH  15  19
ATOM     19  O3  <0> d           1.646  -4.172   7.381  0.00  0.00    -0.363 OA
ATOM     20  H14 <0> d           1.899  -4.925   7.934  0.00  0.00     0.217 HD
ENDBRANCH  15  19
ENDBRANCH   4   7
BRANCH   1  21
ATOM     21  C6  <0> d           0.261  -2.002   1.211  0.00  0.00     0.018 A 
ATOM     22  C5  <0> d           0.019  -2.775   0.075  0.00  0.00    -0.048 A 
ATOM     23  C4  <0> d          -0.218  -2.159  -1.137  0.00  0.00     0.008 A 
ATOM     24  C19 <0> d           0.017  -4.278   0.172  0.00  0.00     0.049 C 
ATOM     25  C3  <0> d          -0.217  -0.779  -1.227  0.00  0.00     0.007 A 
ATOM     26  C2  <0> d           0.022  -0.007  -0.104  0.00  0.00    -0.061 A 
ATOM     27  C1  <0> d           0.022   1.496  -0.211  0.00  0.00     0.048 C 
ATOM     28  C7  <0> d           0.267  -0.610   1.113  0.00  0.00     0.022 A 
ENDBRANCH   1  21
TORSDOF 3
