REMARK  5 active torsions:
REMARK  status: ('A' for Active; 'I' for Inactive)
REMARK    1  A    between atoms: S1_2  and  C2_5 
REMARK    2  A    between atoms: C2_5  and  C3_6 
REMARK    3  A    between atoms: C3_6  and  C4_7 
REMARK    4  A    between atoms: C4_7  and  N1_8 
REMARK    5  A    between atoms: C11_15  and  N2_18 
ROOT
ATOM      1  N1  <0> d           1.828  -3.675  -3.163  0.00  0.00    -0.315 N 
ATOM      2  C5  <0> d           2.889  -4.437  -2.672  0.00  0.00     0.047 A 
ATOM      3  C6  <0> d           4.030  -4.061  -1.966  0.00  0.00     0.049 A 
ATOM      4  C7  <0> d           4.953  -5.013  -1.583  0.00  0.00     0.013 A 
ATOM      5  C8  <0> d           4.754  -6.346  -1.896  0.00  0.00     0.020 A 
ATOM      6  C9  <0> d           3.622  -6.726  -2.596  0.00  0.00     0.013 A 
ATOM      7  C10 <0> d           2.700  -5.778  -2.979  0.00  0.00     0.011 A 
ATOM      8  C11 <0> d           1.394  -5.862  -3.735  0.00  0.00     0.344 A 
ATOM      9  C12 <0> d           0.909  -4.428  -3.791  0.00  0.00     0.262 A 
ATOM     10  O3  <0> d          -0.114  -4.034  -4.309  0.00  0.00    -0.270 OA
ATOM     11 Br1  <0> d           6.499  -4.492  -0.626  0.00  0.00    -0.051 Br
ENDROOT
BRANCH   1  12
ATOM     12  C4  <0> d           1.724  -2.223  -3.006  0.00  0.00     0.133 C 
BRANCH  12  13
ATOM     13  C3  <0> d           0.986  -1.902  -1.705  0.00  0.00     0.035 C 
BRANCH  13  14
ATOM     14  C2  <0> d           0.877  -0.385  -1.541  0.00  0.00     0.141 C 
BRANCH  14  15
ATOM     15  S1  <0> d           0.002  -0.004   0.002  0.00  0.00     0.140 S 
ATOM     16  C1  <0> d          -0.022   1.810   0.012  0.00  0.00     0.161 C 
ATOM     17  O1  <0> d           0.798  -0.449   1.092  0.00  0.00    -0.228 OA
ATOM     18  O2  <0> d          -1.335  -0.471  -0.113  0.00  0.00    -0.228 OA
ENDBRANCH  14  15
ENDBRANCH  13  14
ENDBRANCH  12  13
ENDBRANCH   1  12
BRANCH   8  19
ATOM     19  N2  <0> d           0.431  -6.701  -3.009  0.00  0.00     0.096 N 
ATOM     20  H14 <0> d          -0.444  -6.761  -3.508  0.00  0.00     0.314 HD
ATOM     21  H15 <0> d           0.812  -7.619  -2.833  0.00  0.00     0.314 HD
ENDBRANCH   8  19
TORSDOF 5
