REMARK  6 active torsions:
REMARK  status: ('A' for Active; 'I' for Inactive)
REMARK    1  A    between atoms: C2_3  and  C7_11 
REMARK    2  A    between atoms: C7_11  and  N3_12 
REMARK       I    between atoms: N3_12  and  C8_13 
REMARK    3  A    between atoms: C8_13  and  C9_15 
REMARK    4  A    between atoms: C9_15  and  C10_16 
REMARK    5  A    between atoms: C10_16  and  N4_17 
REMARK       I    between atoms: N4_17  and  C11_18 
REMARK    6  A    between atoms: C11_18  and  C12_20 
ROOT
ATOM      1  C9  <0> d          -2.805   3.892   0.347  0.00  0.00     0.122 C 
ENDROOT
BRANCH   1   2
ATOM      2  C8  <0> d          -2.937   2.537  -0.301  0.00  0.00     0.219 C 
ATOM      3  N3  <0> d          -2.062   1.558   0.000  0.00  0.00    -0.359 N 
ATOM      4  H13 <0> d          -1.346   1.725   0.634  0.00  0.00     0.162 HD
ATOM      5  O3  <0> d          -3.832   2.329  -1.093  0.00  0.00    -0.274 OA
BRANCH   3   6
ATOM      6  C7  <0> d          -2.191   0.241  -0.629  0.00  0.00     0.148 C 
BRANCH   6   7
ATOM      7  C2  <0> d          -1.160  -0.715  -0.027  0.00  0.00     0.115 C 
ATOM      8  N1  <0> d          -1.214  -1.997  -0.732  0.00  0.00    -0.331 N 
ATOM      9  C1  <0> d          -1.730  -2.047  -2.102  0.00  0.00     0.155 C 
ATOM     10  C5  <0> d          -0.801  -3.129  -0.138  0.00  0.00     0.326 C 
ATOM     11  N2  <0> d          -0.422  -3.151   1.150  0.00  0.00    -0.274 N 
ATOM     12  O2  <0> d          -0.766  -4.159  -0.783  0.00  0.00    -0.247 OA
ATOM     13  C4  <0> d          -0.673  -2.107   1.962  0.00  0.00     0.229 C 
ATOM     14  C6  <0> d           0.270  -4.328   1.681  0.00  0.00     0.164 C 
ATOM     15  C3  <0> d          -1.471  -0.933   1.455  0.00  0.00     0.130 C 
ATOM     16  O1  <0> d          -0.257  -2.112   3.101  0.00  0.00    -0.273 OA
ENDBRANCH   6   7
ENDBRANCH   3   6
ENDBRANCH   1   2
BRANCH   1  17
ATOM     17  C10 <0> d          -3.915   4.812  -0.164  0.00  0.00     0.132 C 
BRANCH  17  18
ATOM     18  N4  <0> d          -3.786   6.129   0.466  0.00  0.00    -0.359 N 
ATOM     19  C11 <0> d          -4.662   7.108   0.165  0.00  0.00     0.244 C 
ATOM     20  O4  <0> d          -5.556   6.900  -0.627  0.00  0.00    -0.271 OA
ATOM     21  H18 <0> d          -3.071   6.295   1.099  0.00  0.00     0.162 HD
BRANCH  19  22
ATOM     22  C12 <0> d          -4.529   8.462   0.812  0.00  0.00     0.198 A 
ATOM     23  N5  <0> d          -5.602   9.351   0.351  0.00  0.00    -0.373 N 
ATOM     24  C19 <0> d          -6.316   9.716   1.390  0.00  0.00     0.039 A 
ATOM     25  H24 <0> d          -5.757   9.622  -0.567  0.00  0.00     0.161 HD
ATOM     26  C14 <0> d          -5.777   9.102   2.624  0.00  0.00    -0.011 A 
ATOM     27  C18 <0> d          -7.457  10.557   1.506  0.00  0.00     0.030 A 
ATOM     28  C13 <0> d          -4.702   8.343   2.310  0.00  0.00     0.021 A 
ATOM     29  C15 <0> d          -6.448   9.396   3.896  0.00  0.00     0.013 A 
ATOM     30  C16 <0> d          -7.528  10.211   3.895  0.00  0.00     0.001 A 
ATOM     31  C17 <0> d          -8.020  10.780   2.712  0.00  0.00     0.002 A 
ENDBRANCH  19  22
ENDBRANCH  17  18
ENDBRANCH   1  17
TORSDOF 6
