REMARK  6 active torsions:
REMARK  status: ('A' for Active; 'I' for Inactive)
REMARK    1  A    between atoms: C2_2  and  C10_16 
REMARK    2  A    between atoms: C3_4  and  N2_6 
REMARK       I    between atoms: N2_6  and  C4_7 
REMARK    3  A    between atoms: C4_7  and  C5_9 
REMARK    4  A    between atoms: C10_16  and  C11_17 
REMARK    5  A    between atoms: C11_17  and  C12_18 
REMARK       I    between atoms: C12_18  and  N4_20 
REMARK    6  A    between atoms: N4_20  and  C13_21 
ROOT
ATOM      1  C1  <0> d          -0.026   1.780  -0.013  0.00  0.00     0.080 A 
ATOM      2  C2  <0> d           1.301   2.052  -0.035  0.00  0.00     0.044 A 
ATOM      3  N1  <0> d           2.125   1.020  -0.045  0.00  0.00    -0.228 NA
ATOM      4  C3  <0> d           1.669  -0.214  -0.034  0.00  0.00     0.173 A 
ATOM      5  S1  <0> d          -0.000  -0.006  -0.009  0.00  0.00    -0.062 SA
ENDROOT
BRANCH   2   6
ATOM      6  C10 <0> d           1.814   3.469  -0.048  0.00  0.00     0.069 C 
BRANCH   6   7
ATOM      7  C11 <0> d           2.784   3.670   1.118  0.00  0.00     0.109 C 
BRANCH   7   8
ATOM      8  C12 <0> d           3.297   5.087   1.106  0.00  0.00     0.220 C 
ATOM      9  O3  <0> d           2.924   5.860   0.248  0.00  0.00    -0.274 OA
ATOM     10  N4  <0> d           4.171   5.496   2.047  0.00  0.00    -0.330 N 
ATOM     11  H12 <0> d           4.470   4.878   2.732  0.00  0.00     0.165 HD
BRANCH  10  12
ATOM     12  C13 <0> d           4.670   6.874   2.035  0.00  0.00     0.272 C 
ATOM     13  S2  <0> d           6.087   7.081   3.201  0.00  0.00    -0.111 SA
ATOM     14  C19 <0> d           5.087   7.791   4.575  0.00  0.00     0.098 C 
ATOM     15  C14 <0> d           3.849   8.260   3.788  0.00  0.00     0.024 C 
ATOM     16  C18 <0> d           5.747   9.071   5.093  0.00  0.00     0.021 C 
ATOM     17  N5  <0> d           3.688   7.802   2.630  0.00  0.00    -0.261 NA
ATOM     18  C15 <0> d           2.966   9.320   4.447  0.00  0.00     0.056 C 
ATOM     19  C16 <0> d           3.364   9.361   5.925  0.00  0.00     0.006 C 
ATOM     20  C17 <0> d           4.825   9.741   6.110  0.00  0.00     0.002 C 
ENDBRANCH  10  12
ENDBRANCH   7   8
ENDBRANCH   6   7
ENDBRANCH   2   6
BRANCH   4  21
ATOM     21  N2  <0> d           2.391  -1.401  -0.043  0.00  0.00    -0.301 N 
ATOM     22  C4  <0> d           1.744  -2.583  -0.029  0.00  0.00     0.263 C 
ATOM     23  O1  <0> d           0.533  -2.613   0.087  0.00  0.00    -0.267 OA
ATOM     24  H4  <0> d           3.361  -1.379  -0.058  0.00  0.00     0.171 HD
BRANCH  22  25
ATOM     25  C5  <0> d           2.501  -3.837  -0.154  0.00  0.00     0.100 A 
ATOM     26  C9  <0> d           3.920  -3.825  -0.175  0.00  0.00     0.261 A 
ATOM     27  N3  <0> d           4.598  -4.983  -0.286  0.00  0.00    -0.333 N 
ATOM     28  O2  <0> d           4.524  -2.769  -0.090  0.00  0.00    -0.267 OA
ATOM     29  C8  <0> d           3.947  -6.166  -0.388  0.00  0.00     0.091 A 
ATOM     30  H21 <0> d           5.568  -4.970  -0.296  0.00  0.00     0.168 HD
ATOM     31  C7  <0> d           2.591  -6.227  -0.378  0.00  0.00     0.018 A 
ATOM     32  C6  <0> d           1.839  -5.058  -0.260  0.00  0.00     0.024 A 
ENDBRANCH  22  25
ENDBRANCH   4  21
TORSDOF 6
