REMARK  3 active torsions:
REMARK  status: ('A' for Active; 'I' for Inactive)
REMARK    1  A    between atoms: C6_6  and  N1_9 
REMARK    2  A    between atoms: N1_9  and  C9_10 
REMARK    3  A    between atoms: C13_16  and  C15_19 
REMARK       I    between atoms: C15_19  and  N5_21 
ROOT
ATOM      1  C9  <0> d           5.095   0.364   0.352  0.00  0.00     0.182 C 
ATOM      2  N2  <0> d           4.045  -0.289  -0.050  0.00  0.00    -0.149 NA
ATOM      3  N3  <0> d           2.757   0.230  -0.017  0.00  0.00    -0.278 N 
ATOM      4  C10 <0> d           2.471   1.520  -0.013  0.00  0.00     0.049 C 
ATOM      5  C11 <0> d           1.125   1.917   0.002  0.00  0.00     0.009 A 
ATOM      6  C12 <0> d           0.628   3.239   0.013  0.00  0.00     0.052 A 
ATOM      7  C13 <0> d          -0.753   3.129   0.025  0.00  0.00     0.125 A 
ATOM      8  N4  <0> d          -1.085   1.825   0.017  0.00  0.00    -0.255 NA
ATOM      9  C14 <0> d          -0.013   1.076   0.008  0.00  0.00     0.131 A 
ATOM     10  C20 <0> d           3.543   2.576  -0.018  0.00  0.00     0.142 C 
ATOM     11  S1  <0> d           4.944   2.005   0.978  0.00  0.00    -0.085 SA
ATOM     12  H17 <0> d           1.892  -0.449   0.009  0.00  0.00     0.189 HD
ENDROOT
BRANCH   1  13
ATOM     13  N1  <0> d           6.338  -0.232   0.287  0.00  0.00    -0.363 N 
ATOM     14  H16 <0> d           7.229   0.317   0.625  0.00  0.00     0.162 HD
BRANCH  13  15
ATOM     15  C6  <0> d           6.470  -1.595  -0.232  0.00  0.00     0.087 C 
ATOM     16  C5  <0> d           6.211  -2.597   0.894  0.00  0.00     0.025 C 
ATOM     17  C4  <0> d           6.349  -4.021   0.352  0.00  0.00     0.002 C 
ATOM     18  C3  <0> d           7.764  -4.224  -0.195  0.00  0.00     0.005 C 
ATOM     19  C2  <0> d           8.024  -3.221  -1.321  0.00  0.00    -0.013 C 
ATOM     20  C1  <0> d           7.007  -3.441  -2.443  0.00  0.00     0.010 C 
ATOM     21  C7  <0> d           7.885  -1.797  -0.779  0.00  0.00     0.008 C 
ATOM     22  C8  <0> d           8.145  -0.795  -1.905  0.00  0.00     0.012 C 
ENDBRANCH  13  15
ENDBRANCH   1  13
BRANCH   7  23
ATOM     23  C15 <0> d          -1.701   4.253   0.040  0.00  0.00     0.272 C 
ATOM     24  O1  <0> d          -1.288   5.397   0.042  0.00  0.00    -0.266 OA
ATOM     25  N5  <0> d          -3.028   4.015   0.051  0.00  0.00    -0.347 N 
ATOM     26  C19 <0> d          -4.085   5.043   0.066  0.00  0.00     0.126 C 
ATOM     27  C16 <0> d          -3.661   2.688   0.044  0.00  0.00     0.126 C 
ATOM     28  C18 <0> d          -5.327   4.343  -0.539  0.00  0.00     0.021 C 
ATOM     29  C17 <0> d          -5.188   2.909   0.037  0.00  0.00     0.021 C 
ENDBRANCH   7  23
TORSDOF 3
