REMARK  7 active torsions:
REMARK  status: ('A' for Active; 'I' for Inactive)
REMARK    1  A    between atoms: N1_2  and  C2_3 
REMARK    2  A    between atoms: C2_3  and  C3_4 
REMARK    3  A    between atoms: C2_3  and  C11_18 
REMARK    4  A    between atoms: C3_4  and  C4_5 
REMARK    5  A    between atoms: C4_5  and  O1_6 
REMARK    6  A    between atoms: O1_6  and  C5_7 
REMARK    7  A    between atoms: C8_10  and  N2_14 
REMARK       I    between atoms: C11_18  and  N3_20 
ROOT
ATOM      1  C4  <0> d          -0.859  -2.423  -1.453  0.00  0.00     0.178 C 
ENDROOT
BRANCH   1   2
ATOM      2  C3  <0> d           0.602  -2.004  -1.278  0.00  0.00     0.069 C 
BRANCH   2   3
ATOM      3  C2  <0> d           0.690  -0.478  -1.207  0.00  0.00     0.278 C 
BRANCH   3   4
ATOM      4  N1  <0> d           0.002  -0.004   0.002  0.00  0.00    -0.066 N 
ATOM      5  C1  <0> d          -0.018   1.465   0.010  0.00  0.00     0.267 C 
ATOM      6  H5  <0> d           0.490  -0.338   0.820  0.00  0.00     0.277 HD
ATOM      7  H14 <0> d          -0.945  -0.353   0.009  0.00  0.00     0.277 HD
ENDBRANCH   3   4
BRANCH   3   8
ATOM      8  C11 <0> d           2.137  -0.060  -1.158  0.00  0.00     0.246 C 
ATOM      9  O4  <0> d           2.554   0.571  -0.210  0.00  0.00    -0.271 OA
ATOM     10  N3  <0> d           2.967  -0.387  -2.168  0.00  0.00    -0.368 N 
ATOM     11  H12 <0> d           2.633  -0.891  -2.926  0.00  0.00     0.159 HD
ATOM     12  H13 <0> d           3.898  -0.117  -2.136  0.00  0.00     0.159 HD
ENDBRANCH   3   8
ENDBRANCH   2   3
ENDBRANCH   1   2
BRANCH   1  13
ATOM     13  O1  <0> d          -0.941  -3.848  -1.520  0.00  0.00    -0.348 OA
BRANCH  13  14
ATOM     14  C5  <0> d          -2.179  -4.388  -1.676  0.00  0.00     0.103 A 
ATOM     15  C10 <0> d          -2.683  -4.615  -2.949  0.00  0.00     0.048 A 
ATOM     16  C9  <0> d          -3.940  -5.170  -3.104  0.00  0.00     0.058 A 
ATOM     17 Br1  <0> d          -1.649  -4.174  -4.469  0.00  0.00    -0.048 Br
ATOM     18  C8  <0> d          -4.699  -5.487  -1.994  0.00  0.00     0.105 A 
ATOM     19  C7  <0> d          -4.202  -5.256  -0.724  0.00  0.00     0.058 A 
ATOM     20  C6  <0> d          -2.943  -4.708  -0.563  0.00  0.00     0.048 A 
ATOM     21 Br2  <0> d          -2.263  -4.393   1.173  0.00  0.00    -0.048 Br
BRANCH  18  22
ATOM     22  N2  <0> d          -6.046  -6.076  -2.163  0.00  0.00    -0.116 N 
ATOM     23  O2  <0> d          -6.711  -6.354  -1.192  0.00  0.00    -0.532 OA
ATOM     24  O3  <0> d          -6.482  -6.278  -3.272  0.00  0.00    -0.532 OA
ENDBRANCH  18  22
ENDBRANCH  13  14
ENDBRANCH   1  13
TORSDOF 7
