REMARK  3 active torsions:
REMARK  status: ('A' for Active; 'I' for Inactive)
REMARK    1  A    between atoms: C6_11  and  C7_12 
REMARK    2  A    between atoms: C9_14  and  O3_20 
REMARK    3  A    between atoms: C12_17  and  O2_18 
ROOT
ATOM      1  C1  <0> d          -0.018   1.503   0.010  0.00  0.00     0.073 C 
ATOM      2  C2  <0> d           0.002  -0.004   0.002  0.00  0.00     0.062 A 
ATOM      3  C3  <0> d           0.008  -0.817  -1.124  0.00  0.00     0.029 A 
ATOM      4  C4  <0> d           0.028  -2.118  -0.651  0.00  0.00     0.128 A 
ATOM      5  N1  <0> d           0.033  -2.021   0.711  0.00  0.00    -0.272 N 
ATOM      6  H1  <0> d           0.046  -2.773   1.324  0.00  0.00     0.189 HD
ATOM      7  N2  <0> d           0.023  -0.783   1.056  0.00  0.00    -0.179 NA
ATOM      8  C5  <0> d           0.035  -3.031  -1.798  0.00  0.00     0.273 A 
ATOM      9  O1  <0> d           0.052  -4.245  -1.719  0.00  0.00    -0.266 OA
ATOM     10  N3  <0> d           0.021  -2.337  -2.950  0.00  0.00    -0.338 N 
ATOM     11  C6  <0> d           0.002  -0.904  -2.626  0.00  0.00     0.161 A 
ATOM     12  C15 <0> d           0.024  -2.911  -4.298  0.00  0.00     0.154 C 
ENDROOT
BRANCH  11  13
ATOM     13  C7  <0> d           1.226  -0.230  -3.189  0.00  0.00     0.005 A 
ATOM     14  C12 <0> d           1.262   1.151  -3.313  0.00  0.00     0.077 A 
ATOM     15  C11 <0> d           2.390   1.772  -3.827  0.00  0.00     0.040 A 
ATOM     16  C10 <0> d           3.474   1.015  -4.226  0.00  0.00     0.039 A 
ATOM     17  C9  <0> d           3.437  -0.366  -4.107  0.00  0.00     0.069 A 
ATOM     18  C8  <0> d           2.310  -0.987  -3.588  0.00  0.00     0.049 A 
BRANCH  14  19
ATOM     19  O2  <0> d           0.193   1.896  -2.925  0.00  0.00    -0.355 OA
ATOM     20  C13 <0> d           0.298   3.313  -3.080  0.00  0.00     0.210 C 
ENDBRANCH  14  19
BRANCH  17  21
ATOM     21  O3  <0> d           4.504  -1.112  -4.500  0.00  0.00    -0.356 OA
ATOM     22  C14 <0> d           5.630  -0.407  -5.025  0.00  0.00     0.210 C 
ENDBRANCH  17  21
ENDBRANCH  11  13
TORSDOF 3
