REMARK  8 active torsions:
REMARK  status: ('A' for Active; 'I' for Inactive)
REMARK    1  A    between atoms: C5_6  and  C6_7 
REMARK    2  A    between atoms: C6_7  and  C7_8 
REMARK    3  A    between atoms: C6_7  and  N4_25 
REMARK    4  A    between atoms: C7_8  and  N2_9 
REMARK       I    between atoms: N2_9  and  C8_10 
REMARK    5  A    between atoms: C8_10  and  C9_12 
REMARK       I    between atoms: C9_12  and  N3_14 
REMARK    6  A    between atoms: N3_14  and  C10_15 
REMARK    7  A    between atoms: C13_18  and  O4_23 
REMARK    8  A    between atoms: C15_20  and  O3_21 
ROOT
ATOM      1  N2  <0> d          -1.218  -0.217   2.334  0.00  0.00    -0.350 N 
ATOM      2  C8  <0> d          -1.625   0.197   3.551  0.00  0.00     0.309 C 
ATOM      3  O1  <0> d          -2.683   0.779   3.671  0.00  0.00    -0.262 OA
ATOM      4  H10 <0> d          -0.260  -0.745   2.226  0.00  0.00     0.162 HD
ENDROOT
BRANCH   1   5
ATOM      5  C7  <0> d          -2.052   0.037   1.157  0.00  0.00     0.165 C 
BRANCH   5   6
ATOM      6  C6  <0> d          -1.296  -0.384  -0.104  0.00  0.00     0.290 C 
BRANCH   6   7
ATOM      7  C5  <0> d          -0.771  -1.786   0.070  0.00  0.00     0.046 A 
ATOM      8  N1  <0> d          -1.526  -2.905   0.262  0.00  0.00    -0.363 N 
ATOM      9  C1  <0> d          -2.989  -2.945   0.334  0.00  0.00     0.155 C 
ATOM     10  C2  <0> d          -0.696  -3.980   0.372  0.00  0.00     0.090 A 
ATOM     11  C3  <0> d           0.575  -3.545   0.260  0.00  0.00     0.019 A 
ATOM     12  C4  <0> d           0.528  -2.150   0.068  0.00  0.00     0.029 A 
ENDBRANCH   6   7
BRANCH   6  13
ATOM     13  N4  <0> d          -0.173   0.535  -0.332  0.00  0.00     0.103 N 
ATOM     14  C21 <0> d           0.633   0.693   0.887  0.00  0.00     0.301 C 
ATOM     15  C20 <0> d           1.835   1.592   0.587  0.00  0.00     0.264 C 
ATOM     16  N5  <0> d           1.359   2.895   0.101  0.00  0.00    -0.072 N 
ATOM     17  C19 <0> d           0.553   2.736  -1.118  0.00  0.00     0.264 C 
ATOM     18  C22 <0> d           2.483   3.814  -0.127  0.00  0.00     0.269 C 
ATOM     19  H32 <0> d           0.717   3.334   0.878  0.00  0.00     0.279 HD
ATOM     20  C18 <0> d          -0.648   1.837  -0.818  0.00  0.00     0.301 C 
ENDBRANCH   6  13
ENDBRANCH   5   6
ENDBRANCH   1   5
BRANCH   2  21
ATOM     21  C9  <0> d          -0.775  -0.062   4.751  0.00  0.00     0.314 C 
ATOM     22  O2  <0> d           0.283  -0.646   4.630  0.00  0.00    -0.262 OA
ATOM     23  N3  <0> d          -1.183   0.351   5.967  0.00  0.00    -0.317 N 
ATOM     24  H11 <0> d          -2.175   0.809   6.088  0.00  0.00     0.169 HD
BRANCH  23  25
ATOM     25  C10 <0> d          -0.342   0.198   7.076  0.00  0.00     0.069 A 
ATOM     26  C15 <0> d          -0.887  -0.046   8.336  0.00  0.00     0.097 A 
ATOM     27  C14 <0> d          -0.052  -0.201   9.430  0.00  0.00     0.075 A 
ATOM     28  C13 <0> d           1.323  -0.104   9.272  0.00  0.00     0.070 A 
ATOM     29  C12 <0> d           1.863   0.144   8.018  0.00  0.00     0.039 A 
ATOM     30  C11 <0> d           1.034   0.295   6.924  0.00  0.00     0.035 A 
BRANCH  26  31
ATOM     31  O3  <0> d          -2.234  -0.137   8.489  0.00  0.00    -0.354 OA
ATOM     32  C16 <0> d          -2.722  -0.388   9.809  0.00  0.00     0.210 C 
ENDBRANCH  26  31
BRANCH  28  33
ATOM     33  O4  <0> d           2.142  -0.251  10.347  0.00  0.00    -0.356 OA
ATOM     34  C17 <0> d           3.546  -0.137  10.113  0.00  0.00     0.210 C 
ENDBRANCH  28  33
ENDBRANCH  23  25
ENDBRANCH   2  21
TORSDOF 8
