REMARK  7 active torsions:
REMARK  status: ('A' for Active; 'I' for Inactive)
REMARK    1  A    between atoms: C2_2  and  C3_3 
REMARK    2  A    between atoms: C2_2  and  N2_9 
REMARK    3  A    between atoms: N2_9  and  N3_10 
REMARK       I    between atoms: N3_10  and  C8_11 
REMARK    4  A    between atoms: C8_11  and  C9_13 
REMARK    5  A    between atoms: C12_16  and  N4_19 
REMARK    6  A    between atoms: N4_19  and  S1_20 
REMARK    7  A    between atoms: S1_20  and  C15_23 
ROOT
ATOM      1  C9  <0> d           4.110  -1.931  -4.274  0.00  0.00     0.033 A 
ATOM      2  C10 <0> d           3.457  -3.164  -4.348  0.00  0.00     0.019 A 
ATOM      3  C11 <0> d           2.465  -3.472  -3.444  0.00  0.00     0.031 A 
ATOM      4  C12 <0> d           2.113  -2.556  -2.457  0.00  0.00     0.042 A 
ATOM      5  C13 <0> d           2.758  -1.324  -2.384  0.00  0.00     0.031 A 
ATOM      6  C14 <0> d           3.754  -1.013  -3.281  0.00  0.00     0.019 A 
ENDROOT
BRANCH   1   7
ATOM      7  C8  <0> d           5.174  -1.598  -5.240  0.00  0.00     0.270 C 
ATOM      8  N3  <0> d           5.803  -0.409  -5.167  0.00  0.00    -0.265 N 
ATOM      9  H8  <0> d           5.556   0.229  -4.479  0.00  0.00     0.190 HD
ATOM     10  O1  <0> d           5.483  -2.398  -6.103  0.00  0.00    -0.266 OA
BRANCH   8  11
ATOM     11  N2  <0> d           6.813  -0.093  -6.085  0.00  0.00    -0.298 N 
ATOM     12  H7  <0> d           7.059  -0.731  -6.774  0.00  0.00     0.187 HD
BRANCH  11  13
ATOM     13  C2  <0> d           7.464   1.139  -6.010  0.00  0.00     0.050 C 
ATOM     14  C1  <0> d           7.125   2.015  -5.064  0.00  0.00     0.045 C 
BRANCH  13  15
ATOM     15  C3  <0> d           8.532   1.472  -6.981  0.00  0.00     0.009 A 
ATOM     16  C7  <0> d           8.896   0.565  -7.974  0.00  0.00     0.130 A 
ATOM     17  N1  <0> d           9.845   0.861  -8.837  0.00  0.00    -0.272 NA
ATOM     18  C6  <0> d          10.485   2.013  -8.800  0.00  0.00     0.116 A 
ATOM     19  C5  <0> d          10.183   2.967  -7.845  0.00  0.00     0.020 A 
ATOM     20  C4  <0> d           9.188   2.706  -6.919  0.00  0.00     0.016 A 
ENDBRANCH  13  15
ENDBRANCH  11  13
ENDBRANCH   8  11
ENDBRANCH   1   7
BRANCH   4  21
ATOM     21  N4  <0> d           1.111  -2.870  -1.545  0.00  0.00    -0.281 N 
ATOM     22  H13 <0> d           0.239  -2.453  -1.621  0.00  0.00     0.179 HD
BRANCH  21  23
ATOM     23  S1  <0> d           1.408  -3.954  -0.329  0.00  0.00     0.263 S 
ATOM     24  O2  <0> d           1.972  -5.106  -0.941  0.00  0.00    -0.200 OA
ATOM     25  O3  <0> d           0.229  -4.012   0.461  0.00  0.00    -0.200 OA
BRANCH  23  26
ATOM     26  C15 <0> d           2.665  -3.260   0.693  0.00  0.00     0.080 A 
ATOM     27  C20 <0> d           3.989  -3.601   0.487  0.00  0.00     0.026 A 
ATOM     28  C19 <0> d           4.975  -3.057   1.288  0.00  0.00     0.020 A 
ATOM     29  C18 <0> d           4.637  -2.172   2.296  0.00  0.00     0.011 A 
ATOM     30  C17 <0> d           3.312  -1.831   2.501  0.00  0.00     0.020 A 
ATOM     31 Br1  <0> d           5.986  -1.428   3.393  0.00  0.00    -0.051 Br
ATOM     32  C16 <0> d           2.327  -2.375   1.699  0.00  0.00     0.026 A 
ENDBRANCH  23  26
ENDBRANCH  21  23
ENDBRANCH   4  21
TORSDOF 7
