REMARK  5 active torsions:
REMARK  status: ('A' for Active; 'I' for Inactive)
REMARK    1  A    between atoms: N1_6  and  C7_8 
REMARK    2  A    between atoms: C7_8  and  C9_10 
REMARK    3  A    between atoms: C9_10  and  N2_11 
REMARK       I    between atoms: N2_11  and  C10_12 
REMARK    4  A    between atoms: C10_12  and  C11_14 
REMARK       I    between atoms: C11_14  and  N3_16 
REMARK    5  A    between atoms: N3_16  and  C12_17 
ROOT
ATOM      1  N2  <0> d           3.072  -0.559   2.241  0.00  0.00    -0.351 N 
ATOM      2  C10 <0> d           4.247   0.045   1.978  0.00  0.00     0.309 C 
ATOM      3  O1  <0> d           5.244  -0.621   1.793  0.00  0.00    -0.262 OA
ATOM      4  H19 <0> d           2.275  -0.026   2.389  0.00  0.00     0.162 HD
ENDROOT
BRANCH   1   5
ATOM      5  C9  <0> d           2.998  -2.021   2.304  0.00  0.00     0.155 C 
BRANCH   5   6
ATOM      6  C7  <0> d           1.541  -2.450   2.488  0.00  0.00     0.202 C 
ATOM      7  C8  <0> d           1.447  -3.976   2.430  0.00  0.00     0.042 C 
BRANCH   6   8
ATOM      8  N1  <0> d           0.720  -1.869   1.417  0.00  0.00    -0.065 N 
ATOM      9  C5  <0> d           1.160  -2.400   0.122  0.00  0.00     0.235 C 
ATOM     10  C4  <0> d           0.363  -1.737  -1.004  0.00  0.00     0.028 C 
ATOM     11  C3  <0> d          -1.127  -2.032  -0.809  0.00  0.00     0.007 C 
ATOM     12  C2  <0> d          -1.558  -1.539   0.576  0.00  0.00     0.007 C 
ATOM     13  C1  <0> d          -3.026  -1.899   0.812  0.00  0.00     0.011 C 
ATOM     14  C6  <0> d          -0.690  -2.209   1.643  0.00  0.00     0.239 C 
ATOM     15  H25 <0> d           0.827  -0.865   1.422  0.00  0.00     0.280 HD
ENDBRANCH   6   8
ENDBRANCH   5   6
ENDBRANCH   1   5
BRANCH   2  16
ATOM     16  C11 <0> d           4.323   1.536   1.914  0.00  0.00     0.314 C 
ATOM     17  O2  <0> d           3.326   2.202   2.099  0.00  0.00    -0.262 OA
ATOM     18  N3  <0> d           5.498   2.140   1.651  0.00  0.00    -0.318 N 
ATOM     19  H20 <0> d           6.309   1.612   1.573  0.00  0.00     0.169 HD
BRANCH  18  20
ATOM     20  C12 <0> d           5.550   3.527   1.490  0.00  0.00     0.052 A 
ATOM     21  C17 <0> d           6.459   4.092   0.603  0.00  0.00     0.037 A 
ATOM     22  C16 <0> d           6.503   5.464   0.441  0.00  0.00     0.021 A 
ATOM     23 Br1  <0> d           7.629   2.984  -0.388  0.00  0.00    -0.049 Br
ATOM     24  C15 <0> d           5.652   6.274   1.170  0.00  0.00     0.002 A 
ATOM     25  C14 <0> d           4.751   5.716   2.058  0.00  0.00     0.002 A 
ATOM     26  C13 <0> d           4.697   4.345   2.219  0.00  0.00     0.031 A 
ENDBRANCH  18  20
ENDBRANCH   2  16
TORSDOF 5
