REMARK  7 active torsions:
REMARK  status: ('A' for Active; 'I' for Inactive)
REMARK    1  A    between atoms: C4_4  and  C7_7 
REMARK    2  A    between atoms: C7_7  and  O1_8 
REMARK    3  A    between atoms: O1_8  and  C8_9 
REMARK    4  A    between atoms: C13_14  and  C14_15 
REMARK    5  A    between atoms: C14_15  and  N1_16 
REMARK       I    between atoms: N1_16  and  C15_17 
REMARK       I    between atoms: C15_17  and  N3_25 
REMARK    6  A    between atoms: N2_18  and  C16_19 
REMARK    7  A    between atoms: C16_19  and  C17_20 
ROOT
ATOM      1  C14 <0> d           5.008  -1.430   3.949  0.00  0.00     0.179 C 
ENDROOT
BRANCH   1   2
ATOM      2  C13 <0> d           5.796  -1.871   2.742  0.00  0.00    -0.007 A 
ATOM      3  C8  <0> d           5.319  -1.605   1.466  0.00  0.00     0.077 A 
ATOM      4  C9  <0> d           6.048  -2.007   0.357  0.00  0.00     0.037 A 
ATOM      5  C10 <0> d           7.245  -2.676   0.525  0.00  0.00     0.003 A 
ATOM      6  C11 <0> d           7.716  -2.945   1.797  0.00  0.00     0.001 A 
ATOM      7  C12 <0> d           6.991  -2.545   2.904  0.00  0.00     0.011 A 
BRANCH   3   8
ATOM      8  O1  <0> d           4.141  -0.946   1.304  0.00  0.00    -0.346 OA
BRANCH   8   9
ATOM      9  C7  <0> d           3.711  -0.707  -0.038  0.00  0.00     0.214 C 
BRANCH   9  10
ATOM     10  C4  <0> d           2.396   0.029  -0.020  0.00  0.00    -0.034 A 
ATOM     11  C3  <0> d           2.377   1.411  -0.013  0.00  0.00     0.009 A 
ATOM     12  C2  <0> d           1.171   2.086   0.002  0.00  0.00     0.001 A 
ATOM     13  C1  <0> d          -0.017   1.378   0.010  0.00  0.00     0.000 A 
ATOM     14  C6  <0> d           0.002  -0.004   0.002  0.00  0.00     0.001 A 
ATOM     15  C5  <0> d           1.208  -0.679  -0.012  0.00  0.00     0.009 A 
ENDBRANCH   9  10
ENDBRANCH   8   9
ENDBRANCH   3   8
ENDBRANCH   1   2
BRANCH   1  16
ATOM     16  N1  <0> d           3.922  -2.381   4.197  0.00  0.00    -0.222 N 
ATOM     17  C15 <0> d           3.065  -2.184   5.253  0.00  0.00     0.668 C 
ATOM     18  N2  <0> d           2.098  -3.030   5.474  0.00  0.00    -0.221 N 
ATOM     19  N3  <0> d           3.227  -1.095   6.077  0.00  0.00    -0.235 N 
ATOM     20  H22 <0> d           1.984  -3.799   4.893  0.00  0.00     0.178 HD
ATOM     21  H20 <0> d           3.946  -0.466   5.913  0.00  0.00     0.174 HD
ATOM     22  H21 <0> d           2.622  -0.957   6.823  0.00  0.00     0.174 HD
ATOM     23  H14 <0> d           3.808  -3.149   3.616  0.00  0.00     0.178 HD
BRANCH  18  24
ATOM     24  C16 <0> d           1.184  -2.821   6.600  0.00  0.00     0.203 C 
BRANCH  24  25
ATOM     25  C17 <0> d           0.166  -3.931   6.634  0.00  0.00     0.070 A 
ATOM     26  O2  <0> d          -1.023  -3.926   6.010  0.00  0.00    -0.325 OA
ATOM     27  C20 <0> d          -1.665  -5.079   6.258  0.00  0.00     0.142 A 
ATOM     28  C19 <0> d          -0.889  -5.833   7.057  0.00  0.00     0.027 A 
ATOM     29  C18 <0> d           0.291  -5.093   7.300  0.00  0.00     0.036 A 
ENDBRANCH  24  25
ENDBRANCH  18  24
ENDBRANCH   1  16
TORSDOF 7
