REMARK  7 active torsions:
REMARK  status: ('A' for Active; 'I' for Inactive)
REMARK    1  A    between atoms: N1_2  and  C3_4 
REMARK    2  A    between atoms: C3_4  and  C4_5 
REMARK    3  A    between atoms: C4_5  and  N2_6 
REMARK    4  A    between atoms: C8_11  and  N4_12 
REMARK    5  A    between atoms: C9_13  and  C16_22 
REMARK    6  A    between atoms: C13_17  and  O2_21 
REMARK    7  A    between atoms: C19_25  and  O3_28 
ROOT
ATOM      1  N2  <0> d           0.637  -0.589   3.635  0.00  0.00    -0.326 N 
ATOM      2  C5  <0> d           0.308  -1.751   4.160  0.00  0.00     0.214 A 
ATOM      3  N3  <0> d           0.913  -2.232   5.226  0.00  0.00    -0.219 NA
ATOM      4  C6  <0> d           1.894  -1.553   5.820  0.00  0.00     0.182 A 
ATOM      5  C7  <0> d           2.271  -0.327   5.298  0.00  0.00     0.052 A 
ATOM      6  C8  <0> d           1.611   0.147   4.167  0.00  0.00     0.113 A 
ATOM      7  C9  <0> d           3.371   0.479   5.926  0.00  0.00     0.095 C 
ATOM      8  C10 <0> d           3.651  -0.010   7.322  0.00  0.00    -0.011 A 
ATOM      9  C11 <0> d           4.365   0.797   8.190  0.00  0.00     0.014 A 
ATOM     10  C12 <0> d           4.635   0.371   9.475  0.00  0.00     0.037 A 
ATOM     11  C13 <0> d           4.189  -0.872   9.901  0.00  0.00     0.068 A 
ATOM     12  C14 <0> d           3.473  -1.682   9.035  0.00  0.00     0.074 A 
ATOM     13  C15 <0> d           3.203  -1.252   7.741  0.00  0.00     0.087 A 
ATOM     14  O1  <0> d           2.503  -2.063   6.911  0.00  0.00    -0.291 OA
ENDROOT
BRANCH   7  15
ATOM     15  C16 <0> d           4.622   0.345   5.096  0.00  0.00    -0.045 A 
ATOM     16  C21 <0> d           5.202   1.469   4.535  0.00  0.00     0.011 A 
ATOM     17  C20 <0> d           6.351   1.350   3.779  0.00  0.00     0.037 A 
ATOM     18  C19 <0> d           6.918   0.100   3.572  0.00  0.00     0.068 A 
ATOM     19  C18 <0> d           6.332  -1.026   4.131  0.00  0.00     0.037 A 
ATOM     20  C17 <0> d           5.185  -0.901   4.891  0.00  0.00     0.011 A 
BRANCH  18  21
ATOM     21  O3  <0> d           8.047  -0.020   2.825  0.00  0.00    -0.356 OA
ATOM     22  C22 <0> d           8.596   1.182   2.281  0.00  0.00     0.210 C 
ENDBRANCH  18  21
ENDBRANCH   7  15
BRANCH   6  23
ATOM     23  N4  <0> d           1.959   1.367   3.608  0.00  0.00    -0.385 N 
ATOM     24  H13 <0> d           1.492   1.691   2.822  0.00  0.00     0.157 HD
ATOM     25  H14 <0> d           2.670   1.896   4.002  0.00  0.00     0.157 HD
ENDBRANCH   6  23
BRANCH   1  26
ATOM     26  C4  <0> d          -0.071  -0.103   2.448  0.00  0.00     0.159 C 
BRANCH  26  27
ATOM     27  C3  <0> d           0.713  -0.491   1.192  0.00  0.00     0.254 C 
BRANCH  27  28
ATOM     28  N1  <0> d           0.002  -0.004   0.002  0.00  0.00    -0.077 N 
ATOM     29  C1  <0> d          -0.018   1.465   0.010  0.00  0.00     0.269 C 
ATOM     30  C2  <0> d           0.690  -0.478  -1.207  0.00  0.00     0.269 C 
ATOM     31  H26 <0> d          -0.945  -0.353   0.009  0.00  0.00     0.279 HD
ENDBRANCH  27  28
ENDBRANCH  26  27
ENDBRANCH   1  26
BRANCH  11  32
ATOM     32  O2  <0> d           4.453  -1.294  11.166  0.00  0.00    -0.361 OA
ATOM     33  H18 <0> d           3.776  -1.050  11.812  0.00  0.00     0.217 HD
ENDBRANCH  11  32
TORSDOF 7
