REMARK  4 active torsions:
REMARK  status: ('A' for Active; 'I' for Inactive)
REMARK    1  A    between atoms: C4_4  and  S1_17 
REMARK    2  A    between atoms: C5_5  and  N1_7 
REMARK       I    between atoms: N1_7  and  C7_8 
REMARK    3  A    between atoms: C7_8  and  C8_10 
REMARK    4  A    between atoms: S1_17  and  N3_20 
ROOT
ATOM      1  C1  <0> d          -0.028   1.372   0.037  0.00  0.00     0.002 A 
ATOM      2  C2  <0> d           1.157   2.085   0.032  0.00  0.00     0.002 A 
ATOM      3  C3  <0> d           2.369   1.419   0.009  0.00  0.00     0.027 A 
ATOM      4  C4  <0> d           2.399   0.038  -0.009  0.00  0.00     0.105 A 
ATOM      5  C5  <0> d           1.211  -0.681  -0.004  0.00  0.00     0.058 A 
ATOM      6  C6  <0> d          -0.005  -0.008   0.019  0.00  0.00     0.031 A 
ENDROOT
BRANCH   5   7
ATOM      7  N1  <0> d           1.238  -2.079  -0.022  0.00  0.00    -0.320 N 
ATOM      8  C7  <0> d           0.186  -2.767  -0.510  0.00  0.00     0.274 C 
ATOM      9  O1  <0> d          -0.742  -2.174  -1.024  0.00  0.00    -0.266 OA
ATOM     10  H5  <0> d           2.013  -2.553   0.316  0.00  0.00     0.169 HD
BRANCH   8  11
ATOM     11  C8  <0> d           0.162  -4.245  -0.418  0.00  0.00     0.124 A 
ATOM     12  N2  <0> d           1.178  -4.886   0.145  0.00  0.00    -0.254 NA
ATOM     13  C12 <0> d           1.193  -6.196   0.252  0.00  0.00     0.136 A 
ATOM     14  C11 <0> d           0.144  -6.962  -0.235  0.00  0.00     0.028 A 
ATOM     15  C10 <0> d          -0.935  -6.332  -0.836  0.00  0.00     0.023 A 
ATOM     16 Br1  <0> d           0.186  -8.847  -0.080  0.00  0.00    -0.050 Br
ATOM     17  C9  <0> d          -0.926  -4.950  -0.929  0.00  0.00     0.039 A 
ENDBRANCH   8  11
ENDBRANCH   5   7
BRANCH   4  18
ATOM     18  S1  <0> d           3.943  -0.810  -0.039  0.00  0.00     0.259 S 
ATOM     19  O2  <0> d           3.855  -1.777  -1.076  0.00  0.00    -0.201 OA
ATOM     20  O3  <0> d           4.955   0.188  -0.013  0.00  0.00    -0.201 OA
BRANCH  18  21
ATOM     21  N3  <0> d           4.068  -1.650   1.382  0.00  0.00    -0.324 N 
ATOM     22  H9  <0> d           3.354  -1.604   2.037  0.00  0.00     0.169 HD
ATOM     23  H10 <0> d           4.856  -2.187   1.560  0.00  0.00     0.169 HD
ENDBRANCH  18  21
ENDBRANCH   4  18
TORSDOF 4
