REMARK  3 active torsions:
REMARK  status: ('A' for Active; 'I' for Inactive)
REMARK    1  A    between atoms: C3_3  and  C9_11 
REMARK       I    between atoms: C9_11  and  N3_13 
REMARK    2  A    between atoms: N3_13  and  C10_14 
REMARK    3  A    between atoms: C13_17  and  N4_20 
ROOT
ATOM      1  C9  <0> d           2.477   4.080  -0.594  0.00  0.00     0.258 C 
ATOM      2  O1  <0> d           2.505   5.170  -1.133  0.00  0.00    -0.267 OA
ATOM      3  N3  <0> d           3.589   3.587  -0.014  0.00  0.00    -0.323 N 
ATOM      4  H6  <0> d           3.552   2.749   0.472  0.00  0.00     0.169 HD
ENDROOT
BRANCH   3   5
ATOM      5  C10 <0> d           4.799   4.286  -0.113  0.00  0.00     0.035 A 
ATOM      6  C15 <0> d           4.801   5.675  -0.109  0.00  0.00     0.032 A 
ATOM      7  C14 <0> d           5.994   6.364  -0.200  0.00  0.00     0.031 A 
ATOM      8  C13 <0> d           7.191   5.668  -0.307  0.00  0.00     0.030 A 
ATOM      9  C12 <0> d           7.189   4.279  -0.317  0.00  0.00     0.031 A 
ATOM     10  C11 <0> d           5.996   3.590  -0.220  0.00  0.00     0.032 A 
BRANCH   8  11
ATOM     11  N4  <0> d           8.400   6.365  -0.405  0.00  0.00    -0.377 N 
ATOM     12  C19 <0> d           8.441   7.831  -0.278  0.00  0.00     0.149 C 
ATOM     13  C18 <0> d           9.221   8.402  -1.463  0.00  0.00     0.187 C 
ATOM     14  O2  <0> d          10.483   7.737  -1.561  0.00  0.00    -0.388 OA
ATOM     15  C17 <0> d          10.387   6.333  -1.815  0.00  0.00     0.187 C 
ATOM     16  C16 <0> d           9.667   5.656  -0.643  0.00  0.00     0.149 C 
ENDBRANCH   8  11
ENDBRANCH   3   5
BRANCH   1  17
ATOM     17  C3  <0> d           1.227   3.298  -0.576  0.00  0.00     0.063 A 
ATOM     18  C2  <0> d           1.188   2.055   0.037  0.00  0.00     0.020 A 
ATOM     19  C1  <0> d           0.013   1.312   0.059  0.00  0.00     0.003 A 
ATOM     20  C6  <0> d          -1.128   1.782  -0.518  0.00  0.00     0.034 A 
ATOM     21  C5  <0> d          -1.135   3.039  -1.151  0.00  0.00     0.086 A 
ATOM     22  C4  <0> d           0.053   3.809  -1.183  0.00  0.00     0.101 A 
ATOM     23  N1  <0> d          -2.246   3.515  -1.722  0.00  0.00    -0.257 NA
ATOM     24  N2  <0> d           0.051   5.002  -1.783  0.00  0.00    -0.256 NA
ATOM     25  C8  <0> d          -1.053   5.450  -2.338  0.00  0.00     0.136 A 
ATOM     26  C7  <0> d          -2.224   4.692  -2.307  0.00  0.00     0.136 A 
ENDBRANCH   1  17
TORSDOF 3
