REMARK  4 active torsions:
REMARK  status: ('A' for Active; 'I' for Inactive)
REMARK    1  A    between atoms: C2_2  and  C3_3 
REMARK    2  A    between atoms: C2_2  and  N3_9 
REMARK    3  A    between atoms: N3_9  and  C7_10 
REMARK    4  A    between atoms: C10_13  and  N4_17 
ROOT
ATOM      1  C7  <0> d          -2.053  -0.660   1.224  0.00  0.00     0.031 A 
ATOM      2  C8  <0> d          -1.428  -0.323   2.418  0.00  0.00     0.031 A 
ATOM      3  C9  <0> d          -2.099  -0.470   3.615  0.00  0.00     0.037 A 
ATOM      4  C10 <0> d          -3.400  -0.956   3.627  0.00  0.00     0.098 A 
ATOM      5  C11 <0> d          -4.026  -1.294   2.433  0.00  0.00     0.147 A 
ATOM      6  C12 <0> d          -3.356  -1.141   1.234  0.00  0.00     0.073 A 
ATOM      7  F1  <0> d          -5.292  -1.768   2.444  0.00  0.00    -0.204 F 
ENDROOT
BRANCH   1   8
ATOM      8  N3  <0> d          -1.372  -0.511   0.012  0.00  0.00    -0.381 N 
ATOM      9  H10 <0> d          -1.810  -0.743  -0.822  0.00  0.00     0.160 HD
BRANCH   8  10
ATOM     10  C2  <0> d           0.002  -0.004   0.002  0.00  0.00     0.114 C 
ATOM     11  C1  <0> d          -0.019   1.526   0.010  0.00  0.00     0.037 C 
BRANCH  10  12
ATOM     12  C3  <0> d           0.707  -0.490  -1.238  0.00  0.00     0.000 A 
ATOM     13  C5  <0> d           1.990  -0.917  -1.309  0.00  0.00     0.122 A 
ATOM     14  N2  <0> d           2.236  -1.267  -2.588  0.00  0.00    -0.285 N 
ATOM     15  N1  <0> d           1.070  -1.040  -3.330  0.00  0.00    -0.185 NA
ATOM     16  C6  <0> d           3.502  -1.787  -3.111  0.00  0.00     0.179 C 
ATOM     17  C4  <0> d           0.154  -0.574  -2.520  0.00  0.00     0.149 A 
ENDBRANCH  10  12
ENDBRANCH   8  10
ENDBRANCH   1   8
BRANCH   4  18
ATOM     18  N4  <0> d          -4.082  -1.106   4.845  0.00  0.00    -0.223 N 
ATOM     19  N6  <0> d          -3.590  -0.812   6.127  0.00  0.00    -0.159 NA
ATOM     20  C14 <0> d          -4.547  -1.094   6.973  0.00  0.00     0.257 A 
ATOM     21  N5  <0> d          -5.600  -1.554   6.299  0.00  0.00    -0.233 NA
ATOM     22  C13 <0> d          -5.335  -1.567   5.017  0.00  0.00     0.236 A 
ENDBRANCH   4  18
TORSDOF 4
