REMARK  2 active torsions:
REMARK  status: ('A' for Active; 'I' for Inactive)
REMARK    1  A    between atoms: C2_2  and  N1_4 
REMARK    2  A    between atoms: C4_5  and  N4_10 
ROOT
ATOM      1  N1  <0> d          -1.381  -1.255   0.295  0.00  0.00    -0.149 N 
ATOM      2  C4  <0> d          -1.920  -1.220  -0.970  0.00  0.00     0.724 A 
ATOM      3  N2  <0> d          -3.149  -0.799  -0.888  0.00  0.00     0.019 NA
ATOM      4  N3  <0> d          -3.433  -0.549   0.462  0.00  0.00    -0.237 N 
ATOM      5  C5  <0> d          -2.322  -0.845   1.169  0.00  0.00     0.210 A 
ATOM      6  S1  <0> d          -2.140  -0.719   2.866  0.00  0.00    -0.038 SA
ATOM      7  H8  <0> d          -4.273  -0.226   0.822  0.00  0.00     0.192 HD
ENDROOT
BRANCH   2   8
ATOM      8  N4  <0> d          -1.263  -1.573  -2.139  0.00  0.00    -0.206 N 
ATOM      9  C11 <0> d           0.167  -1.270  -2.327  0.00  0.00     0.218 C 
ATOM     10  C10 <0> d           0.333  -0.750  -3.734  0.00  0.00     0.102 A 
ATOM     11  N5  <0> d          -0.640  -0.804  -4.674  0.00  0.00    -0.342 N 
ATOM     12  N6  <0> d           1.387  -0.194  -4.253  0.00  0.00    -0.353 N 
ATOM     13  C7  <0> d          -1.982  -1.353  -4.469  0.00  0.00     0.150 C 
ATOM     14  C8  <0> d          -0.131  -0.257  -5.815  0.00  0.00     0.109 A 
ATOM     15  C6  <0> d          -1.975  -2.256  -3.231  0.00  0.00     0.162 C 
ATOM     16  C9  <0> d           1.133   0.120  -5.535  0.00  0.00     0.106 A 
ATOM     17  H17 <0> d           2.223  -0.031  -3.790  0.00  0.00     0.166 HD
ENDBRANCH   2   8
BRANCH   1  18
ATOM     18  C2  <0> d          -0.019  -1.673   0.635  0.00  0.00     0.102 C 
ATOM     19  C1  <0> d           0.730  -0.500   1.271  0.00  0.00     0.033 C 
ATOM     20  C3  <0> d          -0.075  -2.839   1.623  0.00  0.00     0.033 C 
ENDBRANCH   1  18
TORSDOF 2
