REMARK  3 active torsions:
REMARK  status: ('A' for Active; 'I' for Inactive)
REMARK    1  A    between atoms: C6_6  and  N1_8 
REMARK       I    between atoms: N1_8  and  C8_9 
REMARK    2  A    between atoms: C8_9  and  C9_11 
REMARK    3  A    between atoms: C12_15  and  N3_17 
ROOT
ATOM      1  N1  <0> d           2.543  -0.239  -0.023  0.00  0.00    -0.322 N 
ATOM      2  C8  <0> d           2.493   1.108  -0.018  0.00  0.00     0.256 C 
ATOM      3  O1  <0> d           3.522   1.754  -0.018  0.00  0.00    -0.267 OA
ATOM      4  H7  <0> d           1.616  -0.824   0.069  0.00  0.00     0.169 HD
ENDROOT
BRANCH   2   5
ATOM      5  C9  <0> d           1.184   1.801  -0.014  0.00  0.00     0.037 A 
ATOM      6  C13 <0> d           1.110   3.195  -0.009  0.00  0.00     0.068 A 
ATOM      7  C12 <0> d          -0.139   3.803  -0.005  0.00  0.00     0.136 A 
ATOM      8  N2  <0> d          -1.243   3.076  -0.006  0.00  0.00    -0.243 NA
ATOM      9  C11 <0> d          -1.213   1.758  -0.017  0.00  0.00     0.120 A 
ATOM     10  C10 <0> d          -0.013   1.075  -0.015  0.00  0.00     0.036 A 
BRANCH   7  11
ATOM     11  N3  <0> d          -0.229   5.199  -0.000  0.00  0.00    -0.281 N 
ATOM     12  C15 <0> d          -1.367   5.950   0.004  0.00  0.00     0.241 A 
ATOM     13  N5  <0> d          -1.002   7.203   0.008  0.00  0.00    -0.144 NA
ATOM     14  N4  <0> d           0.281   7.286   0.007  0.00  0.00    -0.144 NA
ATOM     15  C14 <0> d           0.803   6.090   0.007  0.00  0.00     0.241 A 
ENDBRANCH   7  11
ENDBRANCH   2   5
BRANCH   1  16
ATOM     16  C6  <0> d           3.773  -0.892  -0.143  0.00  0.00     0.041 A 
ATOM     17  C5  <0> d           3.929  -2.179   0.355  0.00  0.00    -0.035 A 
ATOM     18  C4  <0> d           5.144  -2.824   0.230  0.00  0.00     0.009 A 
ATOM     19  C16 <0> d           2.772  -2.874   1.026  0.00  0.00     0.050 C 
ATOM     20  C3  <0> d           6.208  -2.186  -0.381  0.00  0.00     0.007 A 
ATOM     21  C2  <0> d           6.057  -0.902  -0.873  0.00  0.00    -0.060 A 
ATOM     22  C1  <0> d           7.220  -0.210  -1.537  0.00  0.00     0.048 C 
ATOM     23  C7  <0> d           4.844  -0.254  -0.756  0.00  0.00     0.037 A 
ENDBRANCH   1  16
TORSDOF 3
