REMARK  4 active torsions:
REMARK  status: ('A' for Active; 'I' for Inactive)
REMARK    1  A    between atoms: C2_2  and  C3_3 
REMARK    2  A    between atoms: C3_3  and  N1_4 
REMARK    3  A    between atoms: C9_10  and  N2_13 
REMARK       I    between atoms: N2_13  and  C12_14 
REMARK    4  A    between atoms: C12_14  and  C13_16 
ROOT
ATOM      1  N2  <0> d          -5.659  -2.893   1.002  0.00  0.00    -0.322 N 
ATOM      2  C12 <0> d          -6.870  -2.546   1.481  0.00  0.00     0.256 C 
ATOM      3  O1  <0> d          -6.979  -2.136   2.621  0.00  0.00    -0.267 OA
ATOM      4  H15 <0> d          -5.559  -3.143   0.070  0.00  0.00     0.169 HD
ENDROOT
BRANCH   1   5
ATOM      5  C9  <0> d          -4.546  -2.893   1.849  0.00  0.00     0.043 A 
ATOM      6  C8  <0> d          -4.714  -3.050   3.219  0.00  0.00     0.030 A 
ATOM      7  C7  <0> d          -3.612  -3.049   4.052  0.00  0.00     0.003 A 
ATOM      8  C6  <0> d          -2.344  -2.892   3.525  0.00  0.00     0.009 A 
ATOM      9  C5  <0> d          -2.172  -2.736   2.162  0.00  0.00    -0.022 A 
ATOM     10  C4  <0> d          -0.932  -2.549   1.319  0.00  0.00     0.274 C 
ATOM     11  C10 <0> d          -3.271  -2.736   1.322  0.00  0.00     0.002 A 
ATOM     12  N1  <0> d          -1.407  -2.018   0.021  0.00  0.00    -0.063 N 
ATOM     13  C11 <0> d          -2.784  -2.548  -0.097  0.00  0.00     0.276 C 
ATOM     14  H24 <0> d          -0.831  -2.358  -0.735  0.00  0.00     0.280 HD
BRANCH  12  15
ATOM     15  C3  <0> d          -1.419  -0.549   0.037  0.00  0.00     0.235 C 
BRANCH  15  16
ATOM     16  C2  <0> d           0.019  -0.027   0.033  0.00  0.00     0.023 C 
ATOM     17  C1  <0> d           0.006   1.503   0.051  0.00  0.00     0.007 C 
ENDBRANCH  15  16
ENDBRANCH  12  15
ENDBRANCH   1   5
BRANCH   2  18
ATOM     18  C13 <0> d          -8.063  -2.663   0.623  0.00  0.00     0.034 A 
ATOM     19  C18 <0> d          -9.320  -2.303   1.120  0.00  0.00     0.048 A 
ATOM     20  C17 <0> d         -10.431  -2.410   0.308  0.00  0.00     0.052 A 
ATOM     21  C16 <0> d         -10.300  -2.885  -0.998  0.00  0.00     0.027 A 
ATOM     22  N3  <0> d         -11.702  -2.052   0.786  0.00  0.00    -0.326 N 
ATOM     23  C15 <0> d          -9.052  -3.249  -1.490  0.00  0.00     0.022 A 
ATOM     24  S1  <0> d         -11.735  -3.014  -2.015  0.00  0.00    -0.127 SA
ATOM     25  C14 <0> d          -7.939  -3.140  -0.685  0.00  0.00     0.018 A 
ATOM     26  C21 <0> d         -12.626  -4.436  -1.301  0.00  0.00     0.089 C 
ATOM     27  C20 <0> d         -12.530  -4.317   0.230  0.00  0.00     0.113 C 
ATOM     28  C19 <0> d         -12.734  -2.895   0.660  0.00  0.00     0.222 C 
ATOM     29  O2  <0> d         -13.857  -2.501   0.897  0.00  0.00    -0.273 OA
ATOM     30  H19 <0> d         -11.833  -1.189   1.210  0.00  0.00     0.169 HD
ENDBRANCH   2  18
TORSDOF 4
