REMARK  4 active torsions:
REMARK  status: ('A' for Active; 'I' for Inactive)
REMARK    1  A    between atoms: C3_3  and  C5_6 
REMARK    2  A    between atoms: C6_7  and  C8_12 
REMARK    3  A    between atoms: C8_12  and  N3_13 
REMARK    4  A    between atoms: N3_13  and  C9_14 
ROOT
ATOM      1  C8  <0> d           4.707  -0.059   1.424  0.00  0.00     0.275 C 
ENDROOT
BRANCH   1   2
ATOM      2  C6  <0> d           4.746   1.217   0.622  0.00  0.00     0.016 A 
ATOM      3  C5  <0> d           3.666   1.787  -0.084  0.00  0.00     0.103 A 
ATOM      4  N2  <0> d           4.097   2.891  -0.660  0.00  0.00    -0.173 NA
ATOM      5  N1  <0> d           5.449   3.055  -0.329  0.00  0.00    -0.288 N 
ATOM      6  C7  <0> d           5.820   2.017   0.451  0.00  0.00     0.120 A 
ATOM      7  H1  <0> d           6.020   3.785  -0.614  0.00  0.00     0.188 HD
BRANCH   3   8
ATOM      8  C3  <0> d           2.295   1.239  -0.169  0.00  0.00     0.035 A 
ATOM      9  C2  <0> d           1.102   1.907  -0.230  0.00  0.00     0.022 A 
ATOM     10  C1  <0> d          -0.064   1.175  -0.305  0.00  0.00     0.008 A 
ATOM     11  C4  <0> d           0.006  -0.181  -0.316  0.00  0.00     0.050 A 
ATOM     12  S1  <0> d           1.765  -0.466  -0.218  0.00  0.00    -0.100 SA
ENDBRANCH   3   8
ENDBRANCH   1   2
BRANCH   1  13
ATOM     13  N3  <0> d           4.814  -1.210   0.519  0.00  0.00    -0.058 N 
ATOM     14  H9  <0> d           3.999  -1.248  -0.075  0.00  0.00     0.278 HD
ATOM     15  H17 <0> d           5.641  -1.114  -0.051  0.00  0.00     0.278 HD
BRANCH  13  16
ATOM     16  C9  <0> d           4.903  -2.446   1.307  0.00  0.00     0.277 C 
ATOM     17  C13 <0> d           5.152  -3.608   0.388  0.00  0.00     0.248 C 
ATOM     18  N4  <0> d           4.544  -4.787   0.509  0.00  0.00    -0.359 N 
ATOM     19  O1  <0> d           5.951  -3.465  -0.514  0.00  0.00    -0.271 OA
ATOM     20  C12 <0> d           3.529  -5.083   1.512  0.00  0.00     0.122 C 
ATOM     21  H16 <0> d           4.792  -5.492  -0.110  0.00  0.00     0.162 HD
ATOM     22  C11 <0> d           3.600  -4.075   2.659  0.00  0.00     0.022 C 
ATOM     23  C10 <0> d           3.593  -2.659   2.070  0.00  0.00     0.044 C 
ENDBRANCH  13  16
ENDBRANCH   1  13
TORSDOF 4
