REMARK  6 active torsions:
REMARK  status: ('A' for Active; 'I' for Inactive)
REMARK    1  A    between atoms: S1_2  and  N1_5 
REMARK    2  A    between atoms: C9_13  and  C11_15 
REMARK    3  A    between atoms: C11_15  and  C12_16 
REMARK    4  A    between atoms: C11_15  and  O4_28 
REMARK    5  A    between atoms: C12_16  and  N3_30 
REMARK    6  A    between atoms: N2_19  and  C17_23 
ROOT
ATOM      1  C11 <0> d          -1.718   6.113  -1.803  0.00  0.00     0.177 C 
ENDROOT
BRANCH   1   2
ATOM      2  C9  <0> d          -2.216   6.449  -3.185  0.00  0.00    -0.027 A 
ATOM      3  C8  <0> d          -3.575   6.532  -3.426  0.00  0.00     0.012 A 
ATOM      4  C7  <0> d          -4.032   6.844  -4.692  0.00  0.00     0.031 A 
ATOM      5  C6  <0> d          -3.127   7.061  -5.724  0.00  0.00     0.051 A 
ATOM      6  N1  <0> d          -3.611   7.365  -7.002  0.00  0.00    -0.276 N 
ATOM      7  C5  <0> d          -1.764   6.974  -5.482  0.00  0.00    -0.030 A 
ATOM      8  C2  <0> d          -2.676   7.882  -8.011  0.00  0.00     0.142 C 
ATOM      9  C3  <0> d          -1.401   7.031  -7.948  0.00  0.00     0.026 C 
ATOM     10  C4  <0> d          -0.755   7.210  -6.574  0.00  0.00     0.042 C 
ATOM     11  C10 <0> d          -1.315   6.666  -4.210  0.00  0.00     0.019 A 
BRANCH   6  12
ATOM     12  S1  <0> d          -5.210   7.145  -7.370  0.00  0.00     0.229 S 
ATOM     13  C1  <0> d          -6.042   8.630  -6.743  0.00  0.00     0.186 C 
ATOM     14  O1  <0> d          -5.255   7.121  -8.790  0.00  0.00    -0.206 OA
ATOM     15  O2  <0> d          -5.603   6.008  -6.613  0.00  0.00    -0.206 OA
ENDBRANCH   6  12
ENDBRANCH   1   2
BRANCH   1  16
ATOM     16  C12 <0> d          -1.701   4.594  -1.622  0.00  0.00     0.271 C 
BRANCH  16  17
ATOM     17  N3  <0> d          -1.208   4.280  -0.262  0.00  0.00    -0.059 N 
ATOM     18  C13 <0> d           0.260   4.431  -0.208  0.00  0.00     0.255 C 
ATOM     19  C14 <0> d           0.688   4.383   1.260  0.00  0.00     0.154 C 
ATOM     20  N2  <0> d           0.114   3.207   1.908  0.00  0.00    -0.344 N 
ATOM     21  C15 <0> d          -0.924   2.533   1.406  0.00  0.00     0.246 C 
ATOM     22  O3  <0> d          -1.359   1.587   2.027  0.00  0.00    -0.272 OA
ATOM     23  C16 <0> d          -1.576   2.899   0.102  0.00  0.00     0.337 C 
ATOM     24  H32 <0> d          -1.637   4.929   0.408  0.00  0.00     0.280 HD
BRANCH  20  25
ATOM     25  C17 <0> d           0.702   2.745   3.168  0.00  0.00     0.087 C 
ATOM     26  C21 <0> d          -0.356   2.776   4.285  0.00  0.00     0.025 C 
ATOM     27  C20 <0> d          -0.506   1.325   4.789  0.00  0.00     0.002 C 
ATOM     28  C19 <0> d           0.836   0.651   4.411  0.00  0.00     0.002 C 
ATOM     29  C18 <0> d           1.157   1.277   3.032  0.00  0.00     0.025 C 
ENDBRANCH  20  25
ENDBRANCH  16  17
ENDBRANCH   1  16
BRANCH   1  30
ATOM     30  O4  <0> d          -2.582   6.700  -0.829  0.00  0.00    -0.389 OA
ATOM     31  H31 <0> d          -3.499   6.397  -0.883  0.00  0.00     0.210 HD
ENDBRANCH   1  30
TORSDOF 6
