REMARK  5 active torsions:
REMARK  status: ('A' for Active; 'I' for Inactive)
REMARK    1  A    between atoms: C3_3  and  C19_24 
REMARK    2  A    between atoms: C5_5  and  C6_7 
REMARK       I    between atoms: C6_7  and  N2_9 
REMARK    3  A    between atoms: N2_9  and  C7_10 
REMARK    4  A    between atoms: C7_10  and  C8_11 
REMARK    5  A    between atoms: C7_10  and  C14_17 
ROOT
ATOM      1  C6  <0> d           2.775  -1.865   1.576  0.00  0.00     0.271 C 
ATOM      2  O1  <0> d           3.688  -2.489   1.074  0.00  0.00    -0.266 OA
ATOM      3  N2  <0> d           2.673  -1.782   2.918  0.00  0.00    -0.340 N 
ATOM      4  H6  <0> d           1.943  -1.284   3.319  0.00  0.00     0.164 HD
ENDROOT
BRANCH   3   5
ATOM      5  C7  <0> d           3.663  -2.445   3.770  0.00  0.00     0.188 C 
BRANCH   5   6
ATOM      6  C8  <0> d           3.724  -1.747   5.104  0.00  0.00    -0.028 A 
ATOM      7  C13 <0> d           4.943  -1.547   5.725  0.00  0.00     0.009 A 
ATOM      8  C12 <0> d           4.999  -0.904   6.947  0.00  0.00     0.001 A 
ATOM      9  C11 <0> d           3.836  -0.468   7.553  0.00  0.00     0.000 A 
ATOM     10  C10 <0> d           2.616  -0.672   6.935  0.00  0.00     0.001 A 
ATOM     11  C9  <0> d           2.560  -1.312   5.711  0.00  0.00     0.009 A 
ENDBRANCH   5   6
BRANCH   5  12
ATOM     12  C14 <0> d           3.269  -3.885   3.973  0.00  0.00     0.133 A 
ATOM     13  N4  <0> d           4.098  -4.947   3.892  0.00  0.00    -0.346 N 
ATOM     14  C16 <0> d           3.350  -6.065   4.144  0.00  0.00     0.111 A 
ATOM     15  C17 <0> d           5.532  -4.910   3.593  0.00  0.00     0.157 C 
ATOM     16  C15 <0> d           2.088  -5.649   4.362  0.00  0.00     0.136 A 
ATOM     17  N3  <0> d           2.067  -4.312   4.251  0.00  0.00    -0.243 NA
ENDBRANCH   5  12
ENDBRANCH   3   5
BRANCH   1  18
ATOM     18  C5  <0> d           1.769  -1.193   0.711  0.00  0.00     0.126 A 
ATOM     19  C4  <0> d           1.785  -1.218  -0.758  0.00  0.00    -0.016 A 
ATOM     20  C3  <0> d           0.732  -0.510  -1.223  0.00  0.00     0.020 A 
ATOM     21  C18 <0> d           2.811  -1.922  -1.609  0.00  0.00     0.052 C 
ATOM     22  C2  <0> d           0.002  -0.004   0.002  0.00  0.00     0.142 A 
ATOM     23  C1  <0> d          -0.019   1.526   0.010  0.00  0.00     0.040 C 
ATOM     24  N1  <0> d           0.761  -0.507   1.153  0.00  0.00    -0.274 NA
BRANCH  20  25
ATOM     25  C19 <0> d           0.371  -0.281  -2.621  0.00  0.00     0.154 C 
ATOM     26  O2  <0> d           1.053  -0.751  -3.508  0.00  0.00    -0.293 OA
ATOM     27  C20 <0> d          -0.847   0.539  -2.961  0.00  0.00     0.096 C 
ENDBRANCH  20  25
ENDBRANCH   1  18
TORSDOF 5
