REMARK  4 active torsions:
REMARK  status: ('A' for Active; 'I' for Inactive)
REMARK    1  A    between atoms: S1_2  and  C2_3 
REMARK    2  A    between atoms: C3_5  and  N4_9 
REMARK    3  A    between atoms: C4_10  and  C5_12 
REMARK    4  A    between atoms: C10_18  and  C11_21 
ROOT
ATOM      1  C5  <0> d          -2.637   7.990  -4.181  0.00  0.00     0.184 A 
ATOM      2  C6  <0> d          -1.540   8.453  -5.112  0.00  0.00     0.052 A 
ATOM      3  C7  <0> d          -2.047   8.414  -6.361  0.00  0.00     0.120 A 
ATOM      4  N5  <0> d          -1.453   8.736  -7.545  0.00  0.00    -0.351 N 
ATOM      5  C8  <0> d          -2.100   8.640  -8.678  0.00  0.00     0.092 A 
ATOM      6  C9  <0> d          -3.430   8.200  -8.706  0.00  0.00     0.049 A 
ATOM      7  C10 <0> d          -4.056   7.869  -7.538  0.00  0.00     0.064 A 
ATOM      8  N6  <0> d          -3.364   7.974  -6.345  0.00  0.00    -0.260 N 
ATOM      9  N7  <0> d          -3.779   7.704  -5.067  0.00  0.00    -0.215 NA
ATOM     10  H9  <0> d          -4.579   8.266  -4.819  0.00  0.00     0.148 HD
ATOM     11  H17 <0> d          -0.533   9.044  -7.547  0.00  0.00     0.166 HD
ENDROOT
BRANCH   1  12
ATOM     12  C4  <0> d          -2.214   6.743  -3.449  0.00  0.00     0.218 C 
ATOM     13  N4  <0> d          -1.564   6.837  -2.324  0.00  0.00    -0.036 NA
ATOM     14  O1  <0> d          -2.508   5.530  -3.957  0.00  0.00    -0.172 OA
BRANCH  13  15
ATOM     15  C3  <0> d          -1.182   5.709  -1.661  0.00  0.00     0.747 A 
ATOM     16  N1  <0> d          -1.405   4.466  -2.048  0.00  0.00    -0.033 NA
ATOM     17  C2  <0> d          -0.888   3.618  -1.155  0.00  0.00     0.225 A 
ATOM     18  N3  <0> d          -0.334   4.304  -0.183  0.00  0.00    -0.132 NA
ATOM     19  N2  <0> d          -0.505   5.664  -0.489  0.00  0.00    -0.103 N 
ATOM     20  H1  <0> d          -0.202   6.421   0.036  0.00  0.00     0.208 HD
BRANCH  17  21
ATOM     21  S1  <0> d          -0.949   1.861  -1.260  0.00  0.00    -0.092 SA
ATOM     22  C1  <0> d          -0.086   1.301   0.234  0.00  0.00     0.099 C 
ENDBRANCH  17  21
ENDBRANCH  13  15
ENDBRANCH   1  12
BRANCH   7  23
ATOM     23  C11 <0> d          -5.457   7.403  -7.548  0.00  0.00    -0.007 A 
ATOM     24  C20 <0> d          -6.405   8.093  -8.287  0.00  0.00     0.026 A 
ATOM     25  C19 <0> d          -7.733   7.641  -8.297  0.00  0.00    -0.025 A 
ATOM     26  C14 <0> d          -8.087   6.494  -7.542  0.00  0.00    -0.026 A 
ATOM     27  C18 <0> d          -8.723   8.311  -9.040  0.00  0.00     0.012 A 
ATOM     28  C13 <0> d          -7.102   5.820  -6.797  0.00  0.00     0.013 A 
ATOM     29  C15 <0> d          -9.419   6.050  -7.551  0.00  0.00     0.012 A 
ATOM     30  C12 <0> d          -5.821   6.266  -6.803  0.00  0.00     0.014 A 
ATOM     31  C16 <0> d         -10.351   6.724  -8.281  0.00  0.00     0.001 A 
ATOM     32  C17 <0> d         -10.003   7.851  -9.023  0.00  0.00     0.001 A 
ENDBRANCH   7  23
TORSDOF 4
