REMARK  2 active torsions:
REMARK  status: ('A' for Active; 'I' for Inactive)
REMARK    1  A    between atoms: N1_6  and  C8_9 
REMARK    2  A    between atoms: C13_14  and  N2_15 
ROOT
ATOM      1  C8  <0> d           1.534  -2.461   2.390  0.00  0.00     0.224 C 
ATOM      2  C9  <0> d           2.963  -1.924   2.303  0.00  0.00     0.104 C 
ATOM      3  C10 <0> d           3.771  -2.430   3.499  0.00  0.00     0.166 C 
ATOM      4  C11 <0> d           3.798  -3.959   3.498  0.00  0.00     0.070 C 
ATOM      5  C12 <0> d           2.366  -4.493   3.583  0.00  0.00     0.040 C 
ATOM      6  C13 <0> d           1.562  -3.991   2.382  0.00  0.00     0.214 C 
ATOM      7  O1  <0> d           5.115  -1.928   3.416  0.00  0.00    -0.353 OA
ATOM      8  C14 <0> d           5.116  -0.735   4.237  0.00  0.00     0.197 C 
ATOM      9  C15 <0> d           4.159  -1.143   5.385  0.00  0.00     0.197 C 
ATOM     10  O2  <0> d           3.176  -1.959   4.715  0.00  0.00    -0.353 OA
ENDROOT
BRANCH   1  11
ATOM     11  N1  <0> d           0.758  -1.980   1.239  0.00  0.00    -0.060 N 
ATOM     12  C5  <0> d          -0.613  -2.496   1.324  0.00  0.00     0.236 C 
ATOM     13  C4  <0> d          -1.402  -2.064   0.086  0.00  0.00     0.028 C 
ATOM     14  C3  <0> d          -1.434  -0.535   0.015  0.00  0.00     0.008 C 
ATOM     15  C2  <0> d           0.002  -0.004   0.002  0.00  0.00     0.012 C 
ATOM     16  C1  <0> d          -0.019   1.526   0.010  0.00  0.00     0.012 C 
ATOM     17  C6  <0> d           0.740  -0.512   1.242  0.00  0.00     0.188 C 
ATOM     18  C7  <0> d           0.024  -0.016   2.500  0.00  0.00     0.040 C 
ATOM     19  H29 <0> d           1.188  -2.307   0.386  0.00  0.00     0.280 HD
ENDBRANCH   1  11
BRANCH   6  20
ATOM     20  N2  <0> d           2.191  -4.462   1.140  0.00  0.00    -0.073 N 
ATOM     21  H23 <0> d           3.134  -4.107   1.085  0.00  0.00     0.274 HD
ATOM     22  H24 <0> d           2.210  -5.471   1.135  0.00  0.00     0.274 HD
ATOM     23  H30 <0> d           1.661  -4.131   0.348  0.00  0.00     0.274 HD
ENDBRANCH   6  20
TORSDOF 2
