REMARK  8 active torsions:
REMARK  status: ('A' for Active; 'I' for Inactive)
REMARK    1  A    between atoms: C4_4  and  S1_8 
REMARK    2  A    between atoms: S1_8  and  N1_11 
REMARK    3  A    between atoms: N1_11  and  C7_12 
REMARK    4  A    between atoms: C7_12  and  C8_13 
REMARK    5  A    between atoms: C8_13  and  C9_14 
REMARK    6  A    between atoms: C9_14  and  N2_15 
REMARK    7  A    between atoms: N2_15  and  S2_16 
REMARK    8  A    between atoms: S2_16  and  C10_19 
ROOT
ATOM      1  C8  <0> d           4.363  -2.306   3.653  0.00  0.00     0.041 C 
ENDROOT
BRANCH   1   2
ATOM      2  C7  <0> d           3.566  -1.944   2.398  0.00  0.00     0.134 C 
BRANCH   2   3
ATOM      3  N1  <0> d           4.378  -1.081   1.536  0.00  0.00    -0.315 N 
ATOM      4  H4  <0> d           5.174  -0.654   1.890  0.00  0.00     0.172 HD
BRANCH   3   5
ATOM      5  S1  <0> d           3.936  -0.833  -0.040  0.00  0.00     0.259 S 
ATOM      6  O1  <0> d           3.676  -2.115  -0.595  0.00  0.00    -0.201 OA
ATOM      7  O2  <0> d           4.893   0.058  -0.595  0.00  0.00    -0.201 OA
BRANCH   5   8
ATOM      8  C4  <0> d           2.398   0.028  -0.021  0.00  0.00     0.085 A 
ATOM      9  C3  <0> d           2.381   1.410  -0.013  0.00  0.00     0.067 A 
ATOM     10  C2  <0> d           1.173   2.087   0.002  0.00  0.00     0.120 A 
ATOM     11  C1  <0> d          -0.017   1.380   0.010  0.00  0.00     0.084 A 
ATOM     12  F4  <0> d           1.156   3.438   0.009  0.00  0.00    -0.206 F 
ATOM     13  C6  <0> d           0.002  -0.004   0.002  0.00  0.00     0.120 A 
ATOM     14  C5  <0> d           1.211  -0.679  -0.014  0.00  0.00     0.067 A 
ATOM     15  F1  <0> d          -1.158  -0.696   0.010  0.00  0.00    -0.206 F 
ENDBRANCH   5   8
ENDBRANCH   3   5
ENDBRANCH   2   3
ENDBRANCH   1   2
BRANCH   1  16
ATOM     16  C9  <0> d           3.515  -3.208   4.553  0.00  0.00     0.134 C 
BRANCH  16  17
ATOM     17  N2  <0> d           4.278  -3.555   5.754  0.00  0.00    -0.315 N 
ATOM     18  H11 <0> d           5.237  -3.406   5.780  0.00  0.00     0.172 HD
BRANCH  17  19
ATOM     19  S2  <0> d           3.505  -4.202   7.068  0.00  0.00     0.259 S 
ATOM     20  O3  <0> d           4.505  -4.450   8.046  0.00  0.00    -0.201 OA
ATOM     21  O4  <0> d           2.378  -3.374   7.324  0.00  0.00    -0.201 OA
BRANCH  19  22
ATOM     22  C10 <0> d           2.876  -5.773   6.581  0.00  0.00     0.085 A 
ATOM     23  C15 <0> d           3.651  -6.907   6.737  0.00  0.00     0.067 A 
ATOM     24  C14 <0> d           3.156  -8.143   6.359  0.00  0.00     0.120 A 
ATOM     25  C13 <0> d           1.887  -8.242   5.814  0.00  0.00     0.084 A 
ATOM     26  F2  <0> d           3.912  -9.251   6.516  0.00  0.00    -0.206 F 
ATOM     27  C12 <0> d           1.113  -7.106   5.654  0.00  0.00     0.120 A 
ATOM     28  C11 <0> d           1.609  -5.872   6.037  0.00  0.00     0.067 A 
ATOM     29  F3  <0> d          -0.126  -7.202   5.123  0.00  0.00    -0.206 F 
ENDBRANCH  19  22
ENDBRANCH  17  19
ENDBRANCH  16  17
ENDBRANCH   1  16
TORSDOF 8
