REMARK  7 active torsions:
REMARK  status: ('A' for Active; 'I' for Inactive)
REMARK    1  A    between atoms: C2_2  and  N1_3 
REMARK    2  A    between atoms: N1_3  and  C3_4 
REMARK    3  A    between atoms: N1_3  and  C5_6 
REMARK    4  A    between atoms: C8_9  and  C11_12 
REMARK    5  A    between atoms: C21_22  and  C23_25 
REMARK       I    between atoms: C23_25  and  N3_27 
REMARK    6  A    between atoms: N3_27  and  C24_28 
REMARK    7  A    between atoms: C24_28  and  C25_29 
ROOT
ATOM      1  C11 <0> d          -0.568   7.296   2.686  0.00  0.00     0.098 C 
ATOM      2  C12 <0> d          -1.787   7.970   3.320  0.00  0.00     0.023 C 
ATOM      3  C13 <0> d          -1.279   9.173   4.165  0.00  0.00     0.034 C 
ATOM      4  C14 <0> d          -0.849   8.533   5.470  0.00  0.00    -0.029 C 
ATOM      5  C15 <0> d          -1.431   7.371   5.627  0.00  0.00    -0.021 C 
ATOM      6  C16 <0> d          -2.326   7.064   4.448  0.00  0.00     0.049 C 
ATOM      7  C17 <0> d          -2.234   5.613   4.078  0.00  0.00    -0.028 A 
ATOM      8  C18 <0> d          -2.825   4.687   4.926  0.00  0.00     0.010 A 
ATOM      9  C19 <0> d          -2.775   3.334   4.648  0.00  0.00     0.002 A 
ATOM     10  C20 <0> d          -2.133   2.881   3.515  0.00  0.00     0.019 A 
ATOM     11  C21 <0> d          -1.534   3.796   2.651  0.00  0.00     0.053 A 
ATOM     12  C22 <0> d          -1.582   5.174   2.939  0.00  0.00     0.031 A 
ATOM     13  N2  <0> d          -0.982   6.047   2.045  0.00  0.00    -0.282 NA
ATOM     14  H26 <0> d          -0.204   5.606   1.578  0.00  0.00     0.128 HD
ENDROOT
BRANCH   1  15
ATOM     15  C8  <0> d           0.035   8.214   1.654  0.00  0.00    -0.040 A 
ATOM     16  C7  <0> d           1.150   8.968   1.969  0.00  0.00     0.011 A 
ATOM     17  C6  <0> d           1.705   9.811   1.026  0.00  0.00     0.030 A 
ATOM     18  C5  <0> d           1.140   9.901  -0.240  0.00  0.00     0.030 A 
ATOM     19  C10 <0> d           0.019   9.143  -0.553  0.00  0.00     0.030 A 
ATOM     20  C9  <0> d          -0.527   8.298   0.393  0.00  0.00     0.011 A 
BRANCH  18  21
ATOM     21  N1  <0> d           1.699  10.752  -1.197  0.00  0.00    -0.382 N 
BRANCH  21  22
ATOM     22  C2  <0> d           1.102  10.846  -2.532  0.00  0.00     0.118 C 
ATOM     23  C1  <0> d           0.043  11.950  -2.540  0.00  0.00     0.026 C 
ENDBRANCH  21  22
BRANCH  21  24
ATOM     24  C3  <0> d           2.881  11.551  -0.865  0.00  0.00     0.118 C 
ATOM     25  C4  <0> d           4.144  10.758  -1.206  0.00  0.00     0.026 C 
ENDBRANCH  21  24
ENDBRANCH  18  21
ENDBRANCH   1  15
BRANCH  11  26
ATOM     26  C23 <0> d          -0.843   3.320   1.438  0.00  0.00     0.253 C 
ATOM     27  O1  <0> d          -0.427   4.120   0.622  0.00  0.00    -0.268 OA
ATOM     28  N3  <0> d          -0.674   1.999   1.232  0.00  0.00    -0.354 N 
ATOM     29  H27 <0> d          -1.007   1.361   1.883  0.00  0.00     0.162 HD
BRANCH  28  30
ATOM     30  C24 <0> d           0.011   1.527   0.027  0.00  0.00     0.155 C 
BRANCH  30  31
ATOM     31  C25 <0> d           0.069  -0.002   0.040  0.00  0.00     0.139 C 
ATOM     32  O2  <0> d          -1.253  -0.540  -0.082  0.00  0.00    -0.384 OA
ATOM     33  C28 <0> d          -1.359  -1.313  -1.288  0.00  0.00     0.168 C 
ATOM     34  C27 <0> d           0.089  -1.759  -1.611  0.00  0.00     0.029 C 
ATOM     35  C26 <0> d           0.890  -0.505  -1.167  0.00  0.00     0.035 C 
ENDBRANCH  30  31
ENDBRANCH  28  30
ENDBRANCH  11  26
TORSDOF 7
