REMARK  5 active torsions:
REMARK  status: ('A' for Active; 'I' for Inactive)
REMARK    1  A    between atoms: C2_2  and  N3_15 
REMARK    2  A    between atoms: N2_5  and  C5_8 
REMARK    3  A    between atoms: C5_8  and  C6_9 
REMARK    4  A    between atoms: C13_18  and  C16_21 
REMARK    5  A    between atoms: C16_21  and  N4_22 
ROOT
ATOM      1  C1  <0> d          -2.329   1.264   2.917  0.00  0.00     0.101 A 
ATOM      2  C2  <0> d          -1.956   2.477   3.466  0.00  0.00     0.035 A 
ATOM      3  C3  <0> d          -0.929   3.228   2.854  0.00  0.00     0.162 A 
ATOM      4  N1  <0> d          -0.335   2.783   1.783  0.00  0.00    -0.180 NA
ATOM      5  N2  <0> d          -0.698   1.558   1.213  0.00  0.00    -0.233 N 
ATOM      6  C4  <0> d          -1.677   0.812   1.761  0.00  0.00     0.265 A 
ATOM      7  O1  <0> d          -1.992  -0.255   1.256  0.00  0.00    -0.267 OA
ENDROOT
BRANCH   2   8
ATOM      8  N3  <0> d          -2.585   2.951   4.604  0.00  0.00    -0.282 NA
ATOM      9  C15 <0> d          -1.623   3.137   5.697  0.00  0.00     0.096 C 
ATOM     10  C14 <0> d          -2.323   3.796   6.888  0.00  0.00     0.021 C 
ATOM     11  C13 <0> d          -3.481   2.907   7.348  0.00  0.00     0.013 C 
ATOM     12  C12 <0> d          -4.444   2.689   6.177  0.00  0.00     0.021 C 
ATOM     13  C11 <0> d          -3.682   2.062   5.007  0.00  0.00     0.096 C 
BRANCH  11  14
ATOM     14  C16 <0> d          -4.223   3.590   8.499  0.00  0.00     0.234 C 
BRANCH  14  15
ATOM     15  N4  <0> d          -5.258   2.686   9.019  0.00  0.00    -0.079 N 
ATOM     16  H25 <0> d          -5.791   3.176   9.847  0.00  0.00     0.274 HD
ATOM     17  H26 <0> d          -4.787   1.761   9.383  0.00  0.00     0.274 HD
ATOM     18  H27 <0> d          -5.970   2.443   8.217  0.00  0.00     0.274 HD
ENDBRANCH  14  15
ENDBRANCH  11  14
ENDBRANCH   2   8
BRANCH   5  19
ATOM     19  C5  <0> d          -0.013   1.086   0.008  0.00  0.00     0.186 C 
BRANCH  19  20
ATOM     20  C6  <0> d          -0.753   1.593  -1.232  0.00  0.00     0.141 C 
ATOM     21  O2  <0> d          -2.093   1.098  -1.222  0.00  0.00    -0.384 OA
ATOM     22  C10 <0> d          -2.885   1.535  -2.328  0.00  0.00     0.168 C 
ATOM     23  C9  <0> d          -2.255   1.038  -3.632  0.00  0.00     0.026 C 
ATOM     24  C8  <0> d          -0.817   1.558  -3.726  0.00  0.00     0.005 C 
ATOM     25  C7  <0> d          -0.037   1.098  -2.491  0.00  0.00     0.034 C 
ENDBRANCH  19  20
ENDBRANCH   5  19
TORSDOF 5
