REMARK  5 active torsions:
REMARK  status: ('A' for Active; 'I' for Inactive)
REMARK    1  A    between atoms: C2_2  and  C3_3 
REMARK    2  A    between atoms: C2_2  and  N2_15 
REMARK    3  A    between atoms: C7_7  and  S1_9 
REMARK    4  A    between atoms: S1_9  and  N1_12 
REMARK       I    between atoms: N2_15  and  C11_16 
REMARK    5  A    between atoms: C11_16  and  C12_18 
ROOT
ATOM      1  C1  <0> d          -0.019   1.526   0.010  0.00  0.00     0.037 C 
ATOM      2  C2  <0> d           0.002  -0.004   0.002  0.00  0.00     0.114 C 
ENDROOT
BRANCH   2   3
ATOM      3  C3  <0> d           0.707  -0.490  -1.238  0.00  0.00    -0.034 A 
ATOM      4  C8  <0> d          -0.027  -0.920  -2.327  0.00  0.00     0.034 A 
ATOM      5  C7  <0> d           0.620  -1.362  -3.466  0.00  0.00     0.080 A 
ATOM      6  C6  <0> d           2.002  -1.382  -3.512  0.00  0.00     0.025 A 
ATOM      7  C5  <0> d           2.736  -0.957  -2.421  0.00  0.00     0.002 A 
ATOM      8  C4  <0> d           2.089  -0.511  -1.284  0.00  0.00     0.009 A 
BRANCH   5   9
ATOM      9  S1  <0> d          -0.316  -1.904  -4.857  0.00  0.00     0.260 S 
ATOM     10  O1  <0> d          -1.586  -1.274  -4.762  0.00  0.00    -0.200 OA
ATOM     11  O2  <0> d           0.524  -1.758  -5.994  0.00  0.00    -0.200 OA
BRANCH   9  12
ATOM     12  N1  <0> d          -0.578  -3.528  -4.668  0.00  0.00    -0.315 N 
ATOM     13  C9  <0> d          -1.768  -4.000  -3.957  0.00  0.00     0.162 C 
ATOM     14  C10 <0> d           0.381  -4.493  -5.212  0.00  0.00     0.162 C 
ENDBRANCH   9  12
ENDBRANCH   5   9
ENDBRANCH   2   3
BRANCH   2  15
ATOM     15  N2  <0> d           0.711  -0.489   1.189  0.00  0.00    -0.349 N 
ATOM     16  C11 <0> d           0.051  -0.633   2.355  0.00  0.00     0.252 C 
ATOM     17  O3  <0> d          -1.131  -0.361   2.423  0.00  0.00    -0.268 OA
ATOM     18  H15 <0> d           1.654  -0.707   1.135  0.00  0.00     0.163 HD
BRANCH  16  19
ATOM     19  C12 <0> d           0.767  -1.124   3.554  0.00  0.00     0.034 A 
ATOM     20  C16 <0> d           0.101  -1.280   4.775  0.00  0.00     0.037 A 
ATOM     21  C15 <0> d           0.806  -1.746   5.867  0.00  0.00     0.126 A 
ATOM     22  N3  <0> d           2.091  -2.031   5.772  0.00  0.00    -0.211 N 
ATOM     23  C14 <0> d           2.758  -1.892   4.642  0.00  0.00     0.126 A 
ATOM     24  O4  <0> d           2.776  -2.501   6.919  0.00  0.00    -0.082 OA
ATOM     25  C13 <0> d           2.129  -1.438   3.500  0.00  0.00     0.037 A 
ENDBRANCH  16  19
ENDBRANCH   2  15
TORSDOF 5
