REMARK  3 active torsions:
REMARK  status: ('A' for Active; 'I' for Inactive)
REMARK    1  A    between atoms: N2_7  and  C5_10 
REMARK    2  A    between atoms: C5_10  and  C6_11 
REMARK    3  A    between atoms: C8_13  and  N3_21 
ROOT
ATOM      1  C6  <0> d          -0.389   4.079   4.756  0.00  0.00    -0.003 A 
ATOM      2  C7  <0> d           0.926   4.498   4.814  0.00  0.00     0.040 A 
ATOM      3  C8  <0> d           1.219   5.854   4.873  0.00  0.00     0.026 A 
ATOM      4  C9  <0> d           0.190   6.786   4.886  0.00  0.00     0.041 A 
ATOM      5  C10 <0> d          -1.125   6.364   4.835  0.00  0.00     0.002 A 
ATOM      6  C11 <0> d          -1.417   5.011   4.768  0.00  0.00     0.088 A 
ATOM      7  O4  <0> d          -2.708   4.585   4.707  0.00  0.00    -0.325 OA
ATOM      8  C12 <0> d          -3.718   5.526   5.082  0.00  0.00     0.345 C 
ATOM      9  O5  <0> d          -3.452   6.769   4.421  0.00  0.00    -0.362 OA
ATOM     10  C13 <0> d          -2.236   7.385   4.856  0.00  0.00     0.212 C 
ENDROOT
BRANCH   1  11
ATOM     11  C5  <0> d          -0.707   2.608   4.688  0.00  0.00     0.178 C 
BRANCH  11  12
ATOM     12  N2  <0> d          -1.008   2.238   3.302  0.00  0.00    -0.257 N 
ATOM     13  C3  <0> d          -2.232   2.262   2.732  0.00  0.00     0.320 A 
ATOM     14  C2  <0> d          -2.022   1.807   1.318  0.00  0.00     0.319 A 
ATOM     15  O2  <0> d          -3.279   2.586   3.251  0.00  0.00    -0.262 OA
ATOM     16  N1  <0> d          -0.698   1.558   1.213  0.00  0.00    -0.266 N 
ATOM     17  O1  <0> d          -2.863   1.687   0.452  0.00  0.00    -0.262 OA
ATOM     18  C1  <0> d          -0.013   1.086   0.008  0.00  0.00     0.165 C 
ATOM     19  C4  <0> d          -0.113   1.820   2.393  0.00  0.00     0.334 A 
ATOM     20  O3  <0> d           1.076   1.695   2.610  0.00  0.00    -0.246 OA
ENDBRANCH  11  12
ENDBRANCH   1  11
BRANCH   3  21
ATOM     21  N3  <0> d           2.551   6.281   4.925  0.00  0.00    -0.399 N 
ATOM     22  H12 <0> d           2.783   7.355   4.971  0.00  0.00     0.156 HD
ATOM     23  H13 <0> d           3.366   5.542   4.919  0.00  0.00     0.156 HD
ENDBRANCH   3  21
TORSDOF 3
