REMARK  5 active torsions:
REMARK  status: ('A' for Active; 'I' for Inactive)
REMARK    1  A    between atoms: C10_14  and  C11_15 
REMARK       I    between atoms: C11_15  and  N3_17 
REMARK    2  A    between atoms: N3_17  and  C12_18 
REMARK    3  A    between atoms: C12_18  and  C13_19 
REMARK    4  A    between atoms: C13_19  and  C14_20 
REMARK    5  A    between atoms: C14_20  and  N4_21 
ROOT
ATOM      1  C11 <0> d           0.030  -0.168   2.547  0.00  0.00     0.259 C 
ATOM      2  O2  <0> d           0.017   1.034   2.738  0.00  0.00    -0.267 OA
ATOM      3  N3  <0> d           0.052  -1.016   3.595  0.00  0.00    -0.356 N 
ATOM      4  H10 <0> d           0.063  -1.974   3.443  0.00  0.00     0.162 HD
ENDROOT
BRANCH   1   5
ATOM      5  C10 <0> d           0.023  -0.694   1.179  0.00  0.00     0.081 A 
ATOM      6  C2  <0> d           0.002  -0.004   0.002  0.00  0.00    -0.021 A 
ATOM      7  C1  <0> d          -0.018   1.503   0.010  0.00  0.00     0.051 C 
ATOM      8  C3  <0> d           0.005  -0.697  -1.211  0.00  0.00     0.075 A 
ATOM      9  C6  <0> d          -0.009  -0.171  -2.592  0.00  0.00     0.262 A 
ATOM     10  C4  <0> d           0.024  -2.107  -1.113  0.00  0.00     0.116 A 
ATOM     11  N2  <0> d          -0.008  -1.045  -3.625  0.00  0.00    -0.301 N 
ATOM     12  O1  <0> d          -0.022   1.030  -2.796  0.00  0.00    -0.267 OA
ATOM     13  C5  <0> d           0.014  -2.384  -3.404  0.00  0.00     0.110 A 
ATOM     14  C7  <0> d          -0.029  -0.753  -5.071  0.00  0.00     0.134 C 
ATOM     15  N1  <0> d           0.028  -2.878  -2.190  0.00  0.00    -0.227 NA
ATOM     16  C9  <0> d           0.018  -3.124  -4.730  0.00  0.00     0.080 C 
ATOM     17  C8  <0> d           0.428  -2.053  -5.764  0.00  0.00     0.028 C 
ATOM     18  S1  <0> d           0.038  -2.395   0.638  0.00  0.00    -0.063 SA
ENDBRANCH   1   5
BRANCH   3  19
ATOM     19  C12 <0> d           0.060  -0.491   4.962  0.00  0.00     0.124 C 
BRANCH  19  20
ATOM     20  C13 <0> d           0.085  -1.655   5.955  0.00  0.00     0.047 C 
BRANCH  20  21
ATOM     21  C14 <0> d           0.093  -1.106   7.384  0.00  0.00     0.236 C 
BRANCH  21  22
ATOM     22  N4  <0> d           0.117  -2.224   8.337  0.00  0.00    -0.071 N 
ATOM     23  C19 <0> d           0.245  -1.698   9.702  0.00  0.00     0.235 C 
ATOM     24  C18 <0> d           0.352  -2.860  10.692  0.00  0.00     0.032 C 
ATOM     25  C17 <0> d          -0.907  -3.725  10.593  0.00  0.00    -0.015 C 
ATOM     26  C16 <0> d          -1.071  -4.207   9.149  0.00  0.00     0.032 C 
ATOM     27  C20 <0> d          -0.772  -4.933  11.523  0.00  0.00     0.010 C 
ATOM     28  C15 <0> d          -1.125  -2.996   8.215  0.00  0.00     0.235 C 
ATOM     29  H29 <0> d           0.903  -2.822   8.133  0.00  0.00     0.279 HD
ENDBRANCH  21  22
ENDBRANCH  20  21
ENDBRANCH  19  20
ENDBRANCH   3  19
TORSDOF 5
