REMARK  3 active torsions:
REMARK  status: ('A' for Active; 'I' for Inactive)
REMARK    1  A    between atoms: C4_4  and  C7_8 
REMARK    2  A    between atoms: C7_8  and  C8_9 
REMARK    3  A    between atoms: C7_8  and  N2_20 
ROOT
ATOM      1  C8  <0> d          -1.618  -3.865  -1.426  0.00  0.00    -0.001 A 
ATOM      2  C9  <0> d          -2.692  -3.418  -2.176  0.00  0.00     0.021 A 
ATOM      3  C10 <0> d          -2.856  -3.857  -3.470  0.00  0.00    -0.022 A 
ATOM      4  C11 <0> d          -1.954  -4.748  -4.040  0.00  0.00     0.043 A 
ATOM      5  C12 <0> d          -0.875  -5.194  -3.279  0.00  0.00     0.054 A 
ATOM      6  C13 <0> d          -0.709  -4.747  -1.983  0.00  0.00     0.044 A 
ATOM      7 Cl1  <0> d           0.642  -5.302  -1.045  0.00  0.00    -0.084 Cl
ATOM      8  N1  <0> d          -2.329  -5.043  -5.351  0.00  0.00    -0.326 N 
ATOM      9  C14 <0> d          -3.449  -4.397  -5.716  0.00  0.00     0.226 A 
ATOM     10  O2  <0> d          -4.000  -4.465  -6.795  0.00  0.00    -0.273 OA
ATOM     11  C15 <0> d          -3.894  -3.569  -4.530  0.00  0.00     0.144 A 
ATOM     12  H11 <0> d          -1.837  -5.644  -5.932  0.00  0.00     0.169 HD
ENDROOT
BRANCH   1  13
ATOM     13  C7  <0> d          -1.435  -3.386  -0.009  0.00  0.00     0.255 C 
BRANCH  13  14
ATOM     14  C4  <0> d          -0.531  -2.180   0.002  0.00  0.00     0.009 A 
ATOM     15  C3  <0> d          -0.192  -1.372  -1.107  0.00  0.00     0.044 A 
ATOM     16  C2  <0> d           0.633  -0.412  -0.652  0.00  0.00     0.050 A 
ATOM     17  C1  <0> d           1.253   0.683  -1.482  0.00  0.00     0.076 C 
ATOM     18  O1  <0> d           0.815  -0.598   0.665  0.00  0.00    -0.320 OA
ATOM     19  C5  <0> d           0.107  -1.666   1.068  0.00  0.00     0.058 A 
ATOM     20  C6  <0> d           0.042  -2.200   2.476  0.00  0.00     0.077 C 
ENDBRANCH  13  14
BRANCH  13  21
ATOM     21  N2  <0> d          -2.741  -3.025   0.558  0.00  0.00    -0.067 N 
ATOM     22  C16 <0> d          -3.581  -4.226   0.659  0.00  0.00     0.268 C 
ATOM     23  H14 <0> d          -2.611  -2.627   1.477  0.00  0.00     0.277 HD
ATOM     24  H18 <0> d          -3.192  -2.348  -0.040  0.00  0.00     0.277 HD
ENDBRANCH  13  21
ENDBRANCH   1  13
TORSDOF 3
