REMARK  5 active torsions:
REMARK  status: ('A' for Active; 'I' for Inactive)
REMARK    1  A    between atoms: C5_5  and  C8_8 
REMARK       I    between atoms: C8_8  and  N1_10 
REMARK    2  A    between atoms: N1_10  and  C9_11 
REMARK    3  A    between atoms: N3_16  and  C12_17 
REMARK    4  A    between atoms: N5_25  and  C19_26 
REMARK    5  A    between atoms: C19_26  and  C20_27 
ROOT
ATOM      1  C9  <0> d           1.149   1.571   0.030  0.00  0.00     0.150 A 
ATOM      2  C10 <0> d           1.242   2.968   0.061  0.00  0.00     0.077 A 
ATOM      3  C11 <0> d           2.555   3.300   0.079  0.00  0.00     0.026 A 
ATOM      4  N2  <0> d           3.275   2.158   0.051  0.00  0.00    -0.282 N 
ATOM      5  H1  <0> d           4.243   2.095   0.052  0.00  0.00     0.188 HD
ATOM      6  N3  <0> d           2.380   1.081   0.021  0.00  0.00    -0.067 N 
ATOM      7  C26 <0> d           3.115   4.699   0.116  0.00  0.00     0.070 C 
ENDROOT
BRANCH   6   8
ATOM      8  C12 <0> d           2.716  -0.239  -0.013  0.00  0.00     0.731 A 
ATOM      9  N5  <0> d           3.991  -0.726  -0.142  0.00  0.00    -0.173 N 
ATOM     10  C18 <0> d           3.904  -2.107  -0.133  0.00  0.00     0.081 A 
ATOM     11  C13 <0> d           2.539  -2.414   0.006  0.00  0.00     0.103 A 
ATOM     12  C17 <0> d           4.838  -3.128  -0.227  0.00  0.00     0.032 A 
ATOM     13  N4  <0> d           1.868  -1.238   0.078  0.00  0.00    -0.060 NA
ATOM     14  C14 <0> d           2.137  -3.753   0.047  0.00  0.00     0.034 A 
ATOM     15  C15 <0> d           3.078  -4.753  -0.048  0.00  0.00     0.002 A 
ATOM     16  C16 <0> d           4.423  -4.443  -0.184  0.00  0.00     0.002 A 
BRANCH   9  17
ATOM     17  C19 <0> d           5.216   0.068  -0.267  0.00  0.00     0.186 C 
BRANCH  17  18
ATOM     18  C20 <0> d           5.445   0.414  -1.716  0.00  0.00    -0.039 A 
ATOM     19  C25 <0> d           5.034   1.639  -2.207  0.00  0.00     0.009 A 
ATOM     20  C24 <0> d           5.244   1.956  -3.536  0.00  0.00     0.001 A 
ATOM     21  C23 <0> d           5.866   1.049  -4.373  0.00  0.00     0.000 A 
ATOM     22  C22 <0> d           6.277  -0.176  -3.882  0.00  0.00     0.001 A 
ATOM     23  C21 <0> d           6.072  -0.491  -2.552  0.00  0.00     0.009 A 
ENDBRANCH  17  18
ENDBRANCH   9  17
ENDBRANCH   6   8
BRANCH   1  24
ATOM     24  N1  <0> d          -0.031   0.828   0.007  0.00  0.00    -0.307 N 
ATOM     25  C8  <0> d          -1.223   1.455   0.015  0.00  0.00     0.257 C 
ATOM     26  O1  <0> d          -1.271   2.670   0.046  0.00  0.00    -0.267 OA
ATOM     27  H9  <0> d           0.007  -0.141  -0.018  0.00  0.00     0.170 HD
BRANCH  25  28
ATOM     28  C5  <0> d          -2.474   0.667  -0.016  0.00  0.00     0.032 A 
ATOM     29  C4  <0> d          -3.710   1.314  -0.008  0.00  0.00     0.017 A 
ATOM     30  C3  <0> d          -4.873   0.573  -0.037  0.00  0.00     0.007 A 
ATOM     31  C2  <0> d          -4.816  -0.809  -0.074  0.00  0.00    -0.062 A 
ATOM     32  C1  <0> d          -6.090  -1.613  -0.105  0.00  0.00     0.048 C 
ATOM     33  C7  <0> d          -3.593  -1.457  -0.082  0.00  0.00     0.007 A 
ATOM     34  C6  <0> d          -2.422  -0.727  -0.058  0.00  0.00     0.017 A 
ENDBRANCH  25  28
ENDBRANCH   1  24
TORSDOF 5
