REMARK  7 active torsions:
REMARK  status: ('A' for Active; 'I' for Inactive)
REMARK    1  A    between atoms: C6_6  and  C7_7 
REMARK    2  A    between atoms: C7_7  and  N1_8 
REMARK    3  A    between atoms: C11_12  and  C13_15 
REMARK    4  A    between atoms: C11_12  and  O2_23 
REMARK    5  A    between atoms: C13_15  and  N2_26 
REMARK    6  A    between atoms: C14_16  and  C15_17 
REMARK    7  A    between atoms: C14_16  and  N2_26 
ROOT
ATOM      1  N1  <0> d          -2.993   4.113  -1.330  0.00  0.00    -0.345 N 
ATOM      2  C8  <0> d          -2.575   5.355  -1.969  0.00  0.00     0.126 C 
ATOM      3  C9  <0> d          -3.466   5.668  -3.169  0.00  0.00     0.023 C 
ATOM      4  C10 <0> d          -3.550   4.423  -4.061  0.00  0.00     0.051 C 
ATOM      5  C11 <0> d          -4.314   3.335  -3.303  0.00  0.00     0.162 C 
ATOM      6  C12 <0> d          -3.755   3.189  -1.917  0.00  0.00     0.256 C 
ATOM      7  O1  <0> d          -4.009   2.178  -1.298  0.00  0.00    -0.270 OA
ENDROOT
BRANCH   5   8
ATOM      8  C13 <0> d          -4.177   2.005  -4.048  0.00  0.00     0.280 C 
BRANCH   8   9
ATOM      9  N2  <0> d          -4.923   0.963  -3.317  0.00  0.00    -0.068 N 
ATOM     10  H20 <0> d          -5.913   1.231  -3.262  0.00  0.00     0.277 HD
ATOM     11  H21 <0> d          -4.539   0.873  -2.370  0.00  0.00     0.277 HD
BRANCH   9  12
ATOM     12  C14 <0> d          -4.809  -0.332  -4.014  0.00  0.00     0.278 C 
BRANCH  12  13
ATOM     13  C15 <0> d          -5.580  -1.375  -3.247  0.00  0.00     0.009 A 
ATOM     14  S1  <0> d          -5.019  -2.450  -1.937  0.00  0.00    -0.081 SA
ATOM     15  C18 <0> d          -6.553  -3.314  -1.645  0.00  0.00     0.075 A 
ATOM     16  C17 <0> d          -7.378  -2.735  -2.553  0.00  0.00     0.032 A 
ATOM     17 Cl1  <0> d          -6.899  -4.570  -0.497  0.00  0.00    -0.076 Cl
ATOM     18  C16 <0> d          -6.880  -1.737  -3.369  0.00  0.00     0.018 A 
ENDBRANCH  12  13
ENDBRANCH   9  12
ENDBRANCH   8   9
ENDBRANCH   5   8
BRANCH   5  19
ATOM     19  O2  <0> d          -5.694   3.694  -3.222  0.00  0.00    -0.378 OA
ATOM     20  H19 <0> d          -6.243   3.046  -2.759  0.00  0.00     0.211 HD
ENDBRANCH   5  19
BRANCH   1  21
ATOM     21  C7  <0> d          -2.553   3.868   0.046  0.00  0.00     0.164 C 
BRANCH  21  22
ATOM     22  C6  <0> d          -1.238   3.133   0.030  0.00  0.00    -0.040 A 
ATOM     23  C1  <0> d          -1.218   1.751   0.017  0.00  0.00     0.012 A 
ATOM     24  C2  <0> d          -0.013   1.076   0.008  0.00  0.00     0.043 A 
ATOM     25  C3  <0> d           1.177   1.785   0.000  0.00  0.00     0.116 A 
ATOM     26  C4  <0> d           1.157   3.169   0.008  0.00  0.00     0.043 A 
ATOM     27  F1  <0> d           2.356   1.126  -0.013  0.00  0.00    -0.206 F 
ATOM     28  C5  <0> d          -0.051   3.842   0.022  0.00  0.00     0.012 A 
ENDBRANCH  21  22
ENDBRANCH   1  21
TORSDOF 7
