REMARK  5 active torsions:
REMARK  status: ('A' for Active; 'I' for Inactive)
REMARK    1  A    between atoms: C4_4  and  C7_7 
REMARK    2  A    between atoms: C7_7  and  C8_8 
REMARK    3  A    between atoms: C11_11  and  C13_15 
REMARK       I    between atoms: C13_15  and  N2_17 
REMARK    4  A    between atoms: N2_17  and  C14_18 
REMARK    5  A    between atoms: C17_21  and  N3_24 
ROOT
ATOM      1  C8  <0> d           3.323   3.369  -1.061  0.00  0.00     0.091 C 
ATOM      2  C9  <0> d           3.499   1.996  -0.416  0.00  0.00     0.071 C 
ATOM      3  C10 <0> d           2.186   1.257  -0.414  0.00  0.00     0.154 C 
ATOM      4  C11 <0> d           1.022   1.956  -0.246  0.00  0.00     0.211 C 
ATOM      5  C12 <0> d           1.089   3.417  -0.081  0.00  0.00     0.234 C 
ATOM      6  O1  <0> d           0.148   4.024   0.395  0.00  0.00    -0.273 OA
ATOM      7  N1  <0> d           2.199   4.080  -0.454  0.00  0.00    -0.355 N 
ATOM      8  O3  <0> d           2.158  -0.075  -0.575  0.00  0.00    -0.224 OA
ATOM      9  H11 <0> d           2.256   5.167  -0.298  0.00  0.00     0.162 HD
ENDROOT
BRANCH   4  10
ATOM     10  C13 <0> d          -0.272   1.261  -0.236  0.00  0.00     0.238 C 
ATOM     11  O2  <0> d          -0.310   0.045  -0.254  0.00  0.00    -0.272 OA
ATOM     12  N2  <0> d          -1.418   1.970  -0.213  0.00  0.00    -0.326 N 
ATOM     13  H12 <0> d          -1.387   3.068  -0.280  0.00  0.00     0.169 HD
BRANCH  12  14
ATOM     14  C14 <0> d          -2.648   1.310  -0.105  0.00  0.00     0.034 A 
ATOM     15  C19 <0> d          -2.762   0.181   0.695  0.00  0.00     0.032 A 
ATOM     16  C18 <0> d          -3.975  -0.469   0.802  0.00  0.00     0.032 A 
ATOM     17  C17 <0> d          -5.080   0.005   0.109  0.00  0.00     0.039 A 
ATOM     18  C16 <0> d          -4.967   1.134  -0.690  0.00  0.00     0.032 A 
ATOM     19  C15 <0> d          -3.756   1.788  -0.793  0.00  0.00     0.032 A 
BRANCH  17  20
ATOM     20  N3  <0> d          -6.313  -0.657   0.218  0.00  0.00    -0.315 N 
ATOM     21  C22 <0> d          -6.572  -1.765   0.958  0.00  0.00     0.214 A 
ATOM     22  N4  <0> d          -7.829  -2.084   0.805  0.00  0.00    -0.254 NA
ATOM     23  C21 <0> d          -8.411  -1.206  -0.025  0.00  0.00     0.135 A 
ATOM     24  C20 <0> d          -7.485  -0.303  -0.399  0.00  0.00     0.117 A 
ENDBRANCH  17  20
ENDBRANCH  12  14
ENDBRANCH   4  10
BRANCH   1  25
ATOM     25  C7  <0> d           4.602   4.186  -0.868  0.00  0.00     0.063 C 
BRANCH  25  26
ATOM     26  C4  <0> d           4.480   5.494  -1.607  0.00  0.00    -0.056 A 
ATOM     27  C3  <0> d           3.951   6.601  -0.970  0.00  0.00     0.007 A 
ATOM     28  C2  <0> d           3.839   7.800  -1.649  0.00  0.00     0.001 A 
ATOM     29  C1  <0> d           4.255   7.892  -2.964  0.00  0.00     0.000 A 
ATOM     30  C6  <0> d           4.785   6.785  -3.600  0.00  0.00     0.001 A 
ATOM     31  C5  <0> d           4.901   5.587  -2.920  0.00  0.00     0.007 A 
ENDBRANCH  25  26
ENDBRANCH   1  25
TORSDOF 5
