REMARK  8 active torsions:
REMARK  status: ('A' for Active; 'I' for Inactive)
REMARK    1  A    between atoms: C5_5  and  C6_7 
REMARK    2  A    between atoms: N1_10  and  C9_14 
REMARK    3  A    between atoms: C9_14  and  C10_15 
REMARK       I    between atoms: C10_15  and  N3_17 
REMARK    4  A    between atoms: N3_17  and  C11_18 
REMARK    5  A    between atoms: N3_17  and  C14_23 
REMARK    6  A    between atoms: C11_18  and  C12_19 
REMARK    7  A    between atoms: C12_19  and  C13_20 
REMARK       I    between atoms: C13_20  and  N4_22 
REMARK    8  A    between atoms: C14_23  and  C15_24 
ROOT
ATOM      1  C10 <0> d           5.087  -4.785  -2.429  0.00  0.00     0.238 C 
ATOM      2  O4  <0> d           5.016  -5.343  -1.355  0.00  0.00    -0.272 OA
ATOM      3  N3  <0> d           6.156  -4.988  -3.225  0.00  0.00    -0.346 N 
ENDROOT
BRANCH   1   4
ATOM      4  C9  <0> d           3.981  -3.864  -2.875  0.00  0.00     0.239 C 
BRANCH   4   5
ATOM      5  N1  <0> d           2.943  -3.812  -1.843  0.00  0.00    -0.259 N 
ATOM      6  C7  <0> d           2.928  -2.926  -0.828  0.00  0.00     0.263 A 
ATOM      7  C6  <0> d           1.684  -3.245  -0.023  0.00  0.00     0.161 A 
ATOM      8  O2  <0> d           3.741  -2.054  -0.605  0.00  0.00    -0.270 OA
ATOM      9  N2  <0> d           1.086  -4.381  -0.745  0.00  0.00    -0.319 N 
ATOM     10  C21 <0> d           2.053  -3.650   1.406  0.00  0.00     0.057 C 
ATOM     11  C8  <0> d           1.892  -4.639  -1.791  0.00  0.00     0.326 A 
ATOM     12  H6  <0> d           0.271  -4.852  -0.512  0.00  0.00     0.166 HD
ATOM     13  O3  <0> d           1.688  -5.524  -2.599  0.00  0.00    -0.247 OA
BRANCH   7  14
ATOM     14  C5  <0> d           0.742  -2.069  -0.013  0.00  0.00     0.090 A 
ATOM     15  C4  <0> d          -0.601  -2.136  -0.007  0.00  0.00     0.038 A 
ATOM     16  C3  <0> d          -1.078  -0.805   0.003  0.00  0.00     0.035 A 
ATOM     17  C2  <0> d           0.002  -0.004   0.002  0.00  0.00     0.049 A 
ATOM     18  C1  <0> d          -0.018   1.503   0.010  0.00  0.00     0.076 C 
ATOM     19  O1  <0> d           1.102  -0.775  -0.013  0.00  0.00    -0.317 OA
ENDBRANCH   7  14
ENDBRANCH   4   5
ENDBRANCH   1   4
BRANCH   3  20
ATOM     20  C11 <0> d           6.242  -4.314  -4.523  0.00  0.00     0.135 C 
BRANCH  20  21
ATOM     21  C12 <0> d           6.947  -2.967  -4.352  0.00  0.00     0.122 C 
BRANCH  21  22
ATOM     22  C13 <0> d           7.036  -2.274  -5.687  0.00  0.00     0.216 C 
ATOM     23  O5  <0> d           6.580  -2.805  -6.678  0.00  0.00    -0.274 OA
ATOM     24  N4  <0> d           7.621  -1.064  -5.780  0.00  0.00    -0.370 N 
ATOM     25  H13 <0> d           7.986  -0.639  -4.988  0.00  0.00     0.159 HD
ATOM     26  H14 <0> d           7.678  -0.617  -6.640  0.00  0.00     0.159 HD
ENDBRANCH  21  22
ENDBRANCH  20  21
ENDBRANCH   3  20
BRANCH   3  27
ATOM     27  C14 <0> d           7.232  -5.883  -2.791  0.00  0.00     0.164 C 
BRANCH  27  28
ATOM     28  C15 <0> d           6.936  -7.286  -3.256  0.00  0.00    -0.040 A 
ATOM     29  C20 <0> d           7.389  -7.716  -4.489  0.00  0.00     0.009 A 
ATOM     30  C19 <0> d           7.121  -9.004  -4.913  0.00  0.00     0.001 A 
ATOM     31  C18 <0> d           6.393  -9.860  -4.108  0.00  0.00     0.000 A 
ATOM     32  C17 <0> d           5.935  -9.428  -2.877  0.00  0.00     0.001 A 
ATOM     33  C16 <0> d           6.207  -8.141  -2.451  0.00  0.00     0.009 A 
ENDBRANCH  27  28
ENDBRANCH   3  27
TORSDOF 8
