REMARK  4 active torsions:
REMARK  status: ('A' for Active; 'I' for Inactive)
REMARK    1  A    between atoms: C2_2  and  C4_4 
REMARK    2  A    between atoms: C4_4  and  N1_5 
REMARK    3  A    between atoms: C8_10  and  N3_11 
REMARK    4  A    between atoms: C9_12  and  C18_23 
ROOT
ATOM      1  N1  <0> d          -1.416  -1.993  -0.116  0.00  0.00    -0.327 N 
ATOM      2  C5  <0> d          -1.548  -2.543  -1.305  0.00  0.00     0.214 A 
ATOM      3  N2  <0> d          -1.540  -3.850  -1.476  0.00  0.00    -0.219 NA
ATOM      4  C6  <0> d          -1.397  -4.671  -0.438  0.00  0.00     0.181 A 
ATOM      5  C7  <0> d          -1.254  -4.132   0.829  0.00  0.00     0.052 A 
ATOM      6  C8  <0> d          -1.262  -2.748   0.971  0.00  0.00     0.113 A 
ATOM      7  C9  <0> d          -1.089  -5.026   2.022  0.00  0.00     0.099 C 
ATOM      8  C10 <0> d          -0.684  -6.414   1.588  0.00  0.00     0.031 C 
ATOM      9  C11 <0> d          -0.861  -6.820   0.317  0.00  0.00     0.067 C 
ATOM     10  O1  <0> d          -1.393  -6.007  -0.616  0.00  0.00    -0.295 OA
ATOM     11  C12 <0> d          -0.470  -8.217  -0.107  0.00  0.00     0.075 C 
ATOM     12  C13 <0> d           0.724  -8.693   0.722  0.00  0.00    -0.035 C 
ATOM     13  C14 <0> d           0.330  -8.659   2.202  0.00  0.00     0.092 C 
ATOM     14  C15 <0> d          -0.117  -7.266   2.555  0.00  0.00     0.159 C 
ATOM     15  O2  <0> d           0.014  -6.870   3.695  0.00  0.00    -0.293 OA
ATOM     16  C16 <0> d           1.918  -7.766   0.485  0.00  0.00     0.015 C 
ATOM     17  C17 <0> d           1.093 -10.122   0.320  0.00  0.00     0.015 C 
ENDROOT
BRANCH   7  18
ATOM     18  C18 <0> d          -2.395  -5.103   2.771  0.00  0.00    -0.045 A 
ATOM     19  C23 <0> d          -2.461  -4.689   4.088  0.00  0.00     0.008 A 
ATOM     20  C22 <0> d          -3.660  -4.756   4.774  0.00  0.00     0.001 A 
ATOM     21  C21 <0> d          -4.789  -5.245   4.146  0.00  0.00     0.000 A 
ATOM     22  C20 <0> d          -4.722  -5.664   2.830  0.00  0.00     0.001 A 
ATOM     23  C19 <0> d          -3.524  -5.593   2.143  0.00  0.00     0.008 A 
ENDBRANCH   7  18
BRANCH   6  24
ATOM     24  N3  <0> d          -1.117  -2.165   2.221  0.00  0.00    -0.385 N 
ATOM     25  H12 <0> d          -1.127  -1.200   2.310  0.00  0.00     0.157 HD
ATOM     26  H28 <0> d          -1.006  -2.724   3.006  0.00  0.00     0.157 HD
ENDBRANCH   6  24
BRANCH   1  27
ATOM     27  C4  <0> d          -1.433  -0.534   0.013  0.00  0.00     0.135 C 
BRANCH  27  28
ATOM     28  C2  <0> d           0.002  -0.004   0.002  0.00  0.00    -0.004 C 
ATOM     29  C1  <0> d          -0.019   1.526   0.010  0.00  0.00     0.011 C 
ATOM     30  C3  <0> d           0.742  -0.511   1.242  0.00  0.00     0.011 C 
ENDBRANCH  27  28
ENDBRANCH   1  27
TORSDOF 4
