REMARK  6 active torsions:
REMARK  status: ('A' for Active; 'I' for Inactive)
REMARK    1  A    between atoms: C2_2  and  C3_3 
REMARK    2  A    between atoms: C3_3  and  C4_4 
REMARK    3  A    between atoms: C3_3  and  N5_19 
REMARK    4  A    between atoms: C4_4  and  C5_5 
REMARK    5  A    between atoms: C4_4  and  S1_12 
REMARK    6  A    between atoms: S1_12  and  C11_13 
ROOT
ATOM      1  C4  <0> d          -1.426  -2.041  -0.248  0.00  0.00     0.118 C 
ENDROOT
BRANCH   1   2
ATOM      2  C3  <0> d          -1.266  -0.564   0.116  0.00  0.00     0.201 C 
BRANCH   2   3
ATOM      3  C2  <0> d           0.211  -0.261   0.380  0.00  0.00     0.030 C 
ATOM      4  C1  <0> d           0.390   1.240   0.612  0.00  0.00     0.007 C 
ENDBRANCH   2   3
BRANCH   2   5
ATOM      5  N5  <0> d          -2.049  -0.269   1.323  0.00  0.00    -0.074 N 
ATOM      6  H15 <0> d          -1.943   0.705   1.564  0.00  0.00     0.274 HD
ATOM      7  H16 <0> d          -3.023  -0.469   1.150  0.00  0.00     0.274 HD
ATOM      8  H17 <0> d          -1.719  -0.842   2.086  0.00  0.00     0.274 HD
ENDBRANCH   2   5
ENDBRANCH   1   2
BRANCH   1   9
ATOM      9  C5  <0> d          -2.888  -2.358  -0.430  0.00  0.00    -0.041 A 
ATOM     10  C10 <0> d          -3.493  -3.311   0.367  0.00  0.00     0.027 A 
ATOM     11  C9  <0> d          -4.837  -3.598   0.203  0.00  0.00     0.011 A 
ATOM     12  C8  <0> d          -5.572  -2.937  -0.764  0.00  0.00     0.019 A 
ATOM     13 Br1  <0> d          -5.667  -4.896   1.299  0.00  0.00    -0.051 Br
ATOM     14  C7  <0> d          -4.964  -1.988  -1.565  0.00  0.00     0.002 A 
ATOM     15  C6  <0> d          -3.623  -1.698  -1.398  0.00  0.00     0.008 A 
ENDBRANCH   1   9
BRANCH   1  16
ATOM     16  S1  <0> d          -0.537  -2.384  -1.792  0.00  0.00    -0.077 SA
BRANCH  16  17
ATOM     17  C11 <0> d          -0.611  -4.137  -1.946  0.00  0.00     0.209 A 
ATOM     18  N4  <0> d          -0.169  -4.872  -2.994  0.00  0.00    -0.230 N 
ATOM     19  N3  <0> d          -0.444  -6.207  -2.651  0.00  0.00    -0.044 NA
ATOM     20  C12 <0> d           0.462  -4.380  -4.222  0.00  0.00     0.184 C 
ATOM     21  N2  <0> d          -1.008  -6.186  -1.492  0.00  0.00    -0.022 NA
ATOM     22  N1  <0> d          -1.112  -4.979  -1.068  0.00  0.00    -0.102 NA
ENDBRANCH  16  17
ENDBRANCH   1  16
TORSDOF 6
