REMARK  4 active torsions:
REMARK  status: ('A' for Active; 'I' for Inactive)
REMARK       I    between atoms: C2_2  and  N1_4 
REMARK    1  A    between atoms: N1_4  and  C3_5 
REMARK    2  A    between atoms: N1_4  and  C9_11 
REMARK    3  A    between atoms: C10_13  and  C12_16 
REMARK    4  A    between atoms: C12_16  and  N3_17 
ROOT
ATOM      1  C9  <0> d          -1.038   0.029  -2.126  0.00  0.00     0.180 A 
ATOM      2  N2  <0> d          -1.214   1.327  -2.245  0.00  0.00    -0.226 NA
ATOM      3  C10 <0> d          -1.750   1.846  -3.334  0.00  0.00     0.062 A 
ATOM      4  C11 <0> d          -2.108   0.982  -4.316  0.00  0.00     0.082 A 
ATOM      5  S1  <0> d          -1.626  -0.573  -3.584  0.00  0.00    -0.061 SA
ENDROOT
BRANCH   3   6
ATOM      6  C12 <0> d          -1.955   3.332  -3.479  0.00  0.00     0.196 C 
BRANCH   6   7
ATOM      7  N3  <0> d          -3.226   3.712  -2.857  0.00  0.00    -0.262 N 
ATOM      8  C15 <0> d          -3.356   4.073  -1.575  0.00  0.00     0.326 A 
ATOM      9  N4  <0> d          -4.627   4.377  -1.254  0.00  0.00    -0.325 N 
ATOM     10  O3  <0> d          -2.430   4.123  -0.790  0.00  0.00    -0.247 OA
ATOM     11  C14 <0> d          -5.428   4.183  -2.474  0.00  0.00     0.108 A 
ATOM     12  H12 <0> d          -4.952   4.665  -0.386  0.00  0.00     0.165 HD
ATOM     13  C13 <0> d          -4.408   3.736  -3.503  0.00  0.00     0.255 A 
ATOM     14  C16 <0> d          -6.084   5.498  -2.902  0.00  0.00     0.049 C 
ATOM     15  C17 <0> d          -6.485   3.098  -2.258  0.00  0.00     0.049 C 
ATOM     16  O2  <0> d          -4.614   3.458  -4.665  0.00  0.00    -0.270 OA
ENDBRANCH   6   7
ENDBRANCH   3   6
BRANCH   1  17
ATOM     17  N1  <0> d          -0.493  -0.675  -1.057  0.00  0.00    -0.261 N 
ATOM     18  C2  <0> d           0.020  -0.009  -0.003  0.00  0.00     0.226 C 
ATOM     19  C1  <0> d           0.723  -0.764   1.095  0.00  0.00     0.118 C 
ATOM     20  O1  <0> d          -0.084   1.197   0.061  0.00  0.00    -0.273 OA
BRANCH  17  21
ATOM     21  C3  <0> d          -0.478  -2.075  -1.075  0.00  0.00     0.044 A 
ATOM     22  C8  <0> d           0.293  -2.751  -2.012  0.00  0.00     0.030 A 
ATOM     23  C7  <0> d           0.310  -4.132  -2.023  0.00  0.00     0.002 A 
ATOM     24  C6  <0> d          -0.448  -4.842  -1.111  0.00  0.00     0.000 A 
ATOM     25  C5  <0> d          -1.222  -4.172  -0.181  0.00  0.00     0.002 A 
ATOM     26  C4  <0> d          -1.239  -2.792  -0.160  0.00  0.00     0.030 A 
ENDBRANCH  17  21
ENDBRANCH   1  17
TORSDOF 4
