REMARK  6 active torsions:
REMARK  status: ('A' for Active; 'I' for Inactive)
REMARK    1  A    between atoms: C3_3  and  O4_30 
REMARK    2  A    between atoms: C6_6  and  N1_7 
REMARK    3  A    between atoms: N2_10  and  C11_13 
REMARK    4  A    between atoms: C11_13  and  C12_14 
REMARK       I    between atoms: C12_14  and  N3_16 
REMARK    5  A    between atoms: N3_16  and  C13_17 
REMARK    6  A    between atoms: N3_16  and  C17_24 
ROOT
ATOM      1  C11 <0> d          -4.006  -4.558   0.601  0.00  0.00     0.337 C 
ENDROOT
BRANCH   1   2
ATOM      2  N2  <0> d          -2.984  -3.691   0.001  0.00  0.00    -0.060 N 
ATOM      3  C8  <0> d          -2.351  -4.390  -1.125  0.00  0.00     0.255 C 
ATOM      4  C7  <0> d          -1.208  -3.533  -1.679  0.00  0.00     0.150 C 
ATOM      5  N1  <0> d          -1.740  -2.203  -2.012  0.00  0.00    -0.378 N 
ATOM      6  C10 <0> d          -2.526  -1.495  -0.989  0.00  0.00     0.150 C 
ATOM      7  C9  <0> d          -3.612  -2.450  -0.470  0.00  0.00     0.255 C 
ATOM      8  H34 <0> d          -2.284  -3.470   0.694  0.00  0.00     0.280 HD
BRANCH   5   9
ATOM      9  C6  <0> d          -1.502  -1.625  -3.264  0.00  0.00     0.030 A 
ATOM     10  C1  <0> d          -2.111  -0.424  -3.602  0.00  0.00     0.032 A 
ATOM     11  C2  <0> d          -1.875   0.145  -4.838  0.00  0.00     0.039 A 
ATOM     12  C3  <0> d          -1.028  -0.481  -5.740  0.00  0.00     0.065 A 
ATOM     13  C4  <0> d          -0.419  -1.681  -5.403  0.00  0.00     0.039 A 
ATOM     14  C5  <0> d          -0.654  -2.252  -4.168  0.00  0.00     0.032 A 
BRANCH  12  15
ATOM     15  O4  <0> d          -0.796   0.080  -6.957  0.00  0.00    -0.361 OA
ATOM     16  H33 <0> d          -0.043   0.686  -6.973  0.00  0.00     0.217 HD
ENDBRANCH  12  15
ENDBRANCH   5   9
ENDBRANCH   1   2
BRANCH   1  17
ATOM     17  C12 <0> d          -4.571  -3.893   1.830  0.00  0.00     0.246 C 
ATOM     18  O1  <0> d          -4.340  -2.723   2.047  0.00  0.00    -0.271 OA
ATOM     19  N3  <0> d          -5.332  -4.600   2.689  0.00  0.00    -0.340 N 
BRANCH  19  20
ATOM     20  C13 <0> d          -6.008  -3.921   3.798  0.00  0.00     0.102 C 
ATOM     21  C16 <0> d          -4.951  -3.296   4.753  0.00  0.00     0.165 C 
ATOM     22  S1  <0> d          -5.987  -2.053   5.634  0.00  0.00     0.146 S 
ATOM     23  C15 <0> d          -7.349  -1.870   4.412  0.00  0.00     0.142 C 
ATOM     24  O2  <0> d          -5.271  -0.828   5.714  0.00  0.00    -0.228 OA
ATOM     25  O3  <0> d          -6.505  -2.638   6.820  0.00  0.00    -0.228 OA
ATOM     26  C14 <0> d          -6.890  -2.787   3.252  0.00  0.00     0.041 C 
ENDBRANCH  19  20
BRANCH  19  27
ATOM     27  C17 <0> d          -5.484  -6.046   2.514  0.00  0.00     0.087 C 
ATOM     28  C22 <0> d          -5.962  -6.340   1.090  0.00  0.00     0.025 C 
ATOM     29  C21 <0> d          -6.121  -7.851   0.907  0.00  0.00     0.002 C 
ATOM     30  C20 <0> d          -4.774  -8.538   1.146  0.00  0.00     0.000 C 
ATOM     31  C19 <0> d          -4.297  -8.244   2.569  0.00  0.00     0.002 C 
ATOM     32  C18 <0> d          -4.138  -6.733   2.752  0.00  0.00     0.025 C 
ENDBRANCH  19  27
ENDBRANCH   1  17
TORSDOF 6
