REMARK  7 active torsions:
REMARK  status: ('A' for Active; 'I' for Inactive)
REMARK    1  A    between atoms: N1_2  and  C2_3 
REMARK       I    between atoms: N1_2  and  C7_10 
REMARK    2  A    between atoms: C2_3  and  C3_4 
REMARK    3  A    between atoms: C7_10  and  C8_12 
REMARK    4  A    between atoms: C8_12  and  C9_13 
REMARK    5  A    between atoms: C9_13  and  S1_14 
REMARK    6  A    between atoms: S1_14  and  C10_15 
REMARK    7  A    between atoms: C10_15  and  C11_16 
REMARK       I    between atoms: C11_16  and  N2_18 
ROOT
ATOM      1  C1  <0> d          -0.018   1.461   0.010  0.00  0.00     0.153 C 
ATOM      2  N1  <0> d           0.002  -0.004   0.002  0.00  0.00    -0.350 N 
ATOM      3  C7  <0> d           0.000  -0.672  -1.169  0.00  0.00     0.220 C 
ATOM      4  O2  <0> d           0.017  -1.884  -1.175  0.00  0.00    -0.273 OA
ENDROOT
BRANCH   3   5
ATOM      5  C8  <0> d          -0.023   0.089  -2.470  0.00  0.00     0.113 C 
BRANCH   5   6
ATOM      6  C9  <0> d          -0.020  -0.899  -3.638  0.00  0.00     0.083 C 
BRANCH   6   7
ATOM      7  S1  <0> d          -0.048   0.016  -5.204  0.00  0.00    -0.159 SA
BRANCH   7   8
ATOM      8  C10 <0> d          -0.042  -1.282  -6.471  0.00  0.00     0.176 C 
BRANCH   8   9
ATOM      9  C11 <0> d          -0.063  -0.649  -7.839  0.00  0.00     0.224 C 
ATOM     10  O3  <0> d          -0.081   0.559  -7.948  0.00  0.00    -0.273 OA
ATOM     11  N2  <0> d          -0.063  -1.425  -8.940  0.00  0.00    -0.369 N 
ATOM     12  H14 <0> d          -0.049  -2.391  -8.853  0.00  0.00     0.159 HD
ATOM     13  H15 <0> d          -0.077  -1.018  -9.821  0.00  0.00     0.159 HD
ENDBRANCH   8   9
ENDBRANCH   7   8
ENDBRANCH   6   7
ENDBRANCH   5   6
ENDBRANCH   3   5
BRANCH   2  14
ATOM     14  C2  <0> d           0.024  -0.743   1.267  0.00  0.00     0.190 C 
BRANCH  14  15
ATOM     15  C3  <0> d          -1.389  -1.016   1.714  0.00  0.00     0.072 A 
ATOM     16  O1  <0> d          -2.133  -0.218   2.497  0.00  0.00    -0.306 OA
ATOM     17  C6  <0> d          -3.340  -0.775   2.686  0.00  0.00     0.121 A 
ATOM     18  C5  <0> d          -3.375  -1.948   2.027  0.00  0.00     0.048 A 
ATOM     19 Br1  <0> d          -4.750  -0.039   3.710  0.00  0.00    -0.023 Br
ATOM     20  C4  <0> d          -2.117  -2.103   1.401  0.00  0.00     0.038 A 
ENDBRANCH  14  15
ENDBRANCH   2  14
TORSDOF 7
