REMARK  6 active torsions:
REMARK  status: ('A' for Active; 'I' for Inactive)
REMARK       I    between atoms: N1_2  and  C3_4 
REMARK    1  A    between atoms: C3_4  and  C4_6 
REMARK    2  A    between atoms: C4_6  and  N2_7 
REMARK    3  A    between atoms: C6_9  and  N4_12 
REMARK       I    between atoms: N4_12  and  C8_13 
REMARK    4  A    between atoms: C8_13  and  C9_15 
REMARK    5  A    between atoms: C9_15  and  N5_16 
REMARK       I    between atoms: N5_16  and  C10_17 
REMARK    6  A    between atoms: C10_17  and  C11_19 
ROOT
ATOM      1  N4  <0> d          -5.258  -4.625  -1.183  0.00  0.00    -0.323 N 
ATOM      2  C8  <0> d          -6.516  -4.749  -0.714  0.00  0.00     0.239 C 
ATOM      3  O2  <0> d          -6.855  -4.140   0.279  0.00  0.00    -0.271 OA
ATOM      4  H11 <0> d          -4.987  -5.112  -1.977  0.00  0.00     0.169 HD
ENDROOT
BRANCH   2   5
ATOM      5  C9  <0> d          -7.500  -5.643  -1.423  0.00  0.00     0.226 C 
BRANCH   5   6
ATOM      6  N5  <0> d          -8.786  -5.606  -0.722  0.00  0.00    -0.348 N 
ATOM      7  C10 <0> d          -9.824  -6.334  -1.179  0.00  0.00     0.252 C 
ATOM      8  O3  <0> d          -9.693  -7.022  -2.173  0.00  0.00    -0.268 OA
ATOM      9  H14 <0> d          -8.890  -5.057   0.071  0.00  0.00     0.163 HD
BRANCH   7  10
ATOM     10  C11 <0> d         -11.122  -6.297  -0.472  0.00  0.00     0.037 A 
ATOM     11  C16 <0> d         -12.198  -7.050  -0.943  0.00  0.00     0.059 A 
ATOM     12  C15 <0> d         -13.407  -7.016  -0.275  0.00  0.00     0.120 A 
ATOM     13  C14 <0> d         -13.555  -6.227   0.855  0.00  0.00     0.084 A 
ATOM     14  F1  <0> d         -14.448  -7.748  -0.726  0.00  0.00    -0.206 F 
ATOM     15  C13 <0> d         -12.492  -5.473   1.323  0.00  0.00     0.120 A 
ATOM     16  C12 <0> d         -11.277  -5.504   0.666  0.00  0.00     0.059 A 
ATOM     17  F2  <0> d         -12.643  -4.706   2.425  0.00  0.00    -0.206 F 
ENDBRANCH   7  10
ENDBRANCH   5   6
ENDBRANCH   2   5
BRANCH   1  18
ATOM     18  C6  <0> d          -4.339  -3.789  -0.521  0.00  0.00     0.071 A 
ATOM     19  C5  <0> d          -3.049  -3.575  -0.884  0.00  0.00     0.144 A 
ATOM     20  N2  <0> d          -2.510  -2.708   0.011  0.00  0.00    -0.270 N 
ATOM     21  N3  <0> d          -3.499  -2.389   0.951  0.00  0.00    -0.182 NA
ATOM     22  C7  <0> d          -4.593  -3.030   0.630  0.00  0.00     0.169 A 
BRANCH  20  23
ATOM     23  C4  <0> d          -1.135  -2.201   0.001  0.00  0.00     0.253 C 
BRANCH  23  24
ATOM     24  C3  <0> d          -1.156  -0.694   0.009  0.00  0.00     0.238 C 
ATOM     25  N1  <0> d           0.002  -0.004   0.002  0.00  0.00    -0.359 N 
ATOM     26  C1  <0> d          -0.018   1.461   0.010  0.00  0.00     0.152 C 
ATOM     27  C2  <0> d           1.281  -0.719  -0.014  0.00  0.00     0.152 C 
ATOM     28  O1  <0> d          -2.214  -0.102   0.023  0.00  0.00    -0.271 OA
ENDBRANCH  23  24
ENDBRANCH  20  23
ENDBRANCH   1  18
TORSDOF 6
