REMARK  4 active torsions:
REMARK  status: ('A' for Active; 'I' for Inactive)
REMARK    1  A    between atoms: C5_5  and  N4_12 
REMARK       I    between atoms: N4_12  and  C9_13 
REMARK       I    between atoms: C9_13  and  N5_15 
REMARK    2  A    between atoms: N5_15  and  C10_16 
REMARK    3  A    between atoms: C10_16  and  C12_18 
REMARK    4  A    between atoms: C12_18  and  N6_19 
ROOT
ATOM      1  N4  <0> d          -0.001  -1.520  -4.802  0.00  0.00    -0.308 N 
ATOM      2  C9  <0> d           0.111  -2.581  -5.625  0.00  0.00     0.321 C 
ATOM      3  O1  <0> d           0.129  -3.707  -5.167  0.00  0.00    -0.247 OA
ATOM      4  N5  <0> d           0.204  -2.393  -6.957  0.00  0.00    -0.337 N 
ATOM      5  H11 <0> d          -0.083  -0.626  -5.170  0.00  0.00     0.170 HD
ATOM      6  H12 <0> d           0.189  -1.495  -7.322  0.00  0.00     0.164 HD
ENDROOT
BRANCH   1   7
ATOM      7  C5  <0> d           0.002  -1.708  -3.412  0.00  0.00     0.054 A 
ATOM      8  C4  <0> d          -0.584  -2.834  -2.857  0.00  0.00     0.048 A 
ATOM      9  C3  <0> d          -0.553  -2.973  -1.465  0.00  0.00     0.040 A 
ATOM     10  C2  <0> d          -1.044  -3.982  -0.533  0.00  0.00     0.065 A 
ATOM     11  C7  <0> d           0.065  -1.976  -0.685  0.00  0.00     0.157 A 
ATOM     12  C1  <0> d          -1.778  -5.247  -0.897  0.00  0.00     0.073 C 
ATOM     13  N3  <0> d          -0.738  -3.591   0.671  0.00  0.00    -0.175 NA
ATOM     14  N2  <0> d          -0.054  -2.372   0.621  0.00  0.00    -0.256 N 
ATOM     15  C8  <0> d           0.450  -1.634   1.782  0.00  0.00     0.182 C 
ATOM     16  N1  <0> d           0.611  -0.917  -1.270  0.00  0.00    -0.239 NA
ATOM     17  C6  <0> d           0.595  -0.763  -2.575  0.00  0.00     0.148 A 
ENDBRANCH   1   7
BRANCH   4  18
ATOM     18  C10 <0> d           0.325  -3.546  -7.852  0.00  0.00     0.107 C 
ATOM     19  C11 <0> d           1.795  -3.958  -7.956  0.00  0.00     0.034 C 
BRANCH  18  20
ATOM     20  C12 <0> d          -0.199  -3.172  -9.240  0.00  0.00     0.259 C 
BRANCH  20  21
ATOM     21  N6  <0> d          -1.572  -2.663  -9.124  0.00  0.00    -0.069 N 
ATOM     22  C17 <0> d          -2.031  -2.194 -10.436  0.00  0.00     0.239 C 
ATOM     23  C16 <0> d          -3.430  -1.588 -10.305  0.00  0.00     0.007 C 
ATOM     24  C15 <0> d          -4.394  -2.655  -9.777  0.00  0.00     0.007 C 
ATOM     25  C18 <0> d          -3.907  -1.101 -11.675  0.00  0.00     0.011 C 
ATOM     26  C14 <0> d          -3.866  -3.191  -8.444  0.00  0.00     0.028 C 
ATOM     27  C13 <0> d          -2.451  -3.736  -8.644  0.00  0.00     0.235 C 
ATOM     28  H29 <0> d          -1.591  -1.897  -8.468  0.00  0.00     0.280 HD
ENDBRANCH  20  21
ENDBRANCH  18  20
ENDBRANCH   4  18
TORSDOF 4
