REMARK  8 active torsions:
REMARK  status: ('A' for Active; 'I' for Inactive)
REMARK    1  A    between atoms: C5_5  and  C8_8 
REMARK    2  A    between atoms: C8_8  and  C9_10 
REMARK    3  A    between atoms: C9_10  and  C10_11 
REMARK    4  A    between atoms: C10_11  and  N1_12 
REMARK    5  A    between atoms: N1_12  and  C11_13 
REMARK    6  A    between atoms: C14_16  and  S1_19 
REMARK    7  A    between atoms: S1_19  and  N2_22 
REMARK    8  A    between atoms: N2_22  and  C17_23 
ROOT
ATOM      1  C11 <0> d          -0.196  -8.380  -0.003  0.00  0.00     0.031 A 
ATOM      2  C12 <0> d          -0.395  -9.065   1.190  0.00  0.00     0.031 A 
ATOM      3  C13 <0> d          -0.584 -10.432   1.175  0.00  0.00     0.027 A 
ATOM      4  C14 <0> d          -0.576 -11.120  -0.025  0.00  0.00     0.081 A 
ATOM      5  C15 <0> d          -0.377 -10.442  -1.213  0.00  0.00     0.027 A 
ATOM      6  C16 <0> d          -0.193  -9.073  -1.206  0.00  0.00     0.031 A 
ENDROOT
BRANCH   4   7
ATOM      7  S1  <0> d          -0.818 -12.866  -0.039  0.00  0.00     0.285 S 
ATOM      8  O2  <0> d          -0.222 -13.348  -1.235  0.00  0.00    -0.198 OA
ATOM      9  O3  <0> d          -0.437 -13.339   1.246  0.00  0.00    -0.198 OA
BRANCH   7  10
ATOM     10  N2  <0> d          -2.446 -13.133  -0.179  0.00  0.00    -0.143 NA
BRANCH  10  11
ATOM     11  C17 <0> d          -2.904 -14.350  -0.214  0.00  0.00     0.157 A 
ATOM     12  N4  <0> d          -4.223 -14.578  -0.327  0.00  0.00    -0.229 NA
ATOM     13  C24 <0> d          -4.711 -15.800  -0.369  0.00  0.00     0.085 A 
ATOM     14  C19 <0> d          -3.836 -16.995  -0.283  0.00  0.00     0.057 A 
ATOM     15  C23 <0> d          -6.108 -16.003  -0.494  0.00  0.00     0.034 A 
ATOM     16  N3  <0> d          -2.543 -16.878  -0.166  0.00  0.00    -0.381 N 
ATOM     17  C20 <0> d          -4.467 -18.323  -0.332  0.00  0.00     0.031 A 
ATOM     18  C18 <0> d          -1.961 -15.528  -0.121  0.00  0.00     0.201 A 
ATOM     19  H21 <0> d          -1.977 -17.664  -0.110  0.00  0.00     0.160 HD
ATOM     20  C21 <0> d          -5.810 -18.404  -0.453  0.00  0.00     0.002 A 
ATOM     21  C22 <0> d          -6.615 -17.255  -0.533  0.00  0.00     0.002 A 
ENDBRANCH  10  11
ENDBRANCH   7  10
ENDBRANCH   4   7
BRANCH   1  22
ATOM     22  N1  <0> d          -0.004  -6.996   0.009  0.00  0.00    -0.366 N 
ATOM     23  H10 <0> d           0.131  -6.518  -0.825  0.00  0.00     0.165 HD
BRANCH  22  24
ATOM     24  C10 <0> d          -0.007  -6.315   1.193  0.00  0.00     0.092 C 
BRANCH  24  25
ATOM     25  C9  <0> d           0.292  -4.996   1.216  0.00  0.00     0.072 C 
BRANCH  25  26
ATOM     26  C8  <0> d           0.775  -4.362   0.051  0.00  0.00     0.183 C 
ATOM     27  O1  <0> d           1.031  -5.021  -0.941  0.00  0.00    -0.288 OA
BRANCH  26  28
ATOM     28  C5  <0> d           0.972  -2.895   0.035  0.00  0.00     0.014 A 
ATOM     29  C4  <0> d           1.450  -2.265  -1.115  0.00  0.00     0.016 A 
ATOM     30  C3  <0> d           1.631  -0.897  -1.123  0.00  0.00     0.007 A 
ATOM     31  C2  <0> d           1.340  -0.150   0.005  0.00  0.00    -0.062 A 
ATOM     32  C1  <0> d           1.540   1.343  -0.011  0.00  0.00     0.048 C 
ATOM     33  C7  <0> d           0.871  -0.770   1.150  0.00  0.00     0.007 A 
ATOM     34  C6  <0> d           0.680  -2.136   1.169  0.00  0.00     0.016 A 
ENDBRANCH  26  28
ENDBRANCH  25  26
ENDBRANCH  24  25
ENDBRANCH  22  24
ENDBRANCH   1  22
TORSDOF 8
