REMARK  5 active torsions:
REMARK  status: ('A' for Active; 'I' for Inactive)
REMARK    1  A    between atoms: N1_2  and  C2_3 
REMARK    2  A    between atoms: N1_2  and  S1_10 
REMARK    3  A    between atoms: C2_3  and  C3_4 
REMARK    4  A    between atoms: S1_10  and  C7_13 
REMARK    5  A    between atoms: C8_14  and  N2_20 
ROOT
ATOM      1  S1  <0> d          -0.085  -1.008  -1.721  0.00  0.00     0.264 S 
ATOM      2  O2  <0> d          -0.526  -2.299  -1.322  0.00  0.00    -0.200 OA
ATOM      3  O3  <0> d          -0.645  -0.321  -2.831  0.00  0.00    -0.200 OA
ENDROOT
BRANCH   1   4
ATOM      4  N1  <0> d          -0.273  -0.017  -0.407  0.00  0.00    -0.305 N 
ATOM      5  C1  <0> d          -0.417   1.429  -0.596  0.00  0.00     0.163 C 
BRANCH   4   6
ATOM      6  C2  <0> d          -0.295  -0.586   0.943  0.00  0.00     0.199 C 
BRANCH   6   7
ATOM      7  C3  <0> d          -1.723  -0.818   1.366  0.00  0.00     0.073 A 
ATOM      8  O1  <0> d          -2.505   0.064   2.009  0.00  0.00    -0.306 OA
ATOM      9  C6  <0> d          -3.714  -0.481   2.222  0.00  0.00     0.121 A 
ATOM     10  C5  <0> d          -3.711  -1.730   1.720  0.00  0.00     0.048 A 
ATOM     11 Br1  <0> d          -5.171   0.361   3.086  0.00  0.00    -0.023 Br
ATOM     12  C4  <0> d          -2.428  -1.947   1.169  0.00  0.00     0.038 A 
ENDBRANCH   6   7
ENDBRANCH   4   6
ENDBRANCH   1   4
BRANCH   1  13
ATOM     13  C7  <0> d           1.645  -1.140  -2.030  0.00  0.00     0.127 A 
ATOM     14  C12 <0> d           2.355  -2.218  -1.537  0.00  0.00     0.059 A 
ATOM     15  C11 <0> d           3.713  -2.325  -1.786  0.00  0.00     0.025 A 
ATOM     16 Cl1  <0> d           1.544  -3.442  -0.611  0.00  0.00    -0.083 Cl
ATOM     17  C10 <0> d           4.364  -1.349  -2.517  0.00  0.00     0.004 A 
ATOM     18  C9  <0> d           3.660  -0.267  -3.007  0.00  0.00     0.030 A 
ATOM     19  C8  <0> d           2.297  -0.159  -2.765  0.00  0.00     0.051 A 
BRANCH  19  20
ATOM     20  N2  <0> d           1.582   0.935  -3.261  0.00  0.00    -0.398 N 
ATOM     21  H11 <0> d           0.680   1.107  -2.949  0.00  0.00     0.156 HD
ATOM     22  H12 <0> d           1.988   1.522  -3.917  0.00  0.00     0.156 HD
ENDBRANCH  19  20
ENDBRANCH   1  13
TORSDOF 5
