REMARK  6 active torsions:
REMARK  status: ('A' for Active; 'I' for Inactive)
REMARK    1  A    between atoms: C4_5  and  C6_10 
REMARK    2  A    between atoms: C10_14  and  C12_16 
REMARK    3  A    between atoms: C12_16  and  N3_17 
REMARK    4  A    between atoms: N3_17  and  C14_19 
REMARK    5  A    between atoms: C14_19  and  C15_20 
REMARK    6  A    between atoms: C15_20  and  C16_21 
ROOT
ATOM      1  C6  <0> d          -1.230   1.759   0.017  0.00  0.00     0.011 A 
ATOM      2  C7  <0> d          -1.240   3.155   0.030  0.00  0.00     0.015 A 
ATOM      3  C8  <0> d          -0.049   3.850   0.023  0.00  0.00     0.002 A 
ATOM      4  C9  <0> d           1.155   3.167   0.008  0.00  0.00     0.009 A 
ATOM      5  C10 <0> d           1.172   1.783   0.000  0.00  0.00    -0.032 A 
ATOM      6  C11 <0> d          -0.013   1.076   0.008  0.00  0.00     0.024 A 
ENDROOT
BRANCH   5   7
ATOM      7  C12 <0> d           2.487   1.048  -0.017  0.00  0.00     0.273 C 
BRANCH   7   8
ATOM      8  N3  <0> d           2.901   0.817  -1.407  0.00  0.00    -0.071 N 
ATOM      9  C13 <0> d           3.201   2.085  -2.085  0.00  0.00     0.270 C 
ATOM     10  H28 <0> d           2.061   0.342  -1.935  0.00  0.00     0.279 HD
BRANCH   8  11
ATOM     11  C14 <0> d           4.048  -0.098  -1.470  0.00  0.00     0.239 C 
BRANCH  11  12
ATOM     12  C15 <0> d           4.293  -0.511  -2.922  0.00  0.00     0.070 C 
BRANCH  12  13
ATOM     13  C16 <0> d           5.471  -1.449  -2.987  0.00  0.00    -0.007 A 
ATOM     14  C18 <0> d           6.808  -1.080  -3.161  0.00  0.00     0.059 A 
ATOM     15  N5  <0> d           7.536  -2.168  -3.161  0.00  0.00    -0.179 NA
ATOM     16  C19 <0> d           7.324   0.327  -3.318  0.00  0.00     0.073 C 
ATOM     17  N4  <0> d           6.681  -3.266  -2.996  0.00  0.00    -0.282 N 
ATOM     18  C17 <0> d           5.420  -2.798  -2.892  0.00  0.00     0.032 A 
ATOM     19  H2  <0> d           6.873  -4.348  -2.945  0.00  0.00     0.189 HD
ATOM     20  C20 <0> d           4.177  -3.629  -2.703  0.00  0.00     0.070 C 
ENDBRANCH  12  13
ENDBRANCH  11  12
ENDBRANCH   8  11
ENDBRANCH   7   8
ENDBRANCH   5   7
BRANCH   1  21
ATOM     21  C4  <0> d          -2.502   1.008   0.019  0.00  0.00     0.141 A 
ATOM     22  N1  <0> d          -2.476  -0.308   0.006  0.00  0.00    -0.234 NA
ATOM     23  C3  <0> d          -3.599  -1.025   0.013  0.00  0.00     0.044 A 
ATOM     24  C2  <0> d          -4.811  -0.399   0.022  0.00  0.00     0.030 A 
ATOM     25  C21 <0> d          -3.530  -2.530   0.003  0.00  0.00     0.071 C 
ATOM     26  C1  <0> d          -6.087  -1.200   0.022  0.00  0.00     0.056 C 
ATOM     27  C5  <0> d          -4.849   1.010   0.030  0.00  0.00     0.254 A 
ATOM     28  N2  <0> d          -3.682   1.690   0.029  0.00  0.00    -0.307 N 
ATOM     29  O1  <0> d          -5.915   1.603   0.038  0.00  0.00    -0.268 OA
ATOM     30  H1  <0> d          -3.682   2.790   0.035  0.00  0.00     0.170 HD
ENDBRANCH   1  21
TORSDOF 6
