REMARK  5 active torsions:
REMARK  status: ('A' for Active; 'I' for Inactive)
REMARK       I    between atoms: N1_2  and  C2_3 
REMARK    1  A    between atoms: C2_3  and  C3_5 
REMARK    2  A    between atoms: C6_8  and  S1_11 
REMARK    3  A    between atoms: S1_11  and  N2_14 
REMARK    4  A    between atoms: N2_14  and  C10_16 
REMARK    5  A    between atoms: C10_16  and  C11_17 
ROOT
ATOM      1  C3  <0> d          -1.136  -2.172   0.001  0.00  0.00     0.032 A 
ATOM      2  C4  <0> d           0.081  -2.857  -0.008  0.00  0.00     0.018 A 
ATOM      3  C5  <0> d           0.092  -4.236  -0.015  0.00  0.00     0.026 A 
ATOM      4  C6  <0> d          -1.098  -4.941  -0.013  0.00  0.00     0.079 A 
ATOM      5  C7  <0> d          -2.307  -4.269  -0.005  0.00  0.00     0.026 A 
ATOM      6  C8  <0> d          -2.333  -2.889   0.009  0.00  0.00     0.018 A 
ENDROOT
BRANCH   4   7
ATOM      7  S1  <0> d          -1.074  -6.703  -0.023  0.00  0.00     0.260 S 
ATOM      8  O2  <0> d          -2.317  -7.123  -0.570  0.00  0.00    -0.200 OA
ATOM      9  O3  <0> d           0.174  -7.089  -0.582  0.00  0.00    -0.200 OA
BRANCH   7  10
ATOM     10  N2  <0> d          -1.060  -7.201   1.556  0.00  0.00    -0.305 N 
ATOM     11  C9  <0> d          -2.323  -7.439   2.260  0.00  0.00     0.163 C 
BRANCH  10  12
ATOM     12  C10 <0> d           0.215  -7.404   2.249  0.00  0.00     0.194 C 
BRANCH  12  13
ATOM     13  C11 <0> d           0.574  -6.157   3.015  0.00  0.00     0.059 A 
ATOM     14  N3  <0> d           1.205  -5.153   2.439  0.00  0.00    -0.256 NA
ATOM     15  C13 <0> d           1.512  -4.069   3.107  0.00  0.00     0.166 A 
ATOM     16  S2  <0> d           0.929  -4.392   4.653  0.00  0.00    -0.092 SA
ATOM     17  C12 <0> d           0.269  -6.019   4.330  0.00  0.00     0.080 A 
ENDBRANCH  12  13
ENDBRANCH  10  12
ENDBRANCH   7  10
ENDBRANCH   4   7
BRANCH   1  18
ATOM     18  C2  <0> d          -1.156  -0.694   0.009  0.00  0.00     0.251 C 
ATOM     19  N1  <0> d           0.002  -0.004   0.002  0.00  0.00    -0.361 N 
ATOM     20  C1  <0> d          -0.018   1.461   0.010  0.00  0.00     0.149 C 
ATOM     21  H4  <0> d           0.849  -0.478  -0.009  0.00  0.00     0.162 HD
ATOM     22  O1  <0> d          -2.217  -0.100   0.023  0.00  0.00    -0.268 OA
ENDBRANCH   1  18
TORSDOF 5
