REMARK  4 active torsions:
REMARK  status: ('A' for Active; 'I' for Inactive)
REMARK    1  A    between atoms: C4_4  and  C7_8 
REMARK    2  A    between atoms: C7_8  and  N1_10 
REMARK       I    between atoms: N1_10  and  C9_11 
REMARK       I    between atoms: C9_11  and  N2_13 
REMARK    3  A    between atoms: N2_13  and  C10_14 
REMARK    4  A    between atoms: C13_17  and  N4_20 
ROOT
ATOM      1  N1  <0> d          -2.756  -3.101  -0.579  0.00  0.00    -0.334 N 
ATOM      2  C9  <0> d          -3.473  -4.087  -1.153  0.00  0.00     0.321 C 
ATOM      3  O2  <0> d          -3.029  -5.218  -1.192  0.00  0.00    -0.247 OA
ATOM      4  N2  <0> d          -4.682  -3.818  -1.684  0.00  0.00    -0.308 N 
ATOM      5  H12 <0> d          -3.110  -2.198  -0.548  0.00  0.00     0.165 HD
ATOM      6  H13 <0> d          -5.066  -2.932  -1.593  0.00  0.00     0.170 HD
ENDROOT
BRANCH   1   7
ATOM      7  C7  <0> d          -1.441  -3.392  -0.002  0.00  0.00     0.117 C 
ATOM      8  C8  <0> d          -1.614  -3.900   1.431  0.00  0.00     0.037 C 
BRANCH   7   9
ATOM      9  C4  <0> d          -0.607  -2.137   0.008  0.00  0.00    -0.004 A 
ATOM     10  C3  <0> d          -1.087  -0.807   0.023  0.00  0.00     0.044 A 
ATOM     11  C2  <0> d          -0.008  -0.004   0.028  0.00  0.00     0.050 A 
ATOM     12  C1  <0> d          -0.031   1.503   0.043  0.00  0.00     0.076 C 
ATOM     13  O1  <0> d           1.094  -0.772   0.011  0.00  0.00    -0.320 OA
ATOM     14  C5  <0> d           0.736  -2.067   0.005  0.00  0.00     0.058 A 
ATOM     15  C6  <0> d           1.680  -3.241  -0.009  0.00  0.00     0.077 C 
ENDBRANCH   7   9
ENDBRANCH   1   7
BRANCH   4  16
ATOM     16  C10 <0> d          -5.385  -4.820  -2.366  0.00  0.00     0.054 A 
ATOM     17  C14 <0> d          -6.170  -4.502  -3.466  0.00  0.00     0.148 A 
ATOM     18  N3  <0> d          -6.830  -5.440  -4.116  0.00  0.00    -0.239 NA
ATOM     19  C13 <0> d          -6.781  -6.709  -3.745  0.00  0.00     0.150 A 
ATOM     20  C12 <0> d          -6.020  -7.101  -2.651  0.00  0.00     0.054 A 
ATOM     21  C11 <0> d          -5.309  -6.146  -1.947  0.00  0.00     0.035 A 
BRANCH  19  22
ATOM     22  N4  <0> d          -7.504  -7.668  -4.464  0.00  0.00    -0.227 N 
ATOM     23  N5  <0> d          -7.549  -9.042  -4.194  0.00  0.00    -0.179 NA
ATOM     24  C17 <0> d          -8.330  -9.608  -5.078  0.00  0.00     0.141 A 
ATOM     25  C16 <0> d          -8.802  -8.618  -5.947  0.00  0.00     0.040 A 
ATOM     26  C15 <0> d          -8.282  -7.433  -5.553  0.00  0.00     0.122 A 
ENDBRANCH  19  22
ENDBRANCH   4  16
TORSDOF 4
