REMARK  8 active torsions:
REMARK  status: ('A' for Active; 'I' for Inactive)
REMARK    1  A    between atoms: C2_2  and  C3_3 
REMARK    2  A    between atoms: C2_2  and  N3_31 
REMARK    3  A    between atoms: C5_8  and  C6_9 
REMARK    4  A    between atoms: C12_16  and  C13_17 
REMARK    5  A    between atoms: C12_16  and  N3_31 
REMARK    6  A    between atoms: C18_22  and  C19_23 
REMARK    7  A    between atoms: C18_22  and  N4_33 
REMARK    8  A    between atoms: C19_23  and  C20_24 
ROOT
ATOM      1  C12 <0> d           5.771   0.054   2.132  0.00  0.00     0.239 C 
ENDROOT
BRANCH   1   2
ATOM      2  C13 <0> d           6.514  -0.068   3.464  0.00  0.00     0.015 C 
ATOM      3  C17 <0> d           8.024  -0.013   3.215  0.00  0.00     0.034 C 
ATOM      4  C16 <0> d           8.759  -0.074   4.555  0.00  0.00     0.235 C 
ATOM      5  N4  <0> d           8.349   1.081   5.381  0.00  0.00    -0.071 N 
ATOM      6  C15 <0> d           6.905   0.999   5.688  0.00  0.00     0.235 C 
ATOM      7  H32 <0> d           8.530   1.945   4.857  0.00  0.00     0.279 HD
ATOM      8  C14 <0> d           6.114   1.092   4.381  0.00  0.00     0.034 C 
BRANCH   5   9
ATOM      9  C18 <0> d           9.130   1.108   6.635  0.00  0.00     0.239 C 
BRANCH   9  10
ATOM     10  C19 <0> d           8.849   2.424   7.362  0.00  0.00     0.066 C 
BRANCH  10  11
ATOM     11  C20 <0> d           9.657   2.478   8.633  0.00  0.00    -0.054 A 
ATOM     12  C25 <0> d          10.926   3.023   8.623  0.00  0.00     0.049 A 
ATOM     13  C24 <0> d          11.668   3.073   9.791  0.00  0.00     0.116 A 
ATOM     14  C23 <0> d          11.136   2.577  10.969  0.00  0.00     0.042 A 
ATOM     15  F2  <0> d          12.909   3.606   9.781  0.00  0.00    -0.206 F 
ATOM     16  C22 <0> d           9.866   2.032  10.977  0.00  0.00     0.003 A 
ATOM     17  C21 <0> d           9.125   1.987   9.811  0.00  0.00     0.007 A 
ENDBRANCH  10  11
ENDBRANCH   9  10
ENDBRANCH   5   9
ENDBRANCH   1   2
BRANCH   1  18
ATOM     18  N3  <0> d           6.099  -1.119   1.296  0.00  0.00    -0.071 N 
ATOM     19  C1  <0> d           5.406  -2.318   1.813  0.00  0.00     0.270 C 
ATOM     20  H31 <0> d           7.113  -1.280   1.330  0.00  0.00     0.279 HD
BRANCH  18  21
ATOM     21  C2  <0> d           5.700  -0.870  -0.105  0.00  0.00     0.276 C 
BRANCH  21  22
ATOM     22  C3  <0> d           6.362  -1.896  -0.987  0.00  0.00     0.016 A 
ATOM     23  C5  <0> d           7.729  -1.940  -1.326  0.00  0.00     0.096 A 
ATOM     24  N2  <0> d           7.918  -2.979  -2.112  0.00  0.00    -0.174 NA
ATOM     25  N1  <0> d           6.685  -3.619  -2.292  0.00  0.00    -0.288 N 
ATOM     26  C4  <0> d           5.751  -2.937  -1.594  0.00  0.00     0.120 A 
ATOM     27  H1  <0> d           6.524  -4.438  -2.842  0.00  0.00     0.188 HD
BRANCH  23  28
ATOM     28  C6  <0> d           8.771  -0.985  -0.876  0.00  0.00    -0.002 A 
ATOM     29  C11 <0> d          10.015  -1.453  -0.458  0.00  0.00     0.056 A 
ATOM     30  C10 <0> d          10.982  -0.558  -0.040  0.00  0.00     0.117 A 
ATOM     31  C9  <0> d          10.715   0.801  -0.037  0.00  0.00     0.042 A 
ATOM     32  F1  <0> d          12.189  -1.010   0.365  0.00  0.00    -0.206 F 
ATOM     33  C8  <0> d           9.482   1.269  -0.451  0.00  0.00     0.004 A 
ATOM     34  C7  <0> d           8.511   0.384  -0.875  0.00  0.00     0.014 A 
ENDBRANCH  23  28
ENDBRANCH  21  22
ENDBRANCH  18  21
ENDBRANCH   1  18
TORSDOF 8
