REMARK  6 active torsions:
REMARK  status: ('A' for Active; 'I' for Inactive)
REMARK    1  A    between atoms: C5_6  and  N3_11 
REMARK    2  A    between atoms: C6_7  and  C7_8 
REMARK       I    between atoms: C7_8  and  N2_10 
REMARK    3  A    between atoms: N3_11  and  C8_12 
REMARK    4  A    between atoms: C8_12  and  C9_13 
REMARK    5  A    between atoms: C9_13  and  C10_14 
REMARK    6  A    between atoms: C9_13  and  N4_19 
ROOT
ATOM      1  N3  <0> d          -0.382  -2.641   0.755  0.00  0.00    -0.373 N 
ATOM      2  H8  <0> d          -0.050  -2.026   1.605  0.00  0.00     0.161 HD
ENDROOT
BRANCH   1   3
ATOM      3  C5  <0> d          -0.123  -3.999   0.742  0.00  0.00     0.117 A 
ATOM      4  N1  <0> d          -0.524  -4.736  -0.282  0.00  0.00    -0.346 N 
ATOM      5  C4  <0> d          -0.297  -6.034  -0.335  0.00  0.00     0.007 A 
ATOM      6  H25 <0> d          -1.059  -4.237  -1.104  0.00  0.00     0.167 HD
ATOM      7  C3  <0> d           0.373  -6.686   0.684  0.00  0.00     0.032 A 
ATOM      8  C18 <0> d          -0.778  -6.821  -1.527  0.00  0.00     0.068 C 
ATOM      9  C2  <0> d           0.815  -5.966   1.780  0.00  0.00    -0.041 A 
ATOM     10  C1  <0> d           1.549  -6.647   2.906  0.00  0.00     0.049 C 
ATOM     11  C6  <0> d           0.569  -4.589   1.814  0.00  0.00     0.081 A 
BRANCH  11  12
ATOM     12  C7  <0> d           1.024  -3.773   2.954  0.00  0.00     0.253 C 
ATOM     13  O1  <0> d           0.297  -3.615   3.917  0.00  0.00    -0.268 OA
ATOM     14  N2  <0> d           2.244  -3.202   2.931  0.00  0.00    -0.366 N 
ATOM     15  H6  <0> d           2.583  -2.593   3.782  0.00  0.00     0.159 HD
ATOM     16  H7  <0> d           2.901  -3.344   2.060  0.00  0.00     0.159 HD
ENDBRANCH  11  12
ENDBRANCH   1   3
BRANCH   1  17
ATOM     17  C8  <0> d          -1.098  -2.021  -0.362  0.00  0.00     0.162 C 
BRANCH  17  18
ATOM     18  C9  <0> d          -1.359  -0.547  -0.046  0.00  0.00     0.280 C 
BRANCH  18  19
ATOM     19  C10 <0> d          -1.978   0.123  -1.246  0.00  0.00     0.017 A 
ATOM     20  S1  <0> d          -1.274   0.408  -2.861  0.00  0.00    -0.104 SA
ATOM     21  C13 <0> d          -2.675   1.229  -3.604  0.00  0.00     0.050 A 
ATOM     22  C12 <0> d          -3.569   1.237  -2.585  0.00  0.00     0.008 A 
ATOM     23  C11 <0> d          -3.211   0.670  -1.376  0.00  0.00     0.017 A 
ENDBRANCH  18  19
BRANCH  18  24
ATOM     24  N4  <0> d          -0.089   0.116   0.284  0.00  0.00     0.103 N 
ATOM     25  C17 <0> d          -0.300   1.540   0.579  0.00  0.00     0.299 C 
ATOM     26  C16 <0> d           1.036   2.176   0.975  0.00  0.00     0.198 C 
ATOM     27  O2  <0> d           1.984   1.976  -0.077  0.00  0.00    -0.388 OA
ATOM     28  C15 <0> d           2.213   0.599  -0.391  0.00  0.00     0.198 C 
ATOM     29  C14 <0> d           0.889  -0.053  -0.800  0.00  0.00     0.299 C 
ENDBRANCH  18  24
ENDBRANCH  17  18
ENDBRANCH   1  17
TORSDOF 6
