REMARK  5 active torsions:
REMARK  status: ('A' for Active; 'I' for Inactive)
REMARK    1  A    between atoms: N2_6  and  C5_7 
REMARK    2  A    between atoms: C10_15  and  C18_27 
REMARK    3  A    between atoms: C11_17  and  C12_18 
REMARK       I    between atoms: C12_18  and  N4_20 
REMARK    4  A    between atoms: N4_20  and  C13_21 
REMARK    5  A    between atoms: C13_21  and  C14_22 
ROOT
ATOM      1  C1  <0> d          -6.035   4.288  -0.171  0.00  0.00     0.091 C 
ATOM      2  C2  <0> d          -5.308   2.973  -0.054  0.00  0.00     0.104 A 
ATOM      3  N1  <0> d          -4.030   2.844   0.167  0.00  0.00    -0.231 NA
ATOM      4  C3  <0> d          -3.705   1.538   0.214  0.00  0.00     0.120 A 
ATOM      5  C4  <0> d          -4.896   0.811   0.002  0.00  0.00     0.070 A 
ATOM      6  N2  <0> d          -5.890   1.749  -0.164  0.00  0.00    -0.328 N 
ATOM      7  C9  <0> d          -4.841  -0.573   0.001  0.00  0.00     0.064 A 
ATOM      8  C10 <0> d          -3.613  -1.200   0.210  0.00  0.00     0.070 A 
ATOM      9  N3  <0> d          -2.507  -0.496   0.404  0.00  0.00    -0.240 NA
ATOM     10  C11 <0> d          -2.508   0.830   0.418  0.00  0.00     0.156 A 
ENDROOT
BRANCH  10  11
ATOM     11  C12 <0> d          -1.246   1.565   0.643  0.00  0.00     0.272 C 
ATOM     12  O3  <0> d          -1.244   2.780   0.651  0.00  0.00    -0.266 OA
ATOM     13  N4  <0> d          -0.097   0.888   0.838  0.00  0.00    -0.353 N 
ATOM     14  H13 <0> d          -0.100  -0.212   0.835  0.00  0.00     0.162 HD
BRANCH  13  15
ATOM     15  C13 <0> d           1.155   1.616   1.055  0.00  0.00     0.155 C 
BRANCH  15  16
ATOM     16  C14 <0> d           2.300   0.619   1.242  0.00  0.00     0.139 C 
ATOM     17  O4  <0> d           2.526  -0.096   0.021  0.00  0.00    -0.384 OA
ATOM     18  C17 <0> d           3.852   0.171  -0.465  0.00  0.00     0.168 C 
ATOM     19  C16 <0> d           4.668   0.578   0.788  0.00  0.00     0.029 C 
ATOM     20  C15 <0> d           3.601   1.374   1.591  0.00  0.00     0.035 C 
ENDBRANCH  15  16
ENDBRANCH  13  15
ENDBRANCH  10  11
BRANCH   8  21
ATOM     21  C18 <0> d          -3.542  -2.682   0.212  0.00  0.00    -0.007 A 
ATOM     22  C23 <0> d          -2.322  -3.323   0.419  0.00  0.00     0.014 A 
ATOM     23  C22 <0> d          -2.262  -4.702   0.420  0.00  0.00     0.001 A 
ATOM     24  C21 <0> d          -3.410  -5.447   0.216  0.00  0.00     0.000 A 
ATOM     25  C20 <0> d          -4.623  -4.815   0.010  0.00  0.00     0.001 A 
ATOM     26  C19 <0> d          -4.696  -3.437   0.012  0.00  0.00     0.014 A 
ENDBRANCH   8  21
BRANCH   6  27
ATOM     27  C5  <0> d          -7.309   1.479  -0.412  0.00  0.00     0.106 C 
ATOM     28  C8  <0> d          -7.888   0.655   0.763  0.00  0.00     0.166 C 
ATOM     29  S1  <0> d          -9.174  -0.372  -0.059  0.00  0.00     0.146 S 
ATOM     30  C7  <0> d          -8.913   0.153  -1.806  0.00  0.00     0.142 C 
ATOM     31  O1  <0> d          -8.822  -1.743   0.070  0.00  0.00    -0.228 OA
ATOM     32  O2  <0> d         -10.457   0.064   0.369  0.00  0.00    -0.228 OA
ATOM     33  C6  <0> d          -7.457   0.694  -1.726  0.00  0.00     0.041 C 
ENDBRANCH   6  27
TORSDOF 5
