REMARK  6 active torsions:
REMARK  status: ('A' for Active; 'I' for Inactive)
REMARK    1  A    between atoms: C2_2  and  C3_3 
REMARK    2  A    between atoms: C2_2  and  N3_31 
REMARK       I    between atoms: C3_3  and  N1_5 
REMARK    3  A    between atoms: N1_5  and  C4_6 
REMARK    4  A    between atoms: C6_8  and  C14_18 
REMARK    5  A    between atoms: C9_11  and  N2_12 
REMARK    6  A    between atoms: C15_22  and  N3_31 
ROOT
ATOM      1  C3  <0> d           1.646  -2.497  -3.727  0.00  0.00     0.252 C 
ATOM      2  O1  <0> d           0.646  -2.023  -4.224  0.00  0.00    -0.271 OA
ATOM      3  N1  <0> d           2.493  -3.226  -4.481  0.00  0.00    -0.324 N 
ATOM      4  H5  <0> d           3.259  -3.656  -4.072  0.00  0.00     0.169 HD
ENDROOT
BRANCH   3   5
ATOM      5  C4  <0> d           2.264  -3.363  -5.857  0.00  0.00     0.057 A 
ATOM      6  C9  <0> d           3.333  -3.593  -6.724  0.00  0.00     0.037 A 
ATOM      7  C8  <0> d           3.100  -3.733  -8.084  0.00  0.00     0.027 A 
ATOM      8  C7  <0> d           1.813  -3.632  -8.578  0.00  0.00     0.018 A 
ATOM      9  C6  <0> d           0.754  -3.399  -7.720  0.00  0.00     0.050 A 
ATOM     10  C5  <0> d           0.977  -3.264  -6.362  0.00  0.00     0.047 A 
BRANCH   6  11
ATOM     11  N2  <0> d           4.635  -3.689  -6.222  0.00  0.00    -0.278 NA
ATOM     12  C13 <0> d           5.223  -5.001  -6.529  0.00  0.00     0.122 C 
ATOM     13  C12 <0> d           6.622  -5.085  -5.912  0.00  0.00     0.182 C 
ATOM     14  O2  <0> d           7.420  -4.005  -6.404  0.00  0.00    -0.389 OA
ATOM     15  C11 <0> d           6.877  -2.712  -6.122  0.00  0.00     0.182 C 
ATOM     16  C10 <0> d           5.481  -2.605  -6.741  0.00  0.00     0.122 C 
ENDBRANCH   6  11
BRANCH   9  17
ATOM     17  C14 <0> d          -0.646  -3.290  -8.266  0.00  0.00     0.417 C 
ATOM     18  F1  <0> d          -0.918  -1.957  -8.590  0.00  0.00    -0.166 F 
ATOM     19  F2  <0> d          -0.762  -4.083  -9.413  0.00  0.00    -0.166 F 
ATOM     20  F3  <0> d          -1.558  -3.731  -7.301  0.00  0.00    -0.166 F 
ENDBRANCH   9  17
ENDBRANCH   3   5
BRANCH   1  21
ATOM     21  C2  <0> d           1.942  -2.271  -2.267  0.00  0.00     0.274 C 
ATOM     22  C1  <0> d           2.012  -3.619  -1.546  0.00  0.00     0.050 C 
BRANCH  21  23
ATOM     23  N3  <0> d           0.866  -1.454  -1.674  0.00  0.00    -0.053 N 
ATOM     24  H26 <0> d           0.238  -2.061  -1.135  0.00  0.00     0.279 HD
ATOM     25  H27 <0> d           0.337  -0.995  -2.425  0.00  0.00     0.279 HD
BRANCH  23  26
ATOM     26  C15 <0> d           1.436  -0.427  -0.782  0.00  0.00     0.137 C 
ATOM     27  C18 <0> d           2.452   0.416  -1.584  0.00  0.00     0.178 C 
ATOM     28  S1  <0> d           2.162   2.098  -0.879  0.00  0.00     0.146 S 
ATOM     29  C17 <0> d           0.364   1.894  -0.515  0.00  0.00     0.143 C 
ATOM     30  O3  <0> d           2.329   3.071  -1.900  0.00  0.00    -0.228 OA
ATOM     31  O4  <0> d           2.878   2.225   0.342  0.00  0.00    -0.228 OA
ATOM     32  C16 <0> d           0.290   0.384  -0.196  0.00  0.00     0.054 C 
ATOM     33  C19 <0> d           2.175  -1.125   0.361  0.00  0.00     0.047 C 
ENDBRANCH  23  26
ENDBRANCH  21  23
ENDBRANCH   1  21
TORSDOF 6
