REMARK  7 active torsions:
REMARK  status: ('A' for Active; 'I' for Inactive)
REMARK    1  A    between atoms: C2_2  and  C3_3 
REMARK    2  A    between atoms: C2_2  and  S1_12 
REMARK       I    between atoms: C3_3  and  N1_5 
REMARK    3  A    between atoms: N1_5  and  C4_6 
REMARK    4  A    between atoms: C4_6  and  C5_7 
REMARK    5  A    between atoms: S1_12  and  C9_13 
REMARK    6  A    between atoms: C10_16  and  C14_21 
REMARK    7  A    between atoms: N4_17  and  C11_18 
ROOT
ATOM      1  C9  <0> d          -2.317  -0.109  -1.299  0.00  0.00     0.268 A 
ATOM      2  N2  <0> d          -1.687  -0.891  -2.375  0.00  0.00    -0.279 N 
ATOM      3  N3  <0> d          -1.367   0.017  -3.391  0.00  0.00    -0.158 NA
ATOM      4  C10 <0> d          -1.719   1.233  -3.069  0.00  0.00     0.157 A 
ATOM      5  N4  <0> d          -2.315   1.274  -1.803  0.00  0.00    -0.328 N 
ATOM      6  H16 <0> d          -1.526  -1.848  -2.380  0.00  0.00     0.185 HD
ENDROOT
BRANCH   1   7
ATOM      7  S1  <0> d          -1.343  -0.230   0.227  0.00  0.00    -0.108 SA
BRANCH   7   8
ATOM      8  C2  <0> d           0.359   0.091  -0.313  0.00  0.00     0.139 C 
ATOM      9  C1  <0> d           0.514   1.573  -0.657  0.00  0.00     0.031 C 
BRANCH   8  10
ATOM     10  C3  <0> d           1.314  -0.270   0.795  0.00  0.00     0.231 C 
ATOM     11  O1  <0> d           0.915  -0.349   1.938  0.00  0.00    -0.272 OA
ATOM     12  N1  <0> d           2.612  -0.505   0.517  0.00  0.00    -0.358 N 
ATOM     13  H7  <0> d           2.931  -0.442  -0.396  0.00  0.00     0.162 HD
BRANCH  12  14
ATOM     14  C4  <0> d           3.540  -0.856   1.595  0.00  0.00     0.154 C 
BRANCH  14  15
ATOM     15  C5  <0> d           4.939  -1.068   1.014  0.00  0.00     0.139 C 
ATOM     16  O2  <0> d           5.450   0.172   0.511  0.00  0.00    -0.384 OA
ATOM     17  C8  <0> d           6.637   0.541   1.235  0.00  0.00     0.168 C 
ATOM     18  C7  <0> d           7.207  -0.792   1.784  0.00  0.00     0.029 C 
ATOM     19  C6  <0> d           5.898  -1.556   2.121  0.00  0.00     0.035 C 
ENDBRANCH  14  15
ENDBRANCH  12  14
ENDBRANCH   8  10
ENDBRANCH   7   8
ENDBRANCH   1   7
BRANCH   5  20
ATOM     20  C11 <0> d          -2.834   2.458  -1.113  0.00  0.00     0.089 A 
ATOM     21  C13 <0> d          -4.343   2.529  -0.870  0.00  0.00     0.027 A 
ATOM     22  C12 <0> d          -3.391   2.266   0.299  0.00  0.00     0.027 A 
ENDBRANCH   5  20
BRANCH   4  23
ATOM     23  C14 <0> d          -1.524   2.356  -3.888  0.00  0.00     0.019 A 
ATOM     24  C21 <0> d          -1.953   3.779  -3.605  0.00  0.00     0.163 A 
ATOM     25  N5  <0> d          -1.517   4.571  -4.760  0.00  0.00    -0.385 N 
ATOM     26  C20 <0> d          -0.922   3.779  -5.630  0.00  0.00     0.039 A 
ATOM     27  H28 <0> d          -1.649   5.526  -4.868  0.00  0.00     0.160 HD
ATOM     28  C15 <0> d          -0.901   2.393  -5.136  0.00  0.00     0.002 A 
ATOM     29  C19 <0> d          -0.336   4.046  -6.895  0.00  0.00     0.030 A 
ATOM     30  C16 <0> d          -0.304   1.393  -5.932  0.00  0.00     0.014 A 
ATOM     31  C17 <0> d           0.238   1.723  -7.133  0.00  0.00     0.001 A 
ATOM     32  C18 <0> d           0.220   3.036  -7.607  0.00  0.00     0.002 A 
ENDBRANCH   4  23
TORSDOF 7
