REMARK  7 active torsions:
REMARK  status: ('A' for Active; 'I' for Inactive)
REMARK    1  A    between atoms: S1_2  and  C2_5 
REMARK    2  A    between atoms: C5_8  and  N1_11 
REMARK       I    between atoms: N1_11  and  C8_12 
REMARK       I    between atoms: C8_12  and  N2_14 
REMARK    3  A    between atoms: N2_14  and  C9_15 
REMARK    4  A    between atoms: C9_15  and  C10_16 
REMARK    5  A    between atoms: C10_16  and  C11_17 
REMARK    6  A    between atoms: C11_17  and  S2_18 
REMARK    7  A    between atoms: S2_18  and  C12_21 
ROOT
ATOM      1  N1  <0> d           2.840  -1.462  -4.995  0.00  0.00    -0.309 N 
ATOM      2  C8  <0> d           4.186  -1.524  -5.012  0.00  0.00     0.320 C 
ATOM      3  O3  <0> d           4.814  -1.370  -3.982  0.00  0.00    -0.247 OA
ATOM      4  N2  <0> d           4.835  -1.757  -6.170  0.00  0.00    -0.343 N 
ATOM      5  H8  <0> d           2.335  -1.661  -5.799  0.00  0.00     0.170 HD
ATOM      6  H9  <0> d           4.333  -1.879  -6.991  0.00  0.00     0.164 HD
ENDROOT
BRANCH   1   7
ATOM      7  C5  <0> d           2.170  -1.111  -3.817  0.00  0.00     0.036 A 
ATOM      8  C4  <0> d           2.745  -0.209  -2.932  0.00  0.00     0.031 A 
ATOM      9  C3  <0> d           2.082   0.136  -1.771  0.00  0.00     0.025 A 
ATOM     10  C2  <0> d           0.846  -0.417  -1.489  0.00  0.00     0.059 A 
ATOM     11  C7  <0> d           0.273  -1.319  -2.366  0.00  0.00     0.025 A 
ATOM     12  C6  <0> d           0.929  -1.664  -3.531  0.00  0.00     0.031 A 
BRANCH  10  13
ATOM     13  S1  <0> d           0.003   0.026  -0.006  0.00  0.00     0.171 S 
ATOM     14  C1  <0> d           0.569  -1.176   1.228  0.00  0.00     0.167 C 
ATOM     15  O1  <0> d          -1.373  -0.181  -0.296  0.00  0.00    -0.223 OA
ATOM     16  O2  <0> d           0.488   1.322   0.314  0.00  0.00    -0.223 OA
ENDBRANCH  10  13
ENDBRANCH   1   7
BRANCH   4  17
ATOM     17  C9  <0> d           6.298  -1.824  -6.188  0.00  0.00     0.125 C 
BRANCH  17  18
ATOM     18  C10 <0> d           6.778  -2.096  -7.615  0.00  0.00     0.035 C 
BRANCH  18  19
ATOM     19  C11 <0> d           8.307  -2.167  -7.635  0.00  0.00     0.147 C 
BRANCH  19  20
ATOM     20  S2  <0> d           8.876  -2.490  -9.326  0.00  0.00     0.175 S 
ATOM     21  O4  <0> d           8.497  -3.799  -9.729  0.00  0.00    -0.223 OA
ATOM     22  O5  <0> d           8.603  -1.369 -10.157  0.00  0.00    -0.223 OA
BRANCH  20  23
ATOM     23  C12 <0> d          10.633  -2.546  -9.210  0.00  0.00     0.059 A 
ATOM     24  C17 <0> d          11.271  -3.746  -8.957  0.00  0.00     0.023 A 
ATOM     25  C16 <0> d          12.650  -3.791  -8.870  0.00  0.00     0.002 A 
ATOM     26  C15 <0> d          13.390  -2.634  -9.027  0.00  0.00     0.000 A 
ATOM     27  C14 <0> d          12.752  -1.433  -9.275  0.00  0.00     0.002 A 
ATOM     28  C13 <0> d          11.373  -1.389  -9.366  0.00  0.00     0.023 A 
ENDBRANCH  20  23
ENDBRANCH  19  20
ENDBRANCH  18  19
ENDBRANCH  17  18
ENDBRANCH   4  17
TORSDOF 7
