REMARK  3 active torsions:
REMARK  status: ('A' for Active; 'I' for Inactive)
REMARK    1  A    between atoms: C2_2  and  N1_3 
REMARK    2  A    between atoms: C13_16  and  C14_17 
REMARK    3  A    between atoms: N4_21  and  C18_24 
ROOT
ATOM      1  C14 <0> d          -0.852  -2.358  -1.485  0.00  0.00     0.101 A 
ATOM      2  C15 <0> d           0.207  -3.207  -1.620  0.00  0.00     0.197 A 
ATOM      3  N3  <0> d           0.649  -3.540  -2.875  0.00  0.00    -0.285 N 
ATOM      4  C16 <0> d           0.045  -3.035  -3.967  0.00  0.00     0.336 A 
ATOM      5  N4  <0> d          -1.000  -2.196  -3.854  0.00  0.00    -0.229 N 
ATOM      6  C17 <0> d          -1.470  -1.848  -2.640  0.00  0.00     0.269 A 
ATOM      7  O1  <0> d          -2.421  -1.092  -2.543  0.00  0.00    -0.267 OA
ATOM      8  O2  <0> d           0.451  -3.341  -5.071  0.00  0.00    -0.246 OA
ATOM      9  O3  <0> d           0.816  -3.715  -0.527  0.00  0.00    -0.171 OA
ATOM     10  H25 <0> d           1.402  -4.143  -2.977  0.00  0.00     0.172 HD
ENDROOT
BRANCH   1  11
ATOM     11  C13 <0> d          -1.356  -1.978  -0.117  0.00  0.00     0.281 C 
ATOM     12  N1  <0> d          -1.376  -0.512   0.012  0.00  0.00    -0.057 N 
ATOM     13  C3  <0> d          -2.029  -0.123   1.269  0.00  0.00     0.241 C 
ATOM     14  H26 <0> d          -1.885  -0.116  -0.763  0.00  0.00     0.281 HD
ATOM     15  C4  <0> d          -3.541  -0.366   1.158  0.00  0.00     0.069 C 
ATOM     16  C5  <0> d          -3.746  -1.768   0.641  0.00  0.00    -0.019 A 
ATOM     17  C12 <0> d          -2.762  -2.498   0.068  0.00  0.00     0.053 A 
ATOM     18  C6  <0> d          -4.939  -2.583   0.641  0.00  0.00    -0.001 A 
ATOM     19  N2  <0> d          -3.248  -3.724  -0.296  0.00  0.00    -0.356 N 
ATOM     20  C11 <0> d          -4.570  -3.813   0.036  0.00  0.00     0.043 A 
ATOM     21  H1  <0> d          -2.732  -4.424  -0.725  0.00  0.00     0.166 HD
ATOM     22  C10 <0> d          -5.505  -4.834  -0.120  0.00  0.00     0.030 A 
ATOM     23  C9  <0> d          -6.787  -4.588   0.339  0.00  0.00     0.002 A 
ATOM     24  C8  <0> d          -7.142  -3.385   0.929  0.00  0.00     0.001 A 
ATOM     25  C7  <0> d          -6.243  -2.361   1.096  0.00  0.00     0.014 A 
BRANCH  12  26
ATOM     26  C2  <0> d           0.002  -0.004   0.002  0.00  0.00     0.231 C 
ATOM     27  C1  <0> d          -0.019   1.526   0.010  0.00  0.00     0.034 C 
ENDBRANCH  12  26
ENDBRANCH   1  11
BRANCH   5  28
ATOM     28  C18 <0> d          -1.609  -1.684  -5.008  0.00  0.00     0.053 A 
ATOM     29  C23 <0> d          -1.159  -0.494  -5.563  0.00  0.00    -0.034 A 
ATOM     30  C22 <0> d          -1.757   0.004  -6.704  0.00  0.00     0.015 A 
ATOM     31  C24 <0> d          -0.014   0.250  -4.925  0.00  0.00     0.050 C 
ATOM     32  C21 <0> d          -2.811  -0.674  -7.286  0.00  0.00    -0.061 A 
ATOM     33  C20 <0> d          -3.266  -1.857  -6.732  0.00  0.00     0.009 A 
ATOM     34  C25 <0> d          -3.466  -0.124  -8.527  0.00  0.00     0.048 C 
ATOM     35  C19 <0> d          -2.668  -2.364  -5.595  0.00  0.00     0.031 A 
ENDBRANCH   5  28
TORSDOF 3
