REMARK  1 active torsions:
REMARK  status: ('A' for Active; 'I' for Inactive)
REMARK    1  A    between atoms: N1_10  and  C10_11 
ROOT
ATOM      1  C1  <0> d          -0.020   1.505  -0.258  0.00  0.00     0.001 C 
ATOM      2  C2  <0> d           1.414   2.039  -0.262  0.00  0.00     0.002 C 
ATOM      3  C3  <0> d           2.111   1.640   1.040  0.00  0.00     0.034 C 
ATOM      4  C4  <0> d           2.136   0.115   1.158  0.00  0.00     0.193 C 
ATOM      5  C5  <0> d           0.701  -0.417   1.166  0.00  0.00     0.016 C 
ATOM      6  C6  <0> d           0.004  -0.020  -0.137  0.00  0.00     0.007 C 
ATOM      7  C7  <0> d           0.729  -1.944   1.283  0.00  0.00     0.008 C 
ATOM      8  C8  <0> d           1.555  -2.520   0.129  0.00  0.00     0.028 C 
ATOM      9  C9  <0> d           2.958  -1.910   0.160  0.00  0.00     0.236 C 
ATOM     10  N1  <0> d           2.865  -0.452   0.017  0.00  0.00    -0.061 N 
ATOM     11  H27 <0> d           2.376  -0.229  -0.837  0.00  0.00     0.280 HD
ENDROOT
BRANCH  10  12
ATOM     12  C10 <0> d           4.217   0.120  -0.032  0.00  0.00     0.214 C 
ATOM     13  C14 <0> d           5.003  -0.321   1.205  0.00  0.00     0.265 C 
ATOM     14  N2  <0> d           6.356   0.247   1.157  0.00  0.00    -0.073 N 
ATOM     15  C13 <0> d           7.076  -0.277  -0.010  0.00  0.00     0.232 C 
ATOM     16  H24 <0> d           6.854  -0.001   1.998  0.00  0.00     0.277 HD
ATOM     17  H28 <0> d           6.295   1.252   1.089  0.00  0.00     0.277 HD
ATOM     18  C12 <0> d           6.369   0.166  -1.292  0.00  0.00     0.029 C 
ATOM     19  C11 <0> d           4.936  -0.373  -1.291  0.00  0.00     0.036 C 
ENDBRANCH  10  12
TORSDOF 1
