REMARK  6 active torsions:
REMARK  status: ('A' for Active; 'I' for Inactive)
REMARK    1  A    between atoms: N2_6  and  C5_9 
REMARK    2  A    between atoms: C5_9  and  C6_10 
REMARK    3  A    between atoms: C6_10  and  C7_11 
REMARK    4  A    between atoms: C6_10  and  O4_23 
REMARK    5  A    between atoms: C7_11  and  O3_12 
REMARK    6  A    between atoms: O3_12  and  C8_13 
ROOT
ATOM      1  C6  <0> d           2.046  -3.599  -1.460  0.00  0.00     0.160 C 
ENDROOT
BRANCH   1   2
ATOM      2  C5  <0> d           1.650  -3.284  -0.016  0.00  0.00     0.170 C 
BRANCH   2   3
ATOM      3  N2  <0> d           0.659  -2.204  -0.005  0.00  0.00    -0.266 N 
ATOM      4  C3  <0> d          -0.673  -2.399  -0.060  0.00  0.00     0.245 A 
ATOM      5  C2  <0> d          -1.291  -1.015  -0.023  0.00  0.00     0.230 A 
ATOM      6  O1  <0> d          -1.256  -3.460  -0.127  0.00  0.00    -0.271 OA
ATOM      7  N1  <0> d          -0.126  -0.117   0.056  0.00  0.00    -0.329 N 
ATOM      8  C1  <0> d          -0.151   1.346   0.117  0.00  0.00     0.155 C 
ATOM      9  C4  <0> d           0.966  -0.903   0.056  0.00  0.00     0.327 A 
ATOM     10  O2  <0> d           2.104  -0.479   0.108  0.00  0.00    -0.247 OA
ENDBRANCH   2   3
ENDBRANCH   1   2
BRANCH   1  11
ATOM     11  C7  <0> d           2.984  -4.807  -1.479  0.00  0.00     0.201 C 
BRANCH  11  12
ATOM     12  O3  <0> d           3.261  -5.173  -2.833  0.00  0.00    -0.379 OA
BRANCH  12  13
ATOM     13  C8  <0> d           4.213  -6.231  -2.966  0.00  0.00     0.155 C 
ATOM     14  C13 <0> d           3.938  -6.988  -4.238  0.00  0.00    -0.023 A 
ATOM     15  C12 <0> d           4.941  -7.407  -5.083  0.00  0.00    -0.049 A 
ATOM     16  C14 <0> d           2.615  -7.268  -4.552  0.00  0.00     0.010 A 
ATOM     17  C11 <0> d           6.397  -7.133  -4.811  0.00  0.00     0.039 C 
ATOM     18  C17 <0> d           4.620  -8.108  -6.238  0.00  0.00     0.007 A 
ATOM     19  C10 <0> d           6.608  -6.759  -3.345  0.00  0.00     0.007 C 
ATOM     20  C9  <0> d           5.622  -5.641  -2.985  0.00  0.00     0.037 C 
ATOM     21  C16 <0> d           3.306  -8.385  -6.548  0.00  0.00     0.001 A 
ATOM     22  C15 <0> d           2.298  -7.962  -5.701  0.00  0.00     0.001 A 
ENDBRANCH  12  13
ENDBRANCH  11  12
ENDBRANCH   1  11
BRANCH   1  23
ATOM     23  O4  <0> d           2.712  -2.469  -2.028  0.00  0.00    -0.392 OA
ATOM     24  H22 <0> d           3.518  -2.212  -1.561  0.00  0.00     0.210 HD
ENDBRANCH   1  23
TORSDOF 6
