REMARK  5 active torsions:
REMARK  status: ('A' for Active; 'I' for Inactive)
REMARK    1  A    between atoms: N1_5  and  C10_13 
REMARK    2  A    between atoms: C10_13  and  C12_15 
REMARK       I    between atoms: C12_15  and  N2_17 
REMARK    3  A    between atoms: N2_17  and  C13_18 
REMARK    4  A    between atoms: C13_18  and  C14_19 
REMARK    5  A    between atoms: C14_19  and  N3_21 
ROOT
ATOM      1  C12 <0> d          -4.035  -1.996  -0.434  0.00  0.00     0.240 C 
ATOM      2  O3  <0> d          -3.154  -1.689  -1.209  0.00  0.00    -0.271 OA
ATOM      3  N2  <0> d          -5.143  -2.616  -0.885  0.00  0.00    -0.357 N 
ATOM      4  H14 <0> d          -5.847  -2.862  -0.265  0.00  0.00     0.162 HD
ENDROOT
BRANCH   1   5
ATOM      5  C10 <0> d          -3.889  -1.685   1.033  0.00  0.00     0.181 C 
ATOM      6  C11 <0> d          -5.032  -0.768   1.476  0.00  0.00     0.043 C 
BRANCH   5   7
ATOM      7  N1  <0> d          -2.608  -1.015   1.266  0.00  0.00    -0.300 N 
ATOM      8  C3  <0> d          -2.328   0.160   0.660  0.00  0.00     0.254 C 
ATOM      9  C2  <0> d          -0.989   0.815   0.882  0.00  0.00     0.217 C 
ATOM     10  O1  <0> d          -3.151   0.685  -0.059  0.00  0.00    -0.270 OA
ATOM     11  C1  <0> d          -1.133   2.331   0.740  0.00  0.00     0.050 C 
ATOM     12  O2  <0> d          -0.513   0.503   2.195  0.00  0.00    -0.335 OA
ATOM     13  C9  <0> d          -0.598  -0.797   2.583  0.00  0.00     0.096 A 
ATOM     14  C4  <0> d          -1.652  -1.583   2.121  0.00  0.00     0.071 A 
ATOM     15  C8  <0> d           0.351  -1.345   3.428  0.00  0.00     0.039 A 
ATOM     16  C5  <0> d          -1.748  -2.910   2.506  0.00  0.00     0.033 A 
ATOM     17  C6  <0> d          -0.795  -3.450   3.351  0.00  0.00     0.002 A 
ATOM     18  C7  <0> d           0.250  -2.671   3.810  0.00  0.00     0.003 A 
ENDBRANCH   5   7
ENDBRANCH   1   5
BRANCH   3  19
ATOM     19  C13 <0> d          -5.284  -2.919  -2.311  0.00  0.00     0.155 C 
BRANCH  19  20
ATOM     20  C14 <0> d          -6.558  -3.736  -2.536  0.00  0.00     0.202 C 
ATOM     21  C15 <0> d          -6.654  -4.137  -4.009  0.00  0.00     0.042 C 
BRANCH  20  22
ATOM     22  N3  <0> d          -6.518  -4.944  -1.701  0.00  0.00    -0.066 N 
ATOM     23  C20 <0> d          -5.427  -5.815  -2.155  0.00  0.00     0.235 C 
ATOM     24  C19 <0> d          -5.330  -7.037  -1.239  0.00  0.00     0.032 C 
ATOM     25  C18 <0> d          -6.652  -7.808  -1.282  0.00  0.00    -0.015 C 
ATOM     26  C17 <0> d          -7.793  -6.869  -0.879  0.00  0.00     0.032 C 
ATOM     27  C21 <0> d          -6.590  -8.986  -0.308  0.00  0.00     0.010 C 
ATOM     28  C16 <0> d          -7.799  -5.654  -1.808  0.00  0.00     0.235 C 
ATOM     29  H32 <0> d          -6.361  -4.683  -0.740  0.00  0.00     0.280 HD
ENDBRANCH  20  22
ENDBRANCH  19  20
ENDBRANCH   3  19
TORSDOF 5
