REMARK  4 active torsions:
REMARK  status: ('A' for Active; 'I' for Inactive)
REMARK    1  A    between atoms: C3_3  and  O1_8 
REMARK    2  A    between atoms: O1_8  and  C7_9 
REMARK    3  A    between atoms: C10_12  and  C12_15 
REMARK       I    between atoms: C12_15  and  N2_17 
REMARK    4  A    between atoms: N2_17  and  C13_18 
ROOT
ATOM      1  C12 <0> d           8.247  -0.844   0.320  0.00  0.00     0.257 C 
ATOM      2  O2  <0> d           9.335  -0.302   0.379  0.00  0.00    -0.267 OA
ATOM      3  N2  <0> d           8.163  -2.189   0.322  0.00  0.00    -0.323 N 
ATOM      4  H10 <0> d           7.305  -2.622   0.190  0.00  0.00     0.169 HD
ENDROOT
BRANCH   1   5
ATOM      5  C10 <0> d           7.020  -0.028   0.246  0.00  0.00     0.050 A 
ATOM      6  C9  <0> d           7.095   1.373   0.243  0.00  0.00     0.023 A 
ATOM      7  C8  <0> d           5.920   2.092   0.172  0.00  0.00     0.059 A 
ATOM      8  C7  <0> d           4.708   1.411   0.106  0.00  0.00     0.169 A 
ATOM      9  N1  <0> d           4.670   0.087   0.116  0.00  0.00    -0.236 NA
ATOM     10  C11 <0> d           5.767  -0.638   0.177  0.00  0.00     0.136 A 
BRANCH   8  11
ATOM     11  O1  <0> d           3.551   2.112   0.036  0.00  0.00    -0.292 OA
BRANCH  11  12
ATOM     12  C3  <0> d           2.382   1.420   0.082  0.00  0.00     0.079 A 
ATOM     13  C2  <0> d           2.029   0.730   1.232  0.00  0.00     0.037 A 
ATOM     14  C1  <0> d           0.840   0.027   1.278  0.00  0.00     0.004 A 
ATOM     15  C6  <0> d           0.002   0.012   0.178  0.00  0.00     0.019 A 
ATOM     16  C5  <0> d           0.352   0.699  -0.971  0.00  0.00     0.013 A 
ATOM     17  C4  <0> d           1.540   1.403  -1.021  0.00  0.00     0.056 A 
ATOM     18 Br1  <0> d          -0.796   0.675  -2.473  0.00  0.00    -0.051 Br
ENDBRANCH  11  12
ENDBRANCH   8  11
ENDBRANCH   1   5
BRANCH   3  19
ATOM     19  C13 <0> d           9.315  -2.962   0.516  0.00  0.00     0.037 A 
ATOM     20  C18 <0> d           9.377  -4.251   0.007  0.00  0.00     0.061 A 
ATOM     21  C17 <0> d          10.520  -5.011   0.196  0.00  0.00     0.065 A 
ATOM     22  C16 <0> d          11.599  -4.482   0.907  0.00  0.00     0.063 A 
ATOM     23  N3  <0> d          10.882  -6.301  -0.185  0.00  0.00    -0.306 N 
ATOM     24  C15 <0> d          11.528  -3.195   1.419  0.00  0.00     0.034 A 
ATOM     25  N4  <0> d          12.585  -5.469   0.936  0.00  0.00    -0.307 N 
ATOM     26  C14 <0> d          10.391  -2.438   1.224  0.00  0.00     0.032 A 
ATOM     27  C19 <0> d          12.124  -6.547   0.273  0.00  0.00     0.325 A 
ATOM     28  H2  <0> d          13.453  -5.392   1.361  0.00  0.00     0.170 HD
ATOM     29  O3  <0> d          12.738  -7.585   0.112  0.00  0.00    -0.247 OA
ATOM     30  H1  <0> d          10.333  -6.918  -0.694  0.00  0.00     0.170 HD
ENDBRANCH   3  19
TORSDOF 4
