REMARK  2 active torsions:
REMARK  status: ('A' for Active; 'I' for Inactive)
REMARK    1  A    between atoms: C9_11  and  C13_18 
REMARK    2  A    between atoms: C11_13  and  N2_15 
ROOT
ATOM      1  C1  <0> d          -0.018   1.503   0.010  0.00  0.00     0.049 C 
ATOM      2  C2  <0> d           0.002  -0.004   0.002  0.00  0.00    -0.044 A 
ATOM      3  C3  <0> d           0.006  -0.696  -1.187  0.00  0.00     0.034 A 
ATOM      4  C4  <0> d           0.025  -2.082  -1.192  0.00  0.00     0.032 A 
ATOM      5  N1  <0> d           0.039  -2.754  -0.057  0.00  0.00    -0.246 NA
ATOM      6  C5  <0> d           0.036  -2.137   1.103  0.00  0.00     0.112 A 
ATOM      7  C6  <0> d           0.024  -0.729   1.217  0.00  0.00     0.041 A 
ATOM      8  C7  <0> d           0.029  -0.206   2.585  0.00  0.00     0.105 A 
ATOM      9  C8  <0> d           0.050  -1.110   3.590  0.00  0.00     0.033 A 
ATOM     10  S1  <0> d           0.050  -2.689   2.792  0.00  0.00    -0.070 SA
ATOM     11  C9  <0> d           0.059  -0.792   5.052  0.00  0.00     0.109 C 
ATOM     12  C10 <0> d          -0.269   0.675   5.209  0.00  0.00     0.086 C 
ATOM     13  C11 <0> d          -0.267   1.510   4.144  0.00  0.00     0.159 C 
ATOM     14  O1  <0> d           0.016   1.140   2.885  0.00  0.00    -0.291 OA
ATOM     15  C12 <0> d          -0.586   1.191   6.506  0.00  0.00     0.100 C 
ATOM     16  N3  <0> d          -0.838   1.599   7.536  0.00  0.00    -0.191 NA
ATOM     17  C19 <0> d           0.029  -2.826  -2.503  0.00  0.00     0.070 C 
ENDROOT
BRANCH  11  18
ATOM     18  C13 <0> d           1.422  -1.076   5.628  0.00  0.00    -0.043 A 
ATOM     19  C18 <0> d           1.564  -2.002   6.644  0.00  0.00     0.027 A 
ATOM     20  C17 <0> d           2.817  -2.267   7.169  0.00  0.00     0.011 A 
ATOM     21  C16 <0> d           3.925  -1.596   6.683  0.00  0.00     0.019 A 
ATOM     22 Br1  <0> d           3.012  -3.539   8.553  0.00  0.00    -0.051 Br
ATOM     23  C15 <0> d           3.781  -0.666   5.671  0.00  0.00     0.002 A 
ATOM     24  C14 <0> d           2.530  -0.406   5.143  0.00  0.00     0.008 A 
ENDBRANCH  11  18
BRANCH  13  25
ATOM     25  N2  <0> d          -0.578   2.829   4.367  0.00  0.00    -0.379 N 
ATOM     26  H6  <0> d          -0.788   3.133   5.263  0.00  0.00     0.158 HD
ATOM     27  H7  <0> d          -0.587   3.457   3.627  0.00  0.00     0.158 HD
ENDBRANCH  13  25
TORSDOF 2
