REMARK  8 active torsions:
REMARK  status: ('A' for Active; 'I' for Inactive)
REMARK    1  A    between atoms: C2_2  and  N1_3 
REMARK    2  A    between atoms: N1_3  and  C3_4 
REMARK    3  A    between atoms: N1_3  and  C5_6 
REMARK    4  A    between atoms: C5_6  and  C6_7 
REMARK    5  A    between atoms: C9_10  and  C12_13 
REMARK       I    between atoms: C12_13  and  N2_15 
REMARK    6  A    between atoms: N2_15  and  C13_16 
REMARK    7  A    between atoms: C15_18  and  S1_24 
REMARK    8  A    between atoms: S1_24  and  N3_27 
ROOT
ATOM      1  C12 <0> d           1.159  -2.692   5.051  0.00  0.00     0.256 C 
ATOM      2  O1  <0> d           2.360  -2.877   5.090  0.00  0.00    -0.267 OA
ATOM      3  N2  <0> d           0.437  -2.713   6.188  0.00  0.00    -0.322 N 
ATOM      4  H17 <0> d          -0.529  -2.631   6.151  0.00  0.00     0.169 HD
ENDROOT
BRANCH   3   5
ATOM      5  C13 <0> d           1.080  -2.852   7.422  0.00  0.00     0.043 A 
ATOM      6  C18 <0> d           0.493  -2.343   8.574  0.00  0.00    -0.029 A 
ATOM      7  C17 <0> d           1.128  -2.488   9.792  0.00  0.00    -0.052 A 
ATOM      8  C19 <0> d          -0.838  -1.641   8.495  0.00  0.00     0.051 C 
ATOM      9  C16 <0> d           2.352  -3.128   9.864  0.00  0.00     0.032 A 
ATOM     10  C20 <0> d           0.488  -1.943  11.043  0.00  0.00     0.049 C 
ATOM     11  C15 <0> d           2.942  -3.630   8.718  0.00  0.00     0.082 A 
ATOM     12  C14 <0> d           2.309  -3.494   7.498  0.00  0.00     0.055 A 
BRANCH  11  13
ATOM     13  S1  <0> d           4.501  -4.444   8.816  0.00  0.00     0.256 S 
ATOM     14  O2  <0> d           4.627  -4.922  10.148  0.00  0.00    -0.201 OA
ATOM     15  O3  <0> d           4.582  -5.303   7.687  0.00  0.00    -0.201 OA
BRANCH  13  16
ATOM     16  N3  <0> d           5.670  -3.288   8.615  0.00  0.00    -0.324 N 
ATOM     17  H26 <0> d           5.418  -2.362   8.477  0.00  0.00     0.169 HD
ATOM     18  H27 <0> d           6.607  -3.538   8.637  0.00  0.00     0.169 HD
ENDBRANCH  13  16
ENDBRANCH  11  13
ENDBRANCH   3   5
BRANCH   1  19
ATOM     19  C9  <0> d           0.491  -2.445   3.755  0.00  0.00     0.032 A 
ATOM     20  C8  <0> d           1.237  -2.423   2.575  0.00  0.00     0.017 A 
ATOM     21  C7  <0> d           0.607  -2.192   1.370  0.00  0.00     0.010 A 
ATOM     22  C6  <0> d          -0.760  -1.982   1.329  0.00  0.00    -0.033 A 
ATOM     23  C11 <0> d          -1.504  -1.996   2.495  0.00  0.00     0.010 A 
ATOM     24  C10 <0> d          -0.887  -2.232   3.707  0.00  0.00     0.017 A 
BRANCH  22  25
ATOM     25  C5  <0> d          -1.441  -1.730   0.008  0.00  0.00     0.273 C 
BRANCH  25  26
ATOM     26  N1  <0> d          -1.452  -0.287  -0.270  0.00  0.00    -0.068 N 
ATOM     27  H28 <0> d          -1.879   0.201   0.503  0.00  0.00     0.280 HD
BRANCH  26  28
ATOM     28  C2  <0> d          -0.073   0.188  -0.447  0.00  0.00     0.231 C 
ATOM     29  C1  <0> d          -0.074   1.710  -0.598  0.00  0.00     0.034 C 
ENDBRANCH  26  28
BRANCH  26  30
ATOM     30  C3  <0> d          -2.219  -0.031  -1.496  0.00  0.00     0.231 C 
ATOM     31  C4  <0> d          -3.688  -0.394  -1.264  0.00  0.00     0.034 C 
ENDBRANCH  26  30
ENDBRANCH  25  26
ENDBRANCH  22  25
ENDBRANCH   1  19
TORSDOF 8
