REMARK  5 active torsions:
REMARK  status: ('A' for Active; 'I' for Inactive)
REMARK    1  A    between atoms: C3_3  and  C6_7 
REMARK    2  A    between atoms: C6_7  and  N2_8 
REMARK       I    between atoms: N2_8  and  C7_9 
REMARK    3  A    between atoms: C7_9  and  C8_11 
REMARK    4  A    between atoms: C11_14  and  N3_17 
REMARK    5  A    between atoms: N3_17  and  C14_18 
ROOT
ATOM      1  C8  <0> d          -4.484   4.543  -3.114  0.00  0.00     0.032 A 
ATOM      2  C9  <0> d          -3.732   4.224  -4.248  0.00  0.00     0.019 A 
ATOM      3  C10 <0> d          -4.132   4.673  -5.486  0.00  0.00     0.030 A 
ATOM      4  C11 <0> d          -5.279   5.453  -5.608  0.00  0.00     0.034 A 
ATOM      5  C12 <0> d          -6.026   5.777  -4.480  0.00  0.00     0.030 A 
ATOM      6  C13 <0> d          -5.635   5.327  -3.239  0.00  0.00     0.019 A 
ENDROOT
BRANCH   4   7
ATOM      7  N3  <0> d          -5.678   5.910  -6.861  0.00  0.00    -0.336 N 
ATOM      8  H14 <0> d          -6.617   6.071  -7.043  0.00  0.00     0.168 HD
BRANCH   7   9
ATOM      9  C14 <0> d          -4.739   6.135  -7.844  0.00  0.00     0.163 C 
ATOM     10  S2  <0> d          -5.037   6.597  -9.558  0.00  0.00    -0.084 SA
ATOM     11  C18 <0> d          -3.405   6.064 -10.185  0.00  0.00     0.095 C 
ATOM     12  C15 <0> d          -2.647   6.454  -8.864  0.00  0.00     0.139 C 
ATOM     13  C17 <0> d          -2.776   6.966 -11.253  0.00  0.00     0.158 C 
ATOM     14  N4  <0> d          -3.415   6.063  -7.730  0.00  0.00    -0.259 NA
ATOM     15  C16 <0> d          -1.171   6.175  -9.070  0.00  0.00     0.168 C 
ATOM     16  S1  <0> d          -0.989   6.680 -10.844  0.00  0.00     0.147 S 
ATOM     17  O2  <0> d          -0.514   5.571 -11.595  0.00  0.00    -0.228 OA
ATOM     18  O3  <0> d          -0.295   7.918 -10.905  0.00  0.00    -0.228 OA
ENDBRANCH   7   9
ENDBRANCH   4   7
BRANCH   1  19
ATOM     19  C7  <0> d          -4.061   4.059  -1.786  0.00  0.00     0.251 C 
ATOM     20  N2  <0> d          -2.951   3.303  -1.666  0.00  0.00    -0.353 N 
ATOM     21  H9  <0> d          -2.431   3.078  -2.453  0.00  0.00     0.163 HD
ATOM     22  O1  <0> d          -4.713   4.341  -0.799  0.00  0.00    -0.268 OA
BRANCH  20  23
ATOM     23  C6  <0> d          -2.531   2.822  -0.347  0.00  0.00     0.162 C 
BRANCH  23  24
ATOM     24  C3  <0> d          -1.272   2.006  -0.488  0.00  0.00    -0.023 A 
ATOM     25  C2  <0> d          -1.342   0.640  -0.710  0.00  0.00     0.012 A 
ATOM     26  C1  <0> d          -0.157  -0.071  -0.828  0.00  0.00     0.020 A 
ATOM     27  C5  <0> d           1.045   0.603  -0.732  0.00  0.00     0.116 A 
ATOM     28  N1  <0> d           1.074   1.905  -0.525  0.00  0.00    -0.273 NA
ATOM     29  C4  <0> d          -0.033   2.612  -0.403  0.00  0.00     0.124 A 
ENDBRANCH  23  24
ENDBRANCH  20  23
ENDBRANCH   1  19
TORSDOF 5
