REMARK  8 active torsions:
REMARK  status: ('A' for Active; 'I' for Inactive)
REMARK    1  A    between atoms: C4_4  and  N3_17 
REMARK    2  A    between atoms: C5_5  and  N1_7 
REMARK       I    between atoms: N1_7  and  C7_8 
REMARK    3  A    between atoms: C7_8  and  C8_10 
REMARK    4  A    between atoms: C8_10  and  S1_11 
REMARK    5  A    between atoms: S1_11  and  C9_12 
REMARK       I    between atoms: N3_17  and  C12_18 
REMARK    6  A    between atoms: C12_18  and  C13_20 
REMARK    7  A    between atoms: C13_20  and  S3_21 
REMARK    8  A    between atoms: S3_21  and  C14_22 
ROOT
ATOM      1  C1  <0> d           0.295   1.511   0.150  0.00  0.00     0.002 A 
ATOM      2  C2  <0> d           1.532   2.130   0.175  0.00  0.00     0.002 A 
ATOM      3  C3  <0> d           2.688   1.374   0.147  0.00  0.00     0.032 A 
ATOM      4  C4  <0> d           2.611  -0.010   0.093  0.00  0.00     0.061 A 
ATOM      5  C5  <0> d           1.365  -0.634   0.068  0.00  0.00     0.061 A 
ATOM      6  C6  <0> d           0.209   0.132   0.096  0.00  0.00     0.032 A 
ENDROOT
BRANCH   4   7
ATOM      7  N3  <0> d           3.782  -0.778   0.064  0.00  0.00    -0.325 N 
ATOM      8  C12 <0> d           4.923  -0.287   0.587  0.00  0.00     0.231 C 
ATOM      9  O2  <0> d           4.954   0.846   1.019  0.00  0.00    -0.272 OA
ATOM     10  H12 <0> d           3.772  -1.663  -0.333  0.00  0.00     0.169 HD
BRANCH   8  11
ATOM     11  C13 <0> d           6.160  -1.146   0.635  0.00  0.00     0.184 C 
BRANCH  11  12
ATOM     12  S3  <0> d           7.518  -0.209   1.389  0.00  0.00    -0.094 SA
BRANCH  12  13
ATOM     13  C14 <0> d           8.874  -1.334   1.373  0.00  0.00     0.125 C 
ATOM     14  S4  <0> d          10.529  -1.041   1.975  0.00  0.00    -0.102 SA
ATOM     15  C16 <0> d          11.341  -2.512   1.217  0.00  0.00     0.103 C 
ATOM     16  C15 <0> d          10.073  -3.379   0.988  0.00  0.00     0.161 C 
ATOM     17  N4  <0> d           8.881  -2.554   0.913  0.00  0.00    -0.275 NA
ENDBRANCH  12  13
ENDBRANCH  11  12
ENDBRANCH   8  11
ENDBRANCH   4   7
BRANCH   5  18
ATOM     18  N1  <0> d           1.280  -2.031   0.013  0.00  0.00    -0.325 N 
ATOM     19  C7  <0> d           0.277  -2.619  -0.669  0.00  0.00     0.231 C 
ATOM     20  O1  <0> d          -0.494  -1.943  -1.317  0.00  0.00    -0.272 OA
ATOM     21  H5  <0> d           1.943  -2.575   0.466  0.00  0.00     0.169 HD
BRANCH  19  22
ATOM     22  C8  <0> d           0.113  -4.117  -0.626  0.00  0.00     0.184 C 
BRANCH  22  23
ATOM     23  S1  <0> d          -1.316  -4.598  -1.635  0.00  0.00    -0.094 SA
BRANCH  23  24
ATOM     24  C9  <0> d          -1.373  -6.352  -1.485  0.00  0.00     0.125 C 
ATOM     25  S2  <0> d          -2.549  -7.465  -2.237  0.00  0.00    -0.102 SA
ATOM     26  C11 <0> d          -2.140  -8.971  -1.259  0.00  0.00     0.103 C 
ATOM     27  C10 <0> d          -0.722  -8.555  -0.782  0.00  0.00     0.161 C 
ATOM     28  N2  <0> d          -0.568  -7.112  -0.795  0.00  0.00    -0.275 NA
ENDBRANCH  23  24
ENDBRANCH  22  23
ENDBRANCH  19  22
ENDBRANCH   5  18
TORSDOF 8
