REMARK  6 active torsions:
REMARK  status: ('A' for Active; 'I' for Inactive)
REMARK    1  A    between atoms: C3_4  and  C7_11 
REMARK    2  A    between atoms: C7_11  and  C8_13 
REMARK    3  A    between atoms: C8_13  and  O4_14 
REMARK    4  A    between atoms: O4_14  and  C9_15 
REMARK    5  A    between atoms: C9_15  and  C10_17 
REMARK    6  A    between atoms: C14_22  and  S1_23 
ROOT
ATOM      1  C7  <0> d          -6.044   3.237   0.054  0.00  0.00     0.192 C 
ATOM      2  O3  <0> d          -5.920   2.029   0.063  0.00  0.00    -0.290 OA
ENDROOT
BRANCH   1   3
ATOM      3  C3  <0> d          -7.332   3.814   0.081  0.00  0.00     0.124 A 
ATOM      4  C2  <0> d          -8.486   3.017  -0.005  0.00  0.00     0.124 A 
ATOM      5  N1  <0> d          -9.711   3.621   0.031  0.00  0.00    -0.289 N 
ATOM      6  N4  <0> d          -8.385   1.665  -0.117  0.00  0.00    -0.384 N 
ATOM      7  C1  <0> d         -10.920   2.798  -0.053  0.00  0.00     0.163 C 
ATOM      8  C5  <0> d          -9.828   4.954   0.135  0.00  0.00     0.332 A 
ATOM      9  N2  <0> d          -8.762   5.767   0.216  0.00  0.00    -0.270 N 
ATOM     10  O2  <0> d         -10.941   5.443   0.158  0.00  0.00    -0.246 OA
ATOM     11  C4  <0> d          -7.509   5.268   0.195  0.00  0.00     0.269 A 
ATOM     12  C6  <0> d          -8.963   7.213   0.328  0.00  0.00     0.164 C 
ATOM     13  O1  <0> d          -6.545   6.007   0.268  0.00  0.00    -0.267 OA
ATOM     14  H15 <0> d          -7.517   1.236  -0.058  0.00  0.00     0.157 HD
ATOM     15  H16 <0> d          -9.182   1.129  -0.257  0.00  0.00     0.157 HD
ENDBRANCH   1   3
BRANCH   1  16
ATOM     16  C8  <0> d          -4.824   4.120   0.015  0.00  0.00     0.263 C 
BRANCH  16  17
ATOM     17  O4  <0> d          -3.630   3.295  -0.007  0.00  0.00    -0.310 OA
BRANCH  17  18
ATOM     18  C9  <0> d          -2.444   3.934  -0.043  0.00  0.00     0.296 C 
ATOM     19  O5  <0> d          -2.409   5.149  -0.055  0.00  0.00    -0.259 OA
BRANCH  18  20
ATOM     20  C10 <0> d          -1.191   3.162  -0.067  0.00  0.00     0.074 A 
ATOM     21  C14 <0> d           0.054   3.816  -0.104  0.00  0.00     0.108 A 
ATOM     22  N3  <0> d           1.178   3.114  -0.126  0.00  0.00    -0.253 NA
ATOM     23  C13 <0> d           1.174   1.796  -0.112  0.00  0.00     0.118 A 
ATOM     24  C12 <0> d          -0.011   1.082  -0.076  0.00  0.00     0.020 A 
ATOM     25  C11 <0> d          -1.216   1.761  -0.058  0.00  0.00     0.022 A 
BRANCH  21  26
ATOM     26  S1  <0> d           0.118   5.576  -0.124  0.00  0.00    -0.114 SA
ATOM     27  C15 <0> d           1.911   5.825  -0.172  0.00  0.00     0.097 C 
ENDBRANCH  21  26
ENDBRANCH  18  20
ENDBRANCH  17  18
ENDBRANCH  16  17
ENDBRANCH   1  16
TORSDOF 6
