REMARK  5 active torsions:
REMARK  status: ('A' for Active; 'I' for Inactive)
REMARK    1  A    between atoms: C10_11  and  C11_12 
REMARK    2  A    between atoms: C10_11  and  O4_16 
REMARK    3  A    between atoms: C11_12  and  C12_14 
REMARK    4  A    between atoms: C12_14  and  O3_15 
REMARK    5  A    between atoms: C19_24  and  O6_27 
ROOT
ATOM      1  C1  <0> d           0.191   1.393   0.224  0.00  0.00     0.019 C 
ATOM      2  C2  <0> d           0.079  -0.133   0.245  0.00  0.00     0.005 C 
ATOM      3  C3  <0> d           0.896  -0.727  -0.890  0.00  0.00     0.091 C 
ATOM      4  C4  <0> d           2.340  -0.305  -0.651  0.00  0.00     0.133 C 
ATOM      5  O1  <0> d           2.986   0.191  -1.543  0.00  0.00    -0.297 OA
ATOM      6  C5  <0> d           2.954  -0.514   0.708  0.00  0.00     0.074 C 
ATOM      7  C6  <0> d           1.994  -0.016   1.805  0.00  0.00     0.003 C 
ATOM      8  C7  <0> d           0.656  -0.687   1.577  0.00  0.00     0.002 C 
ATOM      9  C8  <0> d          -0.441  -0.301   2.578  0.00  0.00     0.009 C 
ATOM     10  C9  <0> d          -1.749  -0.607   1.802  0.00  0.00     0.047 C 
ATOM     11  C10 <0> d          -1.390  -0.545   0.298  0.00  0.00     0.128 C 
ATOM     12  C13 <0> d           2.565  -0.359   3.178  0.00  0.00     0.010 C 
ATOM     13  C14 <0> d           3.884   0.398   3.387  0.00  0.00     0.036 C 
ATOM     14  C15 <0> d           4.803   0.070   2.223  0.00  0.00    -0.065 C 
ATOM     15  C16 <0> d           6.032  -0.369   2.483  0.00  0.00     0.054 C 
ATOM     16  C17 <0> d           6.913  -0.729   1.363  0.00  0.00     0.152 C 
ATOM     17  O5  <0> d           8.122  -0.695   1.459  0.00  0.00    -0.293 OA
ATOM     18  C18 <0> d           6.220  -1.147   0.080  0.00  0.00     0.116 C 
ATOM     19  C19 <0> d           5.223  -0.046  -0.285  0.00  0.00     0.141 C 
ATOM     20  C20 <0> d           4.259   0.268   0.838  0.00  0.00     0.017 C 
ATOM     21  C21 <0> d           3.893   1.747   0.705  0.00  0.00     0.023 C 
ENDROOT
BRANCH  11  22
ATOM     22  C11 <0> d          -1.574  -1.899  -0.338  0.00  0.00     0.184 C 
ATOM     23  O2  <0> d          -1.457  -2.900   0.328  0.00  0.00    -0.292 OA
BRANCH  22  24
ATOM     24  C12 <0> d          -1.905  -2.004  -1.805  0.00  0.00     0.245 C 
BRANCH  24  25
ATOM     25  O3  <0> d          -2.029  -3.381  -2.168  0.00  0.00    -0.393 OA
ATOM     26  H16 <0> d          -2.241  -3.524  -3.100  0.00  0.00     0.209 HD
ENDBRANCH  24  25
ENDBRANCH  22  24
ENDBRANCH  11  22
BRANCH  11  27
ATOM     27  O4  <0> d          -2.201   0.427  -0.364  0.00  0.00    -0.381 OA
ATOM     28  H17 <0> d          -3.145   0.219  -0.363  0.00  0.00     0.211 HD
ENDBRANCH  11  27
BRANCH  19  29
ATOM     29  O6  <0> d           5.946   1.143  -0.609  0.00  0.00    -0.389 OA
ATOM     30  C22 <0> d           6.289   1.256  -1.991  0.00  0.00     0.202 C 
ENDBRANCH  19  29
TORSDOF 5
