REMARK  8 active torsions:
REMARK  status: ('A' for Active; 'I' for Inactive)
REMARK    1  A    between atoms: N1_5  and  C5_7 
REMARK    2  A    between atoms: C5_7  and  C6_8 
REMARK    3  A    between atoms: C6_8  and  C7_9 
REMARK    4  A    between atoms: C7_9  and  N3_10 
REMARK       I    between atoms: N3_10  and  C8_11 
REMARK    5  A    between atoms: C8_11  and  C9_13 
REMARK       I    between atoms: N4_15  and  C17_23 
REMARK    6  A    between atoms: C17_23  and  C18_25 
REMARK    7  A    between atoms: C23_30  and  O3_31 
REMARK    8  A    between atoms: O3_31  and  C24_32 
ROOT
ATOM      1  C9  <0> d           4.143  -6.849   4.232  0.00  0.00     0.106 C 
ATOM      2  C10 <0> d           5.010  -5.670   4.728  0.00  0.00     0.141 C 
ATOM      3  N4  <0> d           5.129  -5.882   6.190  0.00  0.00    -0.346 N 
ATOM      4  C11 <0> d           5.288  -7.349   6.338  0.00  0.00     0.136 C 
ATOM      5  C12 <0> d           4.331  -7.950   5.289  0.00  0.00    -0.007 C 
ATOM      6  C13 <0> d           4.954  -9.190   4.655  0.00  0.00     0.039 C 
ATOM      7  C14 <0> d           5.077 -10.291   5.713  0.00  0.00     0.233 C 
ATOM      8  N5  <0> d           3.748 -10.607   6.250  0.00  0.00    -0.075 N 
ATOM      9  C15 <0> d           3.196  -9.434   6.939  0.00  0.00     0.233 C 
ATOM     10  C16 <0> d           2.993  -8.297   5.934  0.00  0.00     0.039 C 
ATOM     11  C17 <0> d           5.100  -4.952   7.165  0.00  0.00     0.256 C 
ATOM     12  O2  <0> d           5.306  -5.274   8.319  0.00  0.00    -0.267 OA
ATOM     13  H21 <0> d           3.135 -10.870   5.494  0.00  0.00     0.277 HD
ATOM     14  H36 <0> d           3.824 -11.373   6.902  0.00  0.00     0.277 HD
ENDROOT
BRANCH   1  15
ATOM     15  C8  <0> d           2.695  -6.439   4.153  0.00  0.00     0.224 C 
ATOM     16  N3  <0> d           1.880  -7.014   3.247  0.00  0.00    -0.361 N 
ATOM     17  H12 <0> d           2.226  -7.691   2.645  0.00  0.00     0.162 HD
ATOM     18  O1  <0> d           2.263  -5.592   4.906  0.00  0.00    -0.273 OA
BRANCH  16  19
ATOM     19  C7  <0> d           0.473  -6.615   3.170  0.00  0.00     0.124 C 
BRANCH  19  20
ATOM     20  C6  <0> d          -0.224  -7.413   2.066  0.00  0.00     0.041 C 
BRANCH  20  21
ATOM     21  C5  <0> d          -1.694  -6.997   1.986  0.00  0.00     0.152 C 
BRANCH  21  22
ATOM     22  N1  <0> d          -2.361  -7.761   0.930  0.00  0.00    -0.274 N 
ATOM     23  C4  <0> d          -2.982  -8.950   1.081  0.00  0.00     0.028 A 
ATOM     24  C3  <0> d          -3.466  -9.319  -0.128  0.00  0.00     0.055 A 
ATOM     25  C26 <0> d          -3.112  -9.728   2.365  0.00  0.00     0.070 C 
ATOM     26  C2  <0> d          -3.131  -8.321  -1.049  0.00  0.00     0.053 A 
ATOM     27  C1  <0> d          -3.472  -8.323  -2.517  0.00  0.00     0.072 C 
ATOM     28  N2  <0> d          -2.464  -7.390  -0.417  0.00  0.00    -0.177 NA
ENDBRANCH  21  22
ENDBRANCH  20  21
ENDBRANCH  19  20
ENDBRANCH  16  19
ENDBRANCH   1  15
BRANCH  11  29
ATOM     29  C18 <0> d           4.818  -3.542   6.831  0.00  0.00     0.066 A 
ATOM     30  C23 <0> d           4.082  -2.743   7.716  0.00  0.00     0.094 A 
ATOM     31  C22 <0> d           3.827  -1.418   7.395  0.00  0.00     0.038 A 
ATOM     32  C21 <0> d           4.287  -0.893   6.203  0.00  0.00     0.003 A 
ATOM     33  C20 <0> d           5.010  -1.682   5.324  0.00  0.00     0.001 A 
ATOM     34  C19 <0> d           5.277  -2.999   5.629  0.00  0.00     0.020 A 
BRANCH  30  35
ATOM     35  O3  <0> d           3.626  -3.261   8.885  0.00  0.00    -0.278 OA
BRANCH  35  36
ATOM     36  C24 <0> d           2.440  -3.891   8.874  0.00  0.00     0.260 C 
ATOM     37  O4  <0> d           1.856  -4.063   7.831  0.00  0.00    -0.265 OA
ATOM     38  C25 <0> d           1.838  -4.385  10.165  0.00  0.00     0.126 C 
ENDBRANCH  35  36
ENDBRANCH  30  35
ENDBRANCH  11  29
TORSDOF 8
