REMARK  3 active torsions:
REMARK  status: ('A' for Active; 'I' for Inactive)
REMARK    1  A    between atoms: N1_10  and  C10_14 
REMARK    2  A    between atoms: C10_14  and  C11_15 
REMARK    3  A    between atoms: C11_15  and  C12_17 
ROOT
ATOM      1  C1  <0> d          -0.018   1.452   0.010  0.00  0.00     0.000 C 
ATOM      2  C2  <0> d           1.397   2.063  -0.000  0.00  0.00     0.000 C 
ATOM      3  C3  <0> d           1.944   2.026   1.402  0.00  0.00     0.003 C 
ATOM      4  C4  <0> d           2.797   0.771   1.664  0.00  0.00     0.041 C 
ATOM      5  C5  <0> d           2.182  -0.505   1.058  0.00  0.00     0.116 A 
ATOM      6  C6  <0> d           0.693  -0.588   1.253  0.00  0.00     0.041 C 
ATOM      7  C7  <0> d           0.002  -0.004   0.002  0.00  0.00     0.003 C 
ATOM      8  C8  <0> d           2.535  -0.565  -0.415  0.00  0.00     0.256 A 
ATOM      9  O1  <0> d           2.194   0.210  -1.282  0.00  0.00    -0.270 OA
ATOM     10  N1  <0> d           3.307  -1.660  -0.558  0.00  0.00    -0.261 N 
ATOM     11  C9  <0> d           3.489  -2.292   0.607  0.00  0.00     0.326 A 
ATOM     12  O2  <0> d           4.149  -3.305   0.731  0.00  0.00    -0.247 OA
ATOM     13  N2  <0> d           2.858  -1.681   1.627  0.00  0.00    -0.324 N 
ATOM     14  H13 <0> d           2.850  -1.962   2.556  0.00  0.00     0.165 HD
ENDROOT
BRANCH  10  15
ATOM     15  C10 <0> d           3.877  -2.104  -1.833  0.00  0.00     0.222 C 
BRANCH  15  16
ATOM     16  C11 <0> d           5.231  -1.471  -2.025  0.00  0.00     0.192 C 
ATOM     17  O3  <0> d           5.676  -0.723  -1.181  0.00  0.00    -0.289 OA
BRANCH  16  18
ATOM     18  C12 <0> d           6.008  -1.760  -3.231  0.00  0.00     0.085 A 
ATOM     19  C15 <0> d           7.379  -1.214  -3.585  0.00  0.00     0.091 A 
ATOM     20  C14 <0> d           7.659  -1.863  -4.928  0.00  0.00    -0.001 A 
ATOM     21  C13 <0> d           6.577  -2.606  -5.189  0.00  0.00     0.113 A 
ATOM     22  N3  <0> d           5.661  -2.533  -4.221  0.00  0.00    -0.262 NA
ENDBRANCH  16  18
ENDBRANCH  15  16
ENDBRANCH  10  15
TORSDOF 3
