REMARK  5 active torsions:
REMARK  status: ('A' for Active; 'I' for Inactive)
REMARK    1  A    between atoms: C6_7  and  C17_23 
REMARK    2  A    between atoms: N3_16  and  C15_20 
REMARK    3  A    between atoms: C15_20  and  C16_21 
REMARK    4  A    between atoms: C16_21  and  O3_22 
REMARK    5  A    between atoms: C21_27  and  N4_29 
ROOT
ATOM      1  C1  <0> d          -0.016   1.355   0.009  0.00  0.00     0.001 A 
ATOM      2  C2  <0> d           1.141   2.140   0.003  0.00  0.00     0.002 A 
ATOM      3  C3  <0> d           2.404   1.644  -0.011  0.00  0.00     0.030 A 
ATOM      4  C4  <0> d           2.553   0.226  -0.019  0.00  0.00     0.039 A 
ATOM      5  N1  <0> d           3.625  -0.506  -0.041  0.00  0.00    -0.378 N 
ATOM      6  C5  <0> d           3.231  -1.920  -0.004  0.00  0.00     0.139 A 
ATOM      7  C6  <0> d           3.681  -2.635  -1.278  0.00  0.00     0.148 C 
ATOM      8  N2  <0> d           2.917  -3.850  -1.516  0.00  0.00    -0.326 N 
ATOM      9  C7  <0> d           1.593  -4.170  -1.024  0.00  0.00     0.184 C 
ATOM     10  C8  <0> d           0.907  -3.178  -0.122  0.00  0.00     0.072 C 
ATOM     11  C9  <0> d           1.704  -1.909  -0.024  0.00  0.00    -0.040 A 
ATOM     12  C10 <0> d           1.332  -0.636  -0.013  0.00  0.00    -0.005 A 
ATOM     13  C11 <0> d           0.002  -0.004   0.002  0.00  0.00     0.014 A 
ATOM     14  C12 <0> d           0.717  -4.608  -2.170  0.00  0.00     0.243 C 
ATOM     15  O1  <0> d          -0.406  -4.178  -2.327  0.00  0.00    -0.271 OA
ATOM     16  N3  <0> d           1.272  -5.523  -3.020  0.00  0.00    -0.340 N 
ATOM     17  C13 <0> d           2.630  -5.994  -2.691  0.00  0.00     0.228 C 
ATOM     18  C14 <0> d           3.483  -4.794  -2.338  0.00  0.00     0.239 C 
ATOM     19  O2  <0> d           4.613  -4.671  -2.761  0.00  0.00    -0.271 OA
ATOM     20  H21 <0> d           4.536  -0.173  -0.077  0.00  0.00     0.160 HD
ENDROOT
BRANCH   7  21
ATOM     21  C17 <0> d           5.140  -2.991  -1.152  0.00  0.00    -0.031 A 
ATOM     22  C22 <0> d           6.098  -2.203  -1.761  0.00  0.00     0.045 A 
ATOM     23  C21 <0> d           7.437  -2.527  -1.641  0.00  0.00     0.103 A 
ATOM     24  C20 <0> d           7.816  -3.644  -0.921  0.00  0.00     0.036 A 
ATOM     25  C19 <0> d           6.857  -4.435  -0.316  0.00  0.00     0.003 A 
ATOM     26  C18 <0> d           5.519  -4.109  -0.432  0.00  0.00     0.009 A 
BRANCH  23  27
ATOM     27  N4  <0> d           8.464  -1.681  -2.288  0.00  0.00    -0.116 N 
ATOM     28  O4  <0> d           9.635  -1.966  -2.186  0.00  0.00    -0.532 OA
ATOM     29  O5  <0> d           8.133  -0.704  -2.919  0.00  0.00    -0.532 OA
ENDBRANCH  23  27
ENDBRANCH   7  21
BRANCH  16  30
ATOM     30  C15 <0> d           0.553  -6.011  -4.199  0.00  0.00     0.152 C 
BRANCH  30  31
ATOM     31  C16 <0> d           0.865  -5.110  -5.396  0.00  0.00     0.184 C 
BRANCH  31  32
ATOM     32  O3  <0> d           2.251  -5.219  -5.726  0.00  0.00    -0.399 OA
ATOM     33  H16 <0> d           2.520  -4.673  -6.478  0.00  0.00     0.209 HD
ENDBRANCH  31  32
ENDBRANCH  30  31
ENDBRANCH  16  30
TORSDOF 5
