REMARK  6 active torsions:
REMARK  status: ('A' for Active; 'I' for Inactive)
REMARK    1  A    between atoms: C11_14  and  C21_26 
REMARK    2  A    between atoms: C12_15  and  N3_16 
REMARK    3  A    between atoms: N4_17  and  C13_18 
REMARK    4  A    between atoms: C13_18  and  C14_19 
REMARK    5  A    between atoms: C14_19  and  C15_20 
REMARK       I    between atoms: C21_26  and  N5_28 
REMARK    6  A    between atoms: N5_28  and  C22_29 
ROOT
ATOM      1  C1  <0> d           2.136   1.805   0.711  0.00  0.00     0.052 C 
ATOM      2  C2  <0> d           1.630   0.416   0.417  0.00  0.00    -0.015 A 
ATOM      3  C3  <0> d           1.690  -0.080  -0.849  0.00  0.00     0.012 A 
ATOM      4  C4  <0> d           1.216  -1.375  -1.110  0.00  0.00     0.018 A 
ATOM      5  C5  <0> d           0.703  -2.123  -0.110  0.00  0.00     0.102 A 
ATOM      6  N1  <0> d           0.638  -1.636   1.164  0.00  0.00    -0.272 N 
ATOM      7  C6  <0> d           1.097  -0.380   1.454  0.00  0.00     0.145 A 
ATOM      8  N2  <0> d           1.055   0.125   2.681  0.00  0.00    -0.211 NA
ATOM      9  C7  <0> d           0.566  -0.562   3.718  0.00  0.00     0.149 A 
ATOM     10  C8  <0> d           0.075  -1.878   3.499  0.00  0.00     0.080 A 
ATOM     11  C9  <0> d           0.116  -2.418   2.139  0.00  0.00     0.267 A 
ATOM     12  O1  <0> d          -0.291  -3.539   1.895  0.00  0.00    -0.267 OA
ATOM     13  C10 <0> d          -0.440  -2.612   4.565  0.00  0.00     0.042 A 
ATOM     14  C11 <0> d          -0.451  -2.014   5.827  0.00  0.00     0.076 A 
ATOM     15  C12 <0> d           0.053  -0.702   5.973  0.00  0.00     0.118 A 
ATOM     16  N4  <0> d           0.534  -0.033   4.943  0.00  0.00    -0.316 N 
ENDROOT
BRANCH  14  17
ATOM     17  C21 <0> d          -0.983  -2.741   6.990  0.00  0.00     0.256 C 
ATOM     18  O2  <0> d          -0.901  -2.253   8.102  0.00  0.00    -0.268 OA
ATOM     19  N5  <0> d          -1.561  -3.947   6.825  0.00  0.00    -0.349 N 
ATOM     20  H18 <0> d          -1.626  -4.336   5.938  0.00  0.00     0.163 HD
BRANCH  19  21
ATOM     21  C22 <0> d          -2.091  -4.671   7.983  0.00  0.00     0.022 C 
ATOM     22  C23 <0> d          -3.177  -3.830   8.657  0.00  0.00     0.037 C 
ATOM     23  C24 <0> d          -2.688  -6.002   7.523  0.00  0.00     0.037 C 
ATOM     24  C25 <0> d          -0.960  -4.937   8.979  0.00  0.00     0.037 C 
ENDBRANCH  19  21
ENDBRANCH  14  17
BRANCH  15  25
ATOM     25  N3  <0> d           0.043  -0.110   7.219  0.00  0.00    -0.384 N 
ATOM     26  H8  <0> d           0.120  -0.656   8.016  0.00  0.00     0.157 HD
ATOM     27  H28 <0> d          -0.041   0.854   7.297  0.00  0.00     0.157 HD
ENDBRANCH  15  25
BRANCH  16  28
ATOM     28  C13 <0> d           1.045   1.325   5.148  0.00  0.00     0.137 C 
BRANCH  28  29
ATOM     29  C14 <0> d          -0.090   2.332   4.954  0.00  0.00     0.059 C 
BRANCH  29  30
ATOM     30  C15 <0> d           0.436   3.728   5.165  0.00  0.00    -0.057 A 
ATOM     31  C20 <0> d           0.943   4.444   4.097  0.00  0.00     0.007 A 
ATOM     32  C19 <0> d           1.422   5.727   4.290  0.00  0.00     0.001 A 
ATOM     33  C18 <0> d           1.401   6.290   5.552  0.00  0.00     0.000 A 
ATOM     34  C17 <0> d           0.898   5.572   6.621  0.00  0.00     0.001 A 
ATOM     35  C16 <0> d           0.416   4.291   6.427  0.00  0.00     0.007 A 
ENDBRANCH  29  30
ENDBRANCH  28  29
ENDBRANCH  16  28
TORSDOF 6
