REMARK  4 active torsions:
REMARK  status: ('A' for Active; 'I' for Inactive)
REMARK    1  A    between atoms: C4_5  and  N2_7 
REMARK       I    between atoms: N2_7  and  C5_8 
REMARK    2  A    between atoms: C5_8  and  C6_10 
REMARK    3  A    between atoms: C6_10  and  N3_11 
REMARK    4  A    between atoms: C10_15  and  C11_16 
REMARK       I    between atoms: C11_16  and  N4_18 
ROOT
ATOM      1  C6  <0> d           0.072  -3.361   4.616  0.00  0.00     0.338 C 
ENDROOT
BRANCH   1   2
ATOM      2  C5  <0> d           0.053  -2.410   3.446  0.00  0.00     0.249 C 
ATOM      3  N2  <0> d           0.053  -2.891   2.187  0.00  0.00    -0.304 N 
ATOM      4  H5  <0> d           0.065  -3.849   2.034  0.00  0.00     0.171 HD
ATOM      5  O1  <0> d           0.038  -1.213   3.638  0.00  0.00    -0.271 OA
BRANCH   3   6
ATOM      6  C4  <0> d           0.036  -2.015   1.108  0.00  0.00     0.173 A 
ATOM      7  S1  <0> d           0.032  -2.379  -0.535  0.00  0.00    -0.055 SA
ATOM      8  C3  <0> d           0.006  -0.706  -1.158  0.00  0.00     0.006 A 
ATOM      9  C2  <0> d           0.002  -0.004   0.002  0.00  0.00     0.046 A 
ATOM     10  C13 <0> d          -0.009  -0.210  -2.581  0.00  0.00     0.058 C 
ATOM     11  C1  <0> d          -0.018   1.503   0.010  0.00  0.00     0.071 C 
ATOM     12  N1  <0> d           0.023  -0.700   1.124  0.00  0.00    -0.228 NA
ENDBRANCH   3   6
ENDBRANCH   1   2
BRANCH   1  13
ATOM     13  N3  <0> d           0.068  -2.595   5.869  0.00  0.00    -0.050 N 
ATOM     14  C10 <0> d          -0.035  -3.517   7.014  0.00  0.00     0.279 C 
ATOM     15  C9  <0> d           1.212  -3.294   7.895  0.00  0.00     0.045 C 
ATOM     16  C8  <0> d           1.666  -1.863   7.502  0.00  0.00     0.030 C 
ATOM     17  C7  <0> d           1.329  -1.832   5.990  0.00  0.00     0.236 C 
ATOM     18  H21 <0> d          -0.714  -1.957   5.876  0.00  0.00     0.281 HD
BRANCH  14  19
ATOM     19  C11 <0> d          -1.282  -3.216   7.806  0.00  0.00     0.248 C 
ATOM     20  O2  <0> d          -2.020  -2.320   7.456  0.00  0.00    -0.271 OA
ATOM     21  N4  <0> d          -1.576  -3.943   8.902  0.00  0.00    -0.364 N 
ATOM     22  C12 <0> d          -2.788  -3.650   9.671  0.00  0.00     0.149 C 
ATOM     23  H14 <0> d          -0.986  -4.660   9.181  0.00  0.00     0.161 HD
ENDBRANCH  14  19
ENDBRANCH   1  13
TORSDOF 4
