REMARK  5 active torsions:
REMARK  status: ('A' for Active; 'I' for Inactive)
REMARK    1  A    between atoms: C5_5  and  S1_9 
REMARK    2  A    between atoms: S1_9  and  N1_12 
REMARK    3  A    between atoms: N1_12  and  C9_13 
REMARK    4  A    between atoms: C9_13  and  C16_20 
REMARK    5  A    between atoms: C16_20  and  N2_21 
ROOT
ATOM      1  N1  <0> d          -1.941   1.202  -1.172  0.00  0.00    -0.304 N 
ATOM      2  H10 <0> d          -2.873   1.782  -1.238  0.00  0.00     0.173 HD
ENDROOT
BRANCH   1   3
ATOM      3  S1  <0> d          -2.007  -0.385  -0.703  0.00  0.00     0.260 S 
ATOM      4  O1  <0> d          -1.112  -0.523   0.392  0.00  0.00    -0.200 OA
ATOM      5  O2  <0> d          -3.384  -0.723  -0.608  0.00  0.00    -0.200 OA
BRANCH   3   6
ATOM      6  C5  <0> d          -1.343  -1.347  -2.022  0.00  0.00     0.085 A 
ATOM      7  C4  <0> d          -0.188  -2.081  -1.827  0.00  0.00     0.026 A 
ATOM      8  C3  <0> d           0.334  -2.836  -2.861  0.00  0.00     0.008 A 
ATOM      9  C2  <0> d          -0.300  -2.856  -4.090  0.00  0.00    -0.061 A 
ATOM     10  C1  <0> d           0.269  -3.679  -5.217  0.00  0.00     0.048 C 
ATOM     11  C7  <0> d          -1.454  -2.122  -4.284  0.00  0.00     0.015 A 
ATOM     12  C6  <0> d          -1.979  -1.371  -3.248  0.00  0.00    -0.038 A 
ATOM     13  C8  <0> d          -3.241  -0.575  -3.458  0.00  0.00     0.050 C 
ENDBRANCH   3   6
ENDBRANCH   1   3
BRANCH   1  14
ATOM     14  C9  <0> d          -0.647   1.879  -1.284  0.00  0.00     0.064 C 
ATOM     15  C14 <0> d          -0.854   3.284  -1.852  0.00  0.00     0.033 C 
ATOM     16  C13 <0> d          -1.768   4.082  -0.919  0.00  0.00     0.007 C 
ATOM     17  C12 <0> d          -1.123   4.181   0.465  0.00  0.00    -0.019 C 
ATOM     18  C11 <0> d          -0.916   2.775   1.032  0.00  0.00     0.007 C 
ATOM     19  C15 <0> d          -2.037   4.978   1.397  0.00  0.00     0.010 C 
ATOM     20  C10 <0> d          -0.002   1.978   0.100  0.00  0.00     0.033 C 
BRANCH  14  21
ATOM     21  C16 <0> d           0.267   1.081  -2.217  0.00  0.00     0.261 C 
BRANCH  21  22
ATOM     22  N2  <0> d          -0.305   1.069  -3.570  0.00  0.00    -0.077 N 
ATOM     23  H25 <0> d           0.352   0.496  -4.240  0.00  0.00     0.274 HD
ATOM     24  H26 <0> d          -0.395   2.101  -3.939  0.00  0.00     0.274 HD
ATOM     25  H27 <0> d          -1.300   0.600  -3.543  0.00  0.00     0.274 HD
ENDBRANCH  21  22
ENDBRANCH  14  21
ENDBRANCH   1  14
TORSDOF 5
