REMARK  8 active torsions:
REMARK  status: ('A' for Active; 'I' for Inactive)
REMARK    1  A    between atoms: C6_7  and  C9_10 
REMARK    2  A    between atoms: C9_10  and  C10_11 
REMARK    3  A    between atoms: C10_11  and  N2_12 
REMARK       I    between atoms: N2_12  and  C11_13 
REMARK    4  A    between atoms: C11_13  and  C12_15 
REMARK       I    between atoms: C12_15  and  N3_17 
REMARK    5  A    between atoms: N3_17  and  C13_18 
REMARK    6  A    between atoms: C13_18  and  C14_19 
REMARK    7  A    between atoms: N4_20  and  S1_24 
REMARK    8  A    between atoms: S1_24  and  C17_27 
ROOT
ATOM      1  C12 <0> d          -1.744  -6.548  -2.622  0.00  0.00     0.309 C 
ATOM      2  O2  <0> d          -2.184  -6.971  -1.573  0.00  0.00    -0.262 OA
ATOM      3  N3  <0> d          -2.096  -7.130  -3.785  0.00  0.00    -0.349 N 
ATOM      4  H13 <0> d          -1.744  -6.792  -4.623  0.00  0.00     0.163 HD
ENDROOT
BRANCH   1   5
ATOM      5  C11 <0> d          -0.811  -5.380  -2.623  0.00  0.00     0.309 C 
ATOM      6  N2  <0> d          -0.458  -4.798  -1.460  0.00  0.00    -0.353 N 
ATOM      7  H12 <0> d          -0.810  -5.136  -0.622  0.00  0.00     0.162 HD
ATOM      8  O1  <0> d          -0.370  -4.957  -3.672  0.00  0.00    -0.262 OA
BRANCH   6   9
ATOM      9  C10 <0> d           0.457  -3.653  -1.462  0.00  0.00     0.127 C 
BRANCH   9  10
ATOM     10  C9  <0> d           0.691  -3.186  -0.024  0.00  0.00     0.056 C 
BRANCH  10  11
ATOM     11  C6  <0> d           1.631  -2.008  -0.025  0.00  0.00    -0.048 A 
ATOM     12  C5  <0> d           3.143  -2.053  -0.041  0.00  0.00     0.155 A 
ATOM     13  N1  <0> d           3.587  -0.654  -0.037  0.00  0.00    -0.385 N 
ATOM     14  C4  <0> d           2.529   0.120  -0.022  0.00  0.00     0.038 A 
ATOM     15  H24 <0> d           4.509  -0.353  -0.045  0.00  0.00     0.160 HD
ATOM     16  C3  <0> d           2.391   1.535  -0.013  0.00  0.00     0.030 A 
ATOM     17  C7  <0> d           1.295  -0.698  -0.014  0.00  0.00    -0.006 A 
ATOM     18  C2  <0> d           1.166   2.101   0.002  0.00  0.00     0.002 A 
ATOM     19  C1  <0> d          -0.016   1.348   0.009  0.00  0.00     0.001 A 
ATOM     20  C8  <0> d           0.002  -0.004   0.002  0.00  0.00     0.014 A 
ENDBRANCH  10  11
ENDBRANCH   9  10
ENDBRANCH   6   9
ENDBRANCH   1   5
BRANCH   3  21
ATOM     21  C13 <0> d          -3.011  -8.274  -3.783  0.00  0.00     0.177 C 
BRANCH  21  22
ATOM     22  C14 <0> d          -3.245  -8.742  -5.221  0.00  0.00     0.251 C 
ATOM     23  O3  <0> d          -1.991  -9.104  -5.823  0.00  0.00    -0.363 OA
ATOM     24  C16 <0> d          -2.101  -8.717  -7.212  0.00  0.00     0.191 C 
ATOM     25  C15 <0> d          -2.899  -7.392  -7.124  0.00  0.00     0.164 C 
ATOM     26  N4  <0> d          -3.837  -7.649  -6.009  0.00  0.00    -0.276 N 
BRANCH  26  27
ATOM     27  S1  <0> d          -5.264  -6.865  -5.708  0.00  0.00     0.263 S 
ATOM     28  O4  <0> d          -5.701  -6.326  -6.949  0.00  0.00    -0.200 OA
ATOM     29  O5  <0> d          -6.062  -7.755  -4.941  0.00  0.00    -0.200 OA
BRANCH  27  30
ATOM     30  C17 <0> d          -4.895  -5.493  -4.666  0.00  0.00     0.080 A 
ATOM     31  C22 <0> d          -4.577  -4.268  -5.223  0.00  0.00     0.028 A 
ATOM     32  C21 <0> d          -4.292  -3.190  -4.406  0.00  0.00     0.044 A 
ATOM     33  C20 <0> d          -4.315  -3.340  -3.030  0.00  0.00     0.116 A 
ATOM     34  C19 <0> d          -4.629  -4.568  -2.474  0.00  0.00     0.044 A 
ATOM     35  F1  <0> d          -4.032  -2.288  -2.231  0.00  0.00    -0.206 F 
ATOM     36  C18 <0> d          -4.919  -5.643  -3.292  0.00  0.00     0.028 A 
ENDBRANCH  27  30
ENDBRANCH  26  27
ENDBRANCH  21  22
ENDBRANCH   3  21
TORSDOF 8
