REMARK  4 active torsions:
REMARK  status: ('A' for Active; 'I' for Inactive)
REMARK    1  A    between atoms: C2_2  and  N1_3 
REMARK       I    between atoms: N1_3  and  C3_4 
REMARK       I    between atoms: C3_4  and  N2_6 
REMARK       I    between atoms: N2_6  and  C4_7 
REMARK    2  A    between atoms: C4_7  and  C5_9 
REMARK    3  A    between atoms: C5_9  and  N3_10 
REMARK    4  A    between atoms: N3_10  and  C6_11 
ROOT
ATOM      1  C5  <0> d          -2.495   1.320   0.021  0.00  0.00     0.223 C 
ENDROOT
BRANCH   1   2
ATOM      2  C4  <0> d          -3.653   2.285   0.032  0.00  0.00     0.243 C 
ATOM      3  N2  <0> d          -4.918   1.820   0.035  0.00  0.00    -0.278 N 
ATOM      4  C3  <0> d          -5.953   2.683   0.045  0.00  0.00     0.322 C 
ATOM      5  H7  <0> d          -5.083   0.864   0.031  0.00  0.00     0.173 HD
ATOM      6  N1  <0> d          -7.218   2.218   0.048  0.00  0.00    -0.343 N 
ATOM      7  O1  <0> d          -5.746   3.881   0.050  0.00  0.00    -0.247 OA
ATOM      8  H6  <0> d          -7.383   1.262   0.044  0.00  0.00     0.164 HD
ATOM      9  O2  <0> d          -3.446   3.480   0.037  0.00  0.00    -0.271 OA
BRANCH   6  10
ATOM     10  C2  <0> d          -8.343   3.156   0.059  0.00  0.00     0.120 C 
ATOM     11  C1  <0> d          -9.659   2.375   0.061  0.00  0.00     0.026 C 
ENDBRANCH   6  10
ENDBRANCH   1   2
BRANCH   1  12
ATOM     12  N3  <0> d          -1.236   2.068   0.019  0.00  0.00    -0.380 N 
ATOM     13  H10 <0> d          -1.248   3.038   0.025  0.00  0.00     0.160 HD
BRANCH  12  14
ATOM     14  C6  <0> d          -0.017   1.385   0.010  0.00  0.00     0.046 A 
ATOM     15  C11 <0> d           1.179   2.093   0.002  0.00  0.00     0.038 A 
ATOM     16  C10 <0> d           2.382   1.414  -0.013  0.00  0.00     0.040 A 
ATOM     17 Br1  <0> d           1.159   3.984   0.012  0.00  0.00    -0.049 Br
ATOM     18  C9  <0> d           2.397   0.030  -0.021  0.00  0.00     0.012 A 
ATOM     19  C8  <0> d           1.208  -0.677  -0.013  0.00  0.00     0.021 A 
ATOM     20 Br2  <0> d           4.046  -0.895  -0.043  0.00  0.00    -0.051 Br
ATOM     21  C7  <0> d           0.002  -0.004   0.002  0.00  0.00     0.032 A 
ENDBRANCH  12  14
ENDBRANCH   1  12
TORSDOF 4
