REMARK  7 active torsions:
REMARK  status: ('A' for Active; 'I' for Inactive)
REMARK    1  A    between atoms: C3_3  and  C6_7 
REMARK    2  A    between atoms: N2_11  and  C10_15 
REMARK    3  A    between atoms: C10_15  and  C11_16 
REMARK    4  A    between atoms: C11_16  and  N3_17 
REMARK       I    between atoms: N3_17  and  C12_18 
REMARK    5  A    between atoms: C12_18  and  C13_20 
REMARK    6  A    between atoms: C13_20  and  O4_21 
REMARK    7  A    between atoms: O4_21  and  C14_22 
ROOT
ATOM      1  C10 <0> d           0.570   1.418  -0.022  0.00  0.00     0.155 C 
ENDROOT
BRANCH   1   2
ATOM      2  N2  <0> d           0.575  -0.047   0.002  0.00  0.00    -0.273 N 
ATOM      3  C8  <0> d           0.289  -0.675   1.130  0.00  0.00     0.268 A 
ATOM      4  C7  <0> d           0.311  -2.153   1.087  0.00  0.00     0.079 A 
ATOM      5  O1  <0> d           0.021  -0.069   2.150  0.00  0.00    -0.266 OA
ATOM      6  C6  <0> d           0.063  -3.050   2.073  0.00  0.00     0.037 C 
ATOM      7  S1  <0> d           0.754  -2.432  -0.622  0.00  0.00    -0.023 SA
ATOM      8  C9  <0> d           0.866  -0.723  -1.127  0.00  0.00     0.294 A 
ATOM      9  O2  <0> d           1.140  -0.277  -2.225  0.00  0.00    -0.259 OA
BRANCH   6  10
ATOM     10  C3  <0> d          -0.032  -4.482   1.757  0.00  0.00    -0.017 A 
ATOM     11  C2  <0> d          -0.045  -4.920   0.424  0.00  0.00     0.014 A 
ATOM     12  C1  <0> d          -0.131  -6.279   0.182  0.00  0.00     0.020 A 
ATOM     13  C5  <0> d          -0.209  -7.155   1.251  0.00  0.00     0.116 A 
ATOM     14  N1  <0> d          -0.200  -6.716   2.495  0.00  0.00    -0.272 NA
ATOM     15  C4  <0> d          -0.115  -5.434   2.780  0.00  0.00     0.127 A 
ENDBRANCH   6  10
ENDBRANCH   1   2
BRANCH   1  16
ATOM     16  C11 <0> d           1.965   1.939   0.331  0.00  0.00     0.143 C 
BRANCH  16  17
ATOM     17  N3  <0> d           1.960   3.403   0.307  0.00  0.00    -0.358 N 
ATOM     18  C12 <0> d           3.088   4.086   0.587  0.00  0.00     0.241 C 
ATOM     19  O3  <0> d           4.107   3.487   0.860  0.00  0.00    -0.271 OA
ATOM     20  H10 <0> d           1.145   3.882   0.089  0.00  0.00     0.162 HD
BRANCH  18  21
ATOM     21  C13 <0> d           3.083   5.593   0.563  0.00  0.00     0.278 C 
BRANCH  21  22
ATOM     22  O4  <0> d           4.386   6.079   0.892  0.00  0.00    -0.342 OA
BRANCH  22  23
ATOM     23  C14 <0> d           4.554   7.427   0.914  0.00  0.00     0.069 A 
ATOM     24  C19 <0> d           5.793   7.968   1.226  0.00  0.00     0.038 A 
ATOM     25  C18 <0> d           5.962   9.338   1.248  0.00  0.00     0.022 A 
ATOM     26  C17 <0> d           4.896  10.172   0.961  0.00  0.00     0.011 A 
ATOM     27  C16 <0> d           3.659   9.635   0.650  0.00  0.00     0.022 A 
ATOM     28 Br1  <0> d           5.129  12.049   0.993  0.00  0.00    -0.051 Br
ATOM     29  C15 <0> d           3.488   8.265   0.620  0.00  0.00     0.038 A 
ENDBRANCH  22  23
ENDBRANCH  21  22
ENDBRANCH  18  21
ENDBRANCH  16  17
ENDBRANCH   1  16
TORSDOF 7
