REMARK  2 active torsions:
REMARK  status: ('A' for Active; 'I' for Inactive)
REMARK       I    between atoms: C2_2  and  N1_4 
REMARK    1  A    between atoms: N3_24  and  C21_27 
REMARK    2  A    between atoms: C21_27  and  N4_30 
ROOT
ATOM      1  C1  <0> d          -1.547  -0.279  -3.494  0.00  0.00     0.117 C 
ATOM      2  C2  <0> d          -0.939   0.290  -2.239  0.00  0.00     0.217 C 
ATOM      3  O1  <0> d          -0.506   1.423  -2.234  0.00  0.00    -0.274 OA
ATOM      4  N1  <0> d          -0.875  -0.460  -1.121  0.00  0.00    -0.325 N 
ATOM      5  C3  <0> d          -1.478  -1.802  -1.078  0.00  0.00     0.132 C 
ATOM      6  C4  <0> d          -2.596  -1.815  -0.029  0.00  0.00     0.061 C 
ATOM      7  C5  <0> d          -2.106  -1.141   1.226  0.00  0.00    -0.018 A 
ATOM      8  C6  <0> d          -2.646  -1.233   2.567  0.00  0.00    -0.001 A 
ATOM      9  C7  <0> d          -3.728  -1.935   3.107  0.00  0.00     0.014 A 
ATOM     10  C8  <0> d          -3.957  -1.785   4.453  0.00  0.00     0.001 A 
ATOM     11  C9  <0> d          -3.159  -0.980   5.249  0.00  0.00     0.002 A 
ATOM     12  C10 <0> d          -2.082  -0.274   4.741  0.00  0.00     0.030 A 
ATOM     13  C11 <0> d          -1.827  -0.407   3.378  0.00  0.00     0.043 A 
ATOM     14  N2  <0> d          -0.870   0.135   2.569  0.00  0.00    -0.356 N 
ATOM     15  H1  <0> d          -0.172   0.743   2.860  0.00  0.00     0.166 HD
ATOM     16  C12 <0> d          -1.042  -0.309   1.286  0.00  0.00     0.060 A 
ATOM     17  C13 <0> d          -0.204   0.041   0.083  0.00  0.00     0.190 A 
ATOM     18  C14 <0> d           1.180  -0.507   0.204  0.00  0.00     0.013 A 
ATOM     19  C15 <0> d           1.649  -1.798   0.321  0.00  0.00     0.013 A 
ATOM     20  C16 <0> d           3.027  -1.963   0.416  0.00  0.00     0.001 A 
ATOM     21  C17 <0> d           3.884  -0.882   0.395  0.00  0.00     0.002 A 
ATOM     22  C18 <0> d           3.420   0.419   0.277  0.00  0.00     0.030 A 
ATOM     23  C19 <0> d           2.040   0.599   0.181  0.00  0.00     0.048 A 
ATOM     24  N3  <0> d           1.313   1.771   0.057  0.00  0.00    -0.289 N 
ATOM     25  C20 <0> d          -0.015   1.538  -0.008  0.00  0.00     0.265 A 
ATOM     26  O2  <0> d          -0.889   2.370  -0.122  0.00  0.00    -0.269 OA
ENDROOT
BRANCH  24  27
ATOM     27  C21 <0> d           1.915   3.105   0.002  0.00  0.00     0.366 C 
BRANCH  27  28
ATOM     28  N4  <0> d           2.039   3.624   1.380  0.00  0.00    -0.063 N 
ATOM     29  C22 <0> d           3.108   4.643   1.442  0.00  0.00     0.271 C 
ATOM     30  C23 <0> d           0.755   4.211   1.817  0.00  0.00     0.271 C 
ATOM     31  H25 <0> d           2.282   2.848   2.008  0.00  0.00     0.280 HD
ENDBRANCH  27  28
ENDBRANCH  24  27
TORSDOF 2
