REMARK  6 active torsions:
REMARK  status: ('A' for Active; 'I' for Inactive)
REMARK    1  A    between atoms: C4_4  and  N2_7 
REMARK       I    between atoms: N2_7  and  C5_8 
REMARK    2  A    between atoms: C5_8  and  C6_10 
REMARK       I    between atoms: C6_10  and  N3_12 
REMARK    3  A    between atoms: N3_12  and  C7_13 
REMARK    4  A    between atoms: C7_13  and  C8_14 
REMARK    5  A    between atoms: C8_14  and  C9_15 
REMARK    6  A    between atoms: C8_14  and  C15_22 
ROOT
ATOM      1  C8  <0> d           5.224  -7.979  -0.707  0.00  0.00     0.069 C 
ENDROOT
BRANCH   1   2
ATOM      2  C7  <0> d           4.611  -6.954  -1.663  0.00  0.00     0.137 C 
BRANCH   2   3
ATOM      3  N3  <0> d           3.974  -5.884  -0.890  0.00  0.00    -0.352 N 
ATOM      4  C6  <0> d           3.365  -4.864  -1.525  0.00  0.00     0.309 C 
ATOM      5  O3  <0> d           3.344  -4.831  -2.738  0.00  0.00    -0.262 OA
ATOM      6  H9  <0> d           3.992  -5.911   0.080  0.00  0.00     0.162 HD
BRANCH   4   7
ATOM      7  C5  <0> d           2.716  -3.774  -0.737  0.00  0.00     0.314 C 
ATOM      8  N2  <0> d           2.107  -2.754  -1.372  0.00  0.00    -0.305 N 
ATOM      9  H8  <0> d           2.090  -2.727  -2.342  0.00  0.00     0.170 HD
ATOM     10  O2  <0> d           2.738  -3.807   0.476  0.00  0.00    -0.262 OA
BRANCH   8  11
ATOM     11  C4  <0> d           1.507  -1.746  -0.643  0.00  0.00     0.136 C 
ATOM     12  C3  <0> d           0.787  -0.541  -1.219  0.00  0.00     0.115 C 
ATOM     13  C2  <0> d           0.002  -0.004   0.002  0.00  0.00     0.158 C 
ATOM     14  C1  <0> d          -0.019   1.526   0.010  0.00  0.00     0.042 C 
ATOM     15  O1  <0> d           0.783  -0.516   1.101  0.00  0.00    -0.249 OA
ATOM     16  N1  <0> d           1.462  -1.668   0.642  0.00  0.00    -0.120 NA
ENDBRANCH   8  11
ENDBRANCH   4   7
ENDBRANCH   2   3
ENDBRANCH   1   2
BRANCH   1  17
ATOM     17  C9  <0> d           6.339  -7.334   0.074  0.00  0.00    -0.026 A 
ATOM     18  C14 <0> d           6.273  -7.273   1.454  0.00  0.00     0.041 A 
ATOM     19  C13 <0> d           7.300  -6.686   2.171  0.00  0.00     0.024 A 
ATOM     20 Cl1  <0> d           4.904  -7.942   2.288  0.00  0.00    -0.084 Cl
ATOM     21  C12 <0> d           8.387  -6.149   1.507  0.00  0.00     0.002 A 
ATOM     22  C11 <0> d           8.450  -6.205   0.127  0.00  0.00     0.001 A 
ATOM     23  C10 <0> d           7.427  -6.797  -0.589  0.00  0.00     0.009 A 
ENDBRANCH   1  17
BRANCH   1  24
ATOM     24  C15 <0> d           5.771  -9.139  -1.498  0.00  0.00    -0.040 A 
ATOM     25  C22 <0> d           6.845  -9.089  -2.561  0.00  0.00     0.155 A 
ATOM     26  N4  <0> d           7.019 -10.471  -3.023  0.00  0.00    -0.385 N 
ATOM     27  C21 <0> d           6.187 -11.240  -2.364  0.00  0.00     0.038 A 
ATOM     28  H22 <0> d           7.643 -10.766  -3.704  0.00  0.00     0.160 HD
ATOM     29  C16 <0> d           5.395 -10.435  -1.406  0.00  0.00    -0.005 A 
ATOM     30  C20 <0> d           5.943 -12.640  -2.422  0.00  0.00     0.030 A 
ATOM     31  C17 <0> d           4.404 -11.127  -0.572  0.00  0.00     0.014 A 
ATOM     32  C18 <0> d           4.251 -12.463  -0.707  0.00  0.00     0.001 A 
ATOM     33  C19 <0> d           5.013 -13.204  -1.622  0.00  0.00     0.002 A 
ENDBRANCH   1  24
TORSDOF 6
