REMARK  2 active torsions:
REMARK  status: ('A' for Active; 'I' for Inactive)
REMARK    1  A    between atoms: C2_2  and  C3_3 
REMARK    2  A    between atoms: C2_2  and  N1_6 
ROOT
ATOM      1  N1  <0> d           0.713  -0.491   1.192  0.00  0.00    -0.054 N 
ATOM      2  C4  <0> d           0.639  -1.973   1.272  0.00  0.00     0.239 C 
ATOM      3  C5  <0> d           0.887  -2.296   2.761  0.00  0.00     0.068 C 
ATOM      4  C6  <0> d           0.489  -1.015   3.517  0.00  0.00     0.093 C 
ATOM      5  C7  <0> d           0.034  -0.023   2.429  0.00  0.00     0.274 C 
ATOM      6  C8  <0> d          -0.665  -1.309   4.469  0.00  0.00     0.045 C 
ATOM      7  C9  <0> d          -0.220  -2.323   5.518  0.00  0.00     0.044 C 
ATOM      8  C10 <0> d           1.138  -1.958   6.060  0.00  0.00    -0.022 A 
ATOM      9  C11 <0> d           1.547  -2.521   7.260  0.00  0.00     0.049 A 
ATOM     10  C12 <0> d           2.790  -2.220   7.787  0.00  0.00     0.105 A 
ATOM     11  C13 <0> d           3.637  -1.348   7.108  0.00  0.00     0.107 A 
ATOM     12  C14 <0> d           3.228  -0.785   5.912  0.00  0.00     0.077 A 
ATOM     13  C15 <0> d           1.975  -1.086   5.388  0.00  0.00     0.079 A 
ATOM     14  O3  <0> d           1.603  -0.494   4.222  0.00  0.00    -0.338 OA
ATOM     15  O4  <0> d           4.793  -1.218   7.822  0.00  0.00    -0.323 OA
ATOM     16  C16 <0> d           4.484  -1.693   9.145  0.00  0.00     0.352 C 
ATOM     17  O5  <0> d           3.415  -2.634   8.929  0.00  0.00    -0.323 OA
ATOM     18  H19 <0> d           1.674  -0.184   1.179  0.00  0.00     0.281 HD
ENDROOT
BRANCH   1  19
ATOM     19  C2  <0> d           0.002  -0.004   0.002  0.00  0.00     0.284 C 
ATOM     20  C1  <0> d          -0.019   1.526   0.010  0.00  0.00     0.052 C 
BRANCH  19  21
ATOM     21  C3  <0> d           0.707  -0.490  -1.238  0.00  0.00     0.204 C 
ATOM     22  O1  <0> d           1.802  -1.020  -1.149  0.00  0.00    -0.646 OA
ATOM     23  O2  <0> d           0.183  -0.354  -2.330  0.00  0.00    -0.646 OA
ENDBRANCH  19  21
ENDBRANCH   1  19
TORSDOF 2
