REMARK  6 active torsions:
REMARK  status: ('A' for Active; 'I' for Inactive)
REMARK    1  A    between atoms: N1_2  and  C3_4 
REMARK    2  A    between atoms: C3_4  and  C4_5 
REMARK    3  A    between atoms: C3_4  and  C15_22 
REMARK    4  A    between atoms: C4_5  and  N2_6 
REMARK       I    between atoms: N2_6  and  C5_7 
REMARK       I    between atoms: C5_7  and  N3_9 
REMARK    5  A    between atoms: N3_9  and  C6_10 
REMARK    6  A    between atoms: C9_13  and  C12_17 
REMARK       I    between atoms: C12_17  and  N4_19 
ROOT
ATOM      1  N2  <0> d          -0.689  -2.033   0.805  0.00  0.00    -0.341 N 
ATOM      2  C5  <0> d          -0.506  -3.352   1.016  0.00  0.00     0.320 C 
ATOM      3  O1  <0> d          -0.855  -4.156   0.173  0.00  0.00    -0.247 OA
ATOM      4  N3  <0> d           0.063  -3.778   2.160  0.00  0.00    -0.309 N 
ATOM      5  H10 <0> d          -0.411  -1.391   1.477  0.00  0.00     0.164 HD
ATOM      6  H11 <0> d           0.262  -3.146   2.868  0.00  0.00     0.170 HD
ENDROOT
BRANCH   1   7
ATOM      7  C4  <0> d          -1.308  -1.569  -0.440  0.00  0.00     0.163 C 
BRANCH   7   8
ATOM      8  C3  <0> d          -1.512  -0.054  -0.373  0.00  0.00     0.244 C 
BRANCH   8   9
ATOM      9  N1  <0> d          -2.101   0.416  -1.635  0.00  0.00    -0.068 N 
ATOM     10  C1  <0> d          -2.204   1.881  -1.610  0.00  0.00     0.270 C 
ATOM     11  C2  <0> d          -1.247   0.004  -2.757  0.00  0.00     0.270 C 
ATOM     12  H24 <0> d          -3.020   0.016  -1.747  0.00  0.00     0.279 HD
ENDBRANCH   8   9
BRANCH   8  13
ATOM     13  C15 <0> d          -2.439   0.278   0.768  0.00  0.00     0.015 A 
ATOM     14  S1  <0> d          -4.220   0.185   0.834  0.00  0.00    -0.104 SA
ATOM     15  C18 <0> d          -4.440   0.748   2.514  0.00  0.00     0.050 A 
ATOM     16  C17 <0> d          -3.161   0.972   2.904  0.00  0.00     0.008 A 
ATOM     17  C16 <0> d          -2.136   0.732   2.009  0.00  0.00     0.017 A 
ENDBRANCH   8  13
ENDBRANCH   7   8
ENDBRANCH   1   7
BRANCH   4  18
ATOM     18  C6  <0> d           0.365  -5.129   2.327  0.00  0.00     0.038 A 
ATOM     19  C11 <0> d           0.258  -5.714   3.584  0.00  0.00     0.054 A 
ATOM     20  C10 <0> d           0.550  -7.051   3.751  0.00  0.00     0.051 A 
ATOM     21  C9  <0> d           0.967  -7.815   2.656  0.00  0.00     0.053 A 
ATOM     22 Cl1  <0> d           0.409  -7.782   5.319  0.00  0.00    -0.083 Cl
ATOM     23  C8  <0> d           1.078  -7.221   1.396  0.00  0.00     0.021 A 
ATOM     24  C7  <0> d           0.779  -5.888   1.236  0.00  0.00     0.030 A 
BRANCH  21  25
ATOM     25  C12 <0> d           1.286  -9.245   2.831  0.00  0.00     0.254 C 
ATOM     26  O2  <0> d           2.090  -9.589   3.677  0.00  0.00    -0.267 OA
ATOM     27  N4  <0> d           0.688 -10.169   2.054  0.00  0.00    -0.357 N 
ATOM     28  C13 <0> d           0.938 -11.594   2.286  0.00  0.00     0.152 C 
ATOM     29  C14 <0> d          -0.213  -9.749   0.978  0.00  0.00     0.152 C 
ENDBRANCH  21  25
ENDBRANCH   4  18
TORSDOF 6
