REMARK  9 active torsions:
REMARK  status: ('A' for Active; 'I' for Inactive)
REMARK    1  A    between atoms: C2_2  and  O1_3 
REMARK    2  A    between atoms: O1_3  and  C3_4 
REMARK    3  A    between atoms: C3_4  and  C4_5 
REMARK    4  A    between atoms: C4_5  and  S1_6 
REMARK    5  A    between atoms: S1_6  and  N1_9 
REMARK    6  A    between atoms: N1_9  and  C5_10 
REMARK    7  A    between atoms: C8_13  and  C11_16 
REMARK    8  A    between atoms: C12_17  and  C13_18 
REMARK    9  A    between atoms: C13_18  and  N2_19 
ROOT
ATOM      1  C5  <0> d          -5.099  -5.790   0.020  0.00  0.00     0.069 A 
ATOM      2  C6  <0> d          -4.183  -6.836   0.011  0.00  0.00     0.034 A 
ATOM      3  C7  <0> d          -4.626  -8.141   0.009  0.00  0.00     0.023 A 
ATOM      4  C8  <0> d          -5.995  -8.412   0.015  0.00  0.00     0.018 A 
ATOM      5  C9  <0> d          -6.912  -7.360   0.024  0.00  0.00     0.023 A 
ATOM      6  C10 <0> d          -6.464  -6.057   0.031  0.00  0.00     0.034 A 
ENDROOT
BRANCH   1   7
ATOM      7  N1  <0> d          -4.648  -4.469   0.022  0.00  0.00    -0.165 NA
BRANCH   7   8
ATOM      8  S1  <0> d          -3.023  -4.149   0.009  0.00  0.00     0.253 S 
ATOM      9  O2  <0> d          -2.563  -4.664  -1.233  0.00  0.00    -0.204 OA
ATOM     10  O3  <0> d          -2.539  -4.677   1.236  0.00  0.00    -0.204 OA
BRANCH   8  11
ATOM     11  C4  <0> d          -2.905  -2.339   0.017  0.00  0.00     0.191 C 
BRANCH  11  12
ATOM     12  C3  <0> d          -1.432  -1.925   0.005  0.00  0.00     0.184 C 
BRANCH  12  13
ATOM     13  O1  <0> d          -1.339  -0.499   0.012  0.00  0.00    -0.391 OA
BRANCH  13  14
ATOM     14  C2  <0> d           0.002  -0.004   0.002  0.00  0.00     0.163 C 
ATOM     15  C1  <0> d          -0.019   1.526   0.010  0.00  0.00     0.033 C 
ENDBRANCH  13  14
ENDBRANCH  12  13
ENDBRANCH  11  12
ENDBRANCH   8  11
ENDBRANCH   7   8
ENDBRANCH   1   7
BRANCH   4  16
ATOM     16  C11 <0> d          -6.458  -9.767   0.012  0.00  0.00    -0.065 C 
ATOM     17  C12 <0> d          -6.837 -10.878   0.010  0.00  0.00    -0.074 C 
BRANCH  17  18
ATOM     18  C13 <0> d          -7.313 -12.271   0.007  0.00  0.00     0.323 C 
BRANCH  18  19
ATOM     19  N2  <0> d          -8.782 -12.287   0.015  0.00  0.00    -0.069 N 
ATOM     20  H16 <0> d          -9.119 -11.818   0.842  0.00  0.00     0.275 HD
ATOM     21  H17 <0> d          -9.128 -11.812  -0.805  0.00  0.00     0.275 HD
ATOM     22  H18 <0> d          -9.108 -13.242   0.013  0.00  0.00     0.275 HD
ENDBRANCH  18  19
ENDBRANCH  17  18
ENDBRANCH   4  16
TORSDOF 9
