REMARK  2 active torsions:
REMARK  status: ('A' for Active; 'I' for Inactive)
REMARK    1  A    between atoms: C12_15  and  C13_16 
REMARK    2  A    between atoms: N4_20  and  C17_23 
ROOT
ATOM      1  C13 <0> d          -0.296   0.500   2.332  0.00  0.00     0.101 A 
ATOM      2  C14 <0> d           0.488   0.541   3.447  0.00  0.00     0.197 A 
ATOM      3  N3  <0> d          -0.042   0.178   4.659  0.00  0.00    -0.285 N 
ATOM      4  C15 <0> d          -1.325  -0.218   4.751  0.00  0.00     0.336 A 
ATOM      5  N4  <0> d          -2.115  -0.265   3.663  0.00  0.00    -0.230 N 
ATOM      6  C16 <0> d          -1.635   0.089   2.454  0.00  0.00     0.269 A 
ATOM      7  O1  <0> d          -2.357   0.049   1.472  0.00  0.00    -0.267 OA
ATOM      8  O2  <0> d          -1.777  -0.537   5.833  0.00  0.00    -0.246 OA
ATOM      9  O3  <0> d           1.776   0.936   3.358  0.00  0.00    -0.171 OA
ATOM     10  H18 <0> d           0.512   0.205   5.455  0.00  0.00     0.172 HD
ENDROOT
BRANCH   1  11
ATOM     11  C12 <0> d           0.263   0.895   0.990  0.00  0.00     0.280 C 
ATOM     12  N1  <0> d          -0.572   1.953   0.399  0.00  0.00    -0.061 N 
ATOM     13  C1  <0> d          -0.441   3.179   1.198  0.00  0.00     0.271 C 
ATOM     14  C2  <0> d          -0.146   2.224  -0.980  0.00  0.00     0.240 C 
ATOM     15  H19 <0> d          -1.536   1.656   0.397  0.00  0.00     0.280 HD
ATOM     16  C3  <0> d          -0.573   1.060  -1.886  0.00  0.00     0.069 C 
ATOM     17  C4  <0> d          -0.126  -0.222  -1.231  0.00  0.00    -0.019 A 
ATOM     18  C11 <0> d           0.254  -0.299   0.066  0.00  0.00     0.053 A 
ATOM     19  C5  <0> d          -0.011  -1.550  -1.790  0.00  0.00    -0.001 A 
ATOM     20  N2  <0> d           0.604  -1.586   0.368  0.00  0.00    -0.356 N 
ATOM     21  C10 <0> d           0.456  -2.377  -0.735  0.00  0.00     0.043 A 
ATOM     22  H1  <0> d           0.912  -1.891   1.236  0.00  0.00     0.166 HD
ATOM     23  C9  <0> d           0.677  -3.737  -0.946  0.00  0.00     0.030 A 
ATOM     24  C8  <0> d           0.421  -4.225  -2.215  0.00  0.00     0.002 A 
ATOM     25  C7  <0> d          -0.034  -3.413  -3.241  0.00  0.00     0.001 A 
ATOM     26  C6  <0> d          -0.261  -2.071  -3.063  0.00  0.00     0.014 A 
ENDBRANCH   1  11
BRANCH   5  27
ATOM     27  C17 <0> d          -3.447  -0.681   3.788  0.00  0.00     0.047 A 
ATOM     28  C22 <0> d          -4.444   0.249   4.050  0.00  0.00     0.031 A 
ATOM     29  C21 <0> d          -5.758  -0.163   4.167  0.00  0.00     0.021 A 
ATOM     30  C20 <0> d          -6.078  -1.503   4.035  0.00  0.00     0.011 A 
ATOM     31  C19 <0> d          -5.085  -2.432   3.779  0.00  0.00     0.021 A 
ATOM     32 Br1  <0> d          -7.876  -2.064   4.204  0.00  0.00    -0.051 Br
ATOM     33  C18 <0> d          -3.772  -2.025   3.655  0.00  0.00     0.031 A 
ENDBRANCH   5  27
TORSDOF 2
