REMARK  3 active torsions:
REMARK  status: ('A' for Active; 'I' for Inactive)
REMARK    1  A    between atoms: C3_3  and  C8_13 
REMARK    2  A    between atoms: C4_5  and  C6_10 
REMARK    3  A    between atoms: C6_10  and  N4_12 
ROOT
ATOM      1  C1  <0> d          -0.018   1.503   0.010  0.00  0.00     0.059 C 
ATOM      2  C2  <0> d           0.002  -0.004   0.002  0.00  0.00     0.010 A 
ATOM      3  C3  <0> d          -1.034  -0.867   0.002  0.00  0.00     0.066 A 
ATOM      4  N1  <0> d          -0.803  -2.229  -0.007  0.00  0.00    -0.271 N 
ATOM      5  C4  <0> d          -1.518  -3.413  -0.011  0.00  0.00     0.166 A 
ATOM      6  N2  <0> d          -0.665  -4.397  -0.020  0.00  0.00    -0.131 NA
ATOM      7  N3  <0> d           0.538  -3.939  -0.023  0.00  0.00    -0.122 NA
ATOM      8  C5  <0> d           0.506  -2.640  -0.016  0.00  0.00     0.201 A 
ATOM      9  S1  <0> d           1.405  -1.109  -0.018  0.00  0.00    -0.052 SA
ENDROOT
BRANCH   3  10
ATOM     10  C8  <0> d          -2.420  -0.354   0.012  0.00  0.00    -0.008 A 
ATOM     11  C13 <0> d          -2.906   0.374  -1.075  0.00  0.00     0.014 A 
ATOM     12  C12 <0> d          -4.203   0.845  -1.062  0.00  0.00     0.001 A 
ATOM     13  C11 <0> d          -5.018   0.607   0.030  0.00  0.00     0.000 A 
ATOM     14  C10 <0> d          -4.540  -0.109   1.114  0.00  0.00     0.001 A 
ATOM     15  C9  <0> d          -3.247  -0.590   1.111  0.00  0.00     0.014 A 
ENDBRANCH   3  10
BRANCH   5  16
ATOM     16  C6  <0> d          -3.019  -3.541  -0.004  0.00  0.00     0.251 C 
ATOM     17  C7  <0> d          -3.502  -3.949  -1.398  0.00  0.00     0.048 C 
BRANCH  16  18
ATOM     18  N4  <0> d          -3.419  -4.564   0.971  0.00  0.00    -0.068 N 
ATOM     19  H8  <0> d          -3.100  -4.295   1.890  0.00  0.00     0.275 HD
ATOM     20  H9  <0> d          -4.424  -4.650   0.976  0.00  0.00     0.275 HD
ATOM     21  H15 <0> d          -3.007  -5.449   0.718  0.00  0.00     0.275 HD
ENDBRANCH  16  18
ENDBRANCH   5  16
TORSDOF 3
