REMARK  5 active torsions:
REMARK  status: ('A' for Active; 'I' for Inactive)
REMARK    1  A    between atoms: O1_2  and  C2_3 
REMARK    2  A    between atoms: C2_3  and  C3_4 
REMARK    3  A    between atoms: C3_4  and  N1_5 
REMARK    4  A    between atoms: C5_7  and  N2_12 
REMARK       I    between atoms: N2_12  and  C9_13 
REMARK    5  A    between atoms: C9_13  and  C10_15 
ROOT
ATOM      1  N1  <0> d           1.398  -2.587  -0.152  0.00  0.00    -0.320 N 
ATOM      2  C4  <0> d           0.776  -2.698  -1.356  0.00  0.00     0.123 A 
ATOM      3  C5  <0> d           1.477  -3.040  -2.469  0.00  0.00     0.051 A 
ATOM      4  C6  <0> d           2.860  -3.281  -2.377  0.00  0.00     0.036 A 
ATOM      5  C7  <0> d           3.477  -3.168  -1.167  0.00  0.00     0.077 A 
ATOM      6  C8  <0> d           2.721  -2.808  -0.038  0.00  0.00     0.247 A 
ATOM      7  O2  <0> d           3.265  -2.699   1.049  0.00  0.00    -0.268 OA
ENDROOT
BRANCH   3   8
ATOM      8  N2  <0> d           0.824  -3.152  -3.705  0.00  0.00    -0.320 N 
ATOM      9  C9  <0> d           1.232  -2.409  -4.753  0.00  0.00     0.276 C 
ATOM     10  O3  <0> d           2.219  -1.707  -4.652  0.00  0.00    -0.266 OA
ATOM     11  H11 <0> d           0.078  -3.765  -3.806  0.00  0.00     0.169 HD
BRANCH   9  12
ATOM     12  C10 <0> d           0.477  -2.447  -6.026  0.00  0.00     0.147 A 
ATOM     13  N4  <0> d          -0.602  -3.212  -6.139  0.00  0.00    -0.143 NA
ATOM     14  N3  <0> d          -1.286  -3.269  -7.224  0.00  0.00    -0.137 NA
ATOM     15  C13 <0> d          -0.957  -2.579  -8.304  0.00  0.00     0.148 A 
ATOM     16  C12 <0> d           0.159  -1.753  -8.287  0.00  0.00     0.049 A 
ATOM     17 Cl1  <0> d          -1.920  -2.706  -9.742  0.00  0.00    -0.061 Cl
ATOM     18  C11 <0> d           0.900  -1.682  -7.117  0.00  0.00     0.042 A 
ENDBRANCH   9  12
ENDBRANCH   3   8
BRANCH   1  19
ATOM     19  C3  <0> d           0.621  -2.217   1.033  0.00  0.00     0.158 C 
BRANCH  19  20
ATOM     20  C2  <0> d           0.606  -0.695   1.179  0.00  0.00     0.187 C 
BRANCH  20  21
ATOM     21  O1  <0> d          -0.092  -0.117   0.074  0.00  0.00    -0.394 OA
ATOM     22  C1  <0> d          -0.164   1.309   0.113  0.00  0.00     0.201 C 
ENDBRANCH  20  21
ENDBRANCH  19  20
ENDBRANCH   1  19
TORSDOF 5
