REMARK  7 active torsions:
REMARK  status: ('A' for Active; 'I' for Inactive)
REMARK    1  A    between atoms: C2_2  and  N1_5 
REMARK    2  A    between atoms: C11_13  and  N3_14 
REMARK       I    between atoms: N3_14  and  C12_15 
REMARK    3  A    between atoms: C12_15  and  C13_17 
REMARK    4  A    between atoms: C13_17  and  C14_18 
REMARK    5  A    between atoms: C14_18  and  C15_19 
REMARK    6  A    between atoms: C15_19  and  N4_20 
REMARK       I    between atoms: N4_20  and  C16_21 
REMARK    7  A    between atoms: C16_21  and  C17_23 
ROOT
ATOM      1  N1  <0> d           0.700  -0.476  -1.196  0.00  0.00    -0.170 N 
ATOM      2  C5  <0> d           0.908  -1.806  -1.546  0.00  0.00     0.080 A 
ATOM      3  C6  <0> d           0.580  -3.009  -0.936  0.00  0.00     0.032 A 
ATOM      4  C7  <0> d           0.927  -4.202  -1.537  0.00  0.00     0.002 A 
ATOM      5  C8  <0> d           1.603  -4.204  -2.746  0.00  0.00     0.002 A 
ATOM      6  C9  <0> d           1.935  -3.013  -3.360  0.00  0.00     0.032 A 
ATOM      7  C10 <0> d           1.590  -1.808  -2.765  0.00  0.00     0.076 A 
ATOM      8  N2  <0> d           1.781  -0.480  -3.129  0.00  0.00    -0.187 N 
ATOM      9  C11 <0> d           1.231   0.309  -2.170  0.00  0.00     0.711 A 
ATOM     10  H26 <0> d           2.228  -0.170  -3.933  0.00  0.00     0.184 HD
ENDROOT
BRANCH   9  11
ATOM     11  N3  <0> d           1.216   1.639  -2.180  0.00  0.00    -0.028 NA
ATOM     12  C12 <0> d           1.863   2.304  -3.133  0.00  0.00     0.260 C 
ATOM     13  O1  <0> d           2.386   1.698  -4.048  0.00  0.00    -0.271 OA
BRANCH  12  14
ATOM     14  C13 <0> d           1.946   3.807  -3.080  0.00  0.00     0.107 C 
BRANCH  14  15
ATOM     15  C14 <0> d           2.738   4.317  -4.286  0.00  0.00     0.029 C 
BRANCH  15  16
ATOM     16  C15 <0> d           2.823   5.844  -4.231  0.00  0.00     0.123 C 
BRANCH  16  17
ATOM     17  N4  <0> d           3.581   6.332  -5.386  0.00  0.00    -0.361 N 
ATOM     18  C16 <0> d           3.785   7.655  -5.548  0.00  0.00     0.221 C 
ATOM     19  O2  <0> d           3.341   8.441  -4.737  0.00  0.00    -0.273 OA
ATOM     20  H20 <0> d           3.936   5.704  -6.034  0.00  0.00     0.162 HD
BRANCH  18  21
ATOM     21  C17 <0> d           4.565   8.157  -6.735  0.00  0.00     0.078 A 
ATOM     22  C19 <0> d           4.762   9.669  -6.863  0.00  0.00     0.015 A 
ATOM     23  C18 <0> d           5.939   8.774  -6.468  0.00  0.00     0.015 A 
ENDBRANCH  18  21
ENDBRANCH  16  17
ENDBRANCH  15  16
ENDBRANCH  14  15
ENDBRANCH  12  14
ENDBRANCH   9  11
BRANCH   1  24
ATOM     24  C2  <0> d           0.020  -0.003   0.013  0.00  0.00     0.044 C 
ATOM     25  C1  <0> d          -0.005   1.527   0.018  0.00  0.00     0.039 C 
ATOM     26  C3  <0> d           0.769  -0.505   1.249  0.00  0.00     0.039 C 
ATOM     27  C4  <0> d          -1.413  -0.537   0.034  0.00  0.00     0.039 C 
ENDBRANCH   1  24
TORSDOF 7
