REMARK  4 active torsions:
REMARK  status: ('A' for Active; 'I' for Inactive)
REMARK    1  A    between atoms: C4_4  and  O4_22 
REMARK    2  A    between atoms: C5_5  and  C17_20 
REMARK    3  A    between atoms: C10_11  and  C11_12 
REMARK    4  A    between atoms: C17_20  and  O3_21 
ROOT
ATOM      1  C1  <0> d          -0.649   1.598   0.131  0.00  0.00     0.049 C 
ATOM      2  C2  <0> d          -0.757   0.095   0.111  0.00  0.00    -0.042 A 
ATOM      3  C3  <0> d          -1.037  -0.555  -1.057  0.00  0.00     0.045 A 
ATOM      4  C4  <0> d          -1.137  -1.944  -1.078  0.00  0.00     0.077 A 
ATOM      5  C5  <0> d          -0.955  -2.681   0.081  0.00  0.00     0.033 A 
ATOM      6  C6  <0> d          -0.670  -2.035   1.278  0.00  0.00     0.102 A 
ATOM      7  C7  <0> d          -0.567  -0.634   1.285  0.00  0.00     0.058 A 
ATOM      8  C8  <0> d          -0.255  -0.248   2.673  0.00  0.00     0.219 A 
ATOM      9  O1  <0> d          -0.087   0.875   3.115  0.00  0.00    -0.284 OA
ATOM     10  C9  <0> d          -0.192  -1.523   3.405  0.00  0.00     0.128 A 
ATOM     11  C10 <0> d           0.069  -1.675   4.728  0.00  0.00     0.054 C 
ATOM     12  O2  <0> d          -0.454  -2.515   2.522  0.00  0.00    -0.305 OA
ENDROOT
BRANCH  11  13
ATOM     13  C11 <0> d          -0.018  -3.006   5.345  0.00  0.00    -0.012 A 
ATOM     14  C16 <0> d          -0.104  -3.133   6.737  0.00  0.00     0.044 A 
ATOM     15  C15 <0> d          -0.191  -4.387   7.307  0.00  0.00     0.024 A 
ATOM     16 Cl1  <0> d          -0.108  -1.717   7.741  0.00  0.00    -0.083 Cl
ATOM     17  C14 <0> d          -0.181  -5.516   6.508  0.00  0.00     0.002 A 
ATOM     18  C13 <0> d          -0.091  -5.399   5.131  0.00  0.00     0.001 A 
ATOM     19  C12 <0> d          -0.009  -4.155   4.545  0.00  0.00     0.013 A 
ENDBRANCH  11  13
BRANCH   5  20
ATOM     20  C17 <0> d          -1.067  -4.183   0.044  0.00  0.00     0.208 C 
BRANCH  20  21
ATOM     21  O3  <0> d           0.216  -4.750  -0.233  0.00  0.00    -0.396 OA
ATOM     22  H12 <0> d           0.219  -5.716  -0.272  0.00  0.00     0.209 HD
ENDBRANCH  20  21
ENDBRANCH   5  20
BRANCH   4  23
ATOM     23  O4  <0> d          -1.416  -2.581  -2.244  0.00  0.00    -0.360 OA
ATOM     24  H13 <0> d          -0.633  -2.825  -2.755  0.00  0.00     0.217 HD
ENDBRANCH   4  23
TORSDOF 4
