REMARK  4 active torsions:
REMARK  status: ('A' for Active; 'I' for Inactive)
REMARK    1  A    between atoms: O1_2  and  C2_3 
REMARK    2  A    between atoms: C2_3  and  C3_4 
REMARK    3  A    between atoms: C3_4  and  N1_5 
REMARK       I    between atoms: N1_5  and  C4_6 
REMARK       I    between atoms: C4_6  and  N2_8 
REMARK    4  A    between atoms: N2_8  and  C5_9 
ROOT
ATOM      1  N1  <0> d          -0.501  -2.565   1.238  0.00  0.00    -0.341 N 
ATOM      2  C4  <0> d          -0.282  -3.876   1.456  0.00  0.00     0.320 C 
ATOM      3  O2  <0> d          -0.609  -4.695   0.620  0.00  0.00    -0.247 OA
ATOM      4  N2  <0> d           0.300  -4.280   2.603  0.00  0.00    -0.308 N 
ATOM      5  H8  <0> d          -0.240  -1.911   1.905  0.00  0.00     0.164 HD
ATOM      6  H9  <0> d           0.620  -3.624   3.242  0.00  0.00     0.170 HD
ENDROOT
BRANCH   4   7
ATOM      7  C5  <0> d           0.442  -5.646   2.872  0.00  0.00     0.055 A 
ATOM      8  C10 <0> d           0.343  -6.113   4.177  0.00  0.00     0.037 A 
ATOM      9  C9  <0> d           0.478  -7.463   4.439  0.00  0.00     0.023 A 
ATOM     10 Br1  <0> d           0.015  -4.902   5.592  0.00  0.00    -0.049 Br
ATOM     11  C8  <0> d           0.724  -8.348   3.406  0.00  0.00     0.020 A 
ATOM     12  C7  <0> d           0.830  -7.886   2.106  0.00  0.00     0.013 A 
ATOM     13  C6  <0> d           0.689  -6.537   1.836  0.00  0.00     0.050 A 
ATOM     14 Br2  <0> d           1.166  -9.100   0.696  0.00  0.00    -0.051 Br
ENDBRANCH   4   7
BRANCH   1  15
ATOM     15  C3  <0> d          -1.134  -2.126  -0.009  0.00  0.00     0.150 C 
BRANCH  15  16
ATOM     16  C2  <0> d          -1.266  -0.601  -0.004  0.00  0.00     0.186 C 
BRANCH  16  17
ATOM     17  O1  <0> d           0.035  -0.011  -0.013  0.00  0.00    -0.394 OA
ATOM     18  C1  <0> d           0.025   1.418  -0.010  0.00  0.00     0.201 C 
ENDBRANCH  16  17
ENDBRANCH  15  16
ENDBRANCH   1  15
TORSDOF 4
