REMARK  3 active torsions:
REMARK  status: ('A' for Active; 'I' for Inactive)
REMARK    1  A    between atoms: C3_3  and  C11_14 
REMARK    2  A    between atoms: C4_5  and  C5_7 
REMARK    3  A    between atoms: C9_11  and  N2_13 
ROOT
ATOM      1  C1  <0> d          -0.028   1.502  -0.083  0.00  0.00     0.059 C 
ATOM      2  C2  <0> d          -0.002  -0.005  -0.040  0.00  0.00     0.010 A 
ATOM      3  C3  <0> d          -1.037  -0.894   0.093  0.00  0.00     0.081 A 
ATOM      4  N1  <0> d          -0.781  -2.188   0.106  0.00  0.00    -0.239 NA
ATOM      5  C4  <0> d           0.456  -2.646  -0.009  0.00  0.00     0.109 A 
ATOM      6  S1  <0> d           1.385  -1.127  -0.159  0.00  0.00    -0.072 SA
ENDROOT
BRANCH   3   7
ATOM      7  C11 <0> d          -2.432  -0.405   0.224  0.00  0.00    -0.004 A 
ATOM      8  C16 <0> d          -2.886   0.634  -0.586  0.00  0.00     0.053 A 
ATOM      9  C15 <0> d          -4.189   1.084  -0.466  0.00  0.00     0.105 A 
ATOM     10  C14 <0> d          -5.041   0.505   0.473  0.00  0.00     0.105 A 
ATOM     11  O1  <0> d          -4.870   2.064  -1.127  0.00  0.00    -0.323 OA
ATOM     12  C13 <0> d          -4.585  -0.525   1.282  0.00  0.00     0.040 A 
ATOM     13  O2  <0> d          -6.256   1.123   0.398  0.00  0.00    -0.323 OA
ATOM     14  C12 <0> d          -3.288  -0.980   1.161  0.00  0.00     0.017 A 
ATOM     15  C17 <0> d          -6.263   1.804  -0.871  0.00  0.00     0.352 C 
ENDBRANCH   3   7
BRANCH   5  16
ATOM     16  C5  <0> d           0.939  -4.044  -0.017  0.00  0.00     0.002 A 
ATOM     17  C10 <0> d           2.301  -4.312  -0.150  0.00  0.00     0.043 A 
ATOM     18  C9  <0> d           2.747  -5.625  -0.150  0.00  0.00     0.026 A 
ATOM     19  C8  <0> d           1.837  -6.668  -0.031  0.00  0.00     0.029 A 
ATOM     20  C7  <0> d           0.486  -6.402   0.095  0.00  0.00     0.003 A 
ATOM     21  C6  <0> d           0.033  -5.099   0.103  0.00  0.00     0.014 A 
BRANCH  18  22
ATOM     22  N2  <0> d           4.111  -5.899  -0.277  0.00  0.00    -0.399 N 
ATOM     23  H8  <0> d           4.423  -6.817  -0.281  0.00  0.00     0.156 HD
ATOM     24  H9  <0> d           4.747  -5.170  -0.360  0.00  0.00     0.156 HD
ENDBRANCH  18  22
ENDBRANCH   5  16
TORSDOF 3
