REMARK  5 active torsions:
REMARK  status: ('A' for Active; 'I' for Inactive)
REMARK    1  A    between atoms: C4_4  and  C7_8 
REMARK    2  A    between atoms: C9_10  and  C14_18 
REMARK       I    between atoms: C14_18  and  N3_20 
REMARK    3  A    between atoms: N3_20  and  C15_21 
REMARK    4  A    between atoms: C18_24  and  O4_27 
REMARK    5  A    between atoms: O4_27  and  C21_28 
ROOT
ATOM      1  C21 <0> d           4.520  -0.279  -0.585  0.00  0.00     0.299 C 
ATOM      2  C22 <0> d           5.771  -1.038  -0.429  0.00  0.00     0.085 C 
ATOM      3  N4  <0> d           6.737  -1.624  -0.308  0.00  0.00    -0.195 NA
ENDROOT
BRANCH   1   4
ATOM      4  O4  <0> d           3.760  -0.360   0.622  0.00  0.00    -0.338 OA
BRANCH   4   5
ATOM      5  C18 <0> d           2.567   0.292   0.645  0.00  0.00     0.070 A 
ATOM      6  C17 <0> d           2.139   0.994  -0.472  0.00  0.00     0.039 A 
ATOM      7  C16 <0> d           0.927   1.656  -0.450  0.00  0.00     0.032 A 
ATOM      8  C15 <0> d           0.137   1.620   0.692  0.00  0.00     0.035 A 
ATOM      9  C20 <0> d           0.567   0.916   1.810  0.00  0.00     0.032 A 
ATOM     10  C19 <0> d           1.778   0.255   1.786  0.00  0.00     0.039 A 
BRANCH   8  11
ATOM     11  N3  <0> d          -1.093   2.286   0.714  0.00  0.00    -0.323 N 
ATOM     12  C14 <0> d          -1.237   3.457   0.062  0.00  0.00     0.257 C 
ATOM     13  O3  <0> d          -0.330   3.887  -0.623  0.00  0.00    -0.267 OA
ATOM     14  H12 <0> d          -1.843   1.905   1.198  0.00  0.00     0.169 HD
BRANCH  12  15
ATOM     15  C9  <0> d          -2.499   4.221   0.182  0.00  0.00     0.051 A 
ATOM     16  C8  <0> d          -3.725   3.570   0.271  0.00  0.00     0.050 A 
ATOM     17  C7  <0> d          -4.893   4.330   0.383  0.00  0.00     0.073 A 
ATOM     18  N2  <0> d          -4.854   5.654   0.406  0.00  0.00    -0.221 NA
ATOM     19  C12 <0> d          -3.715   6.322   0.325  0.00  0.00     0.208 A 
ATOM     20  C10 <0> d          -2.496   5.631   0.215  0.00  0.00     0.061 A 
ATOM     21  O2  <0> d          -3.420   7.638   0.327  0.00  0.00    -0.192 OA
ATOM     22  C11 <0> d          -1.444   6.644   0.155  0.00  0.00     0.074 A 
ATOM     23  N1  <0> d          -2.020   7.805   0.229  0.00  0.00    -0.130 NA
ATOM     24  C13 <0> d           0.036   6.387   0.030  0.00  0.00     0.074 C 
BRANCH  17  25
ATOM     25  C4  <0> d          -6.201   3.641   0.478  0.00  0.00     0.024 A 
ATOM     26  C3  <0> d          -6.443   2.193   0.471  0.00  0.00     0.048 A 
ATOM     27  C2  <0> d          -7.773   2.039   0.578  0.00  0.00     0.050 A 
ATOM     28  C1  <0> d          -8.500   0.720   0.613  0.00  0.00     0.076 C 
ATOM     29  O1  <0> d          -8.349   3.249   0.649  0.00  0.00    -0.319 OA
ATOM     30  C5  <0> d          -7.427   4.219   0.597  0.00  0.00     0.062 A 
ATOM     31  C6  <0> d          -7.701   5.700   0.656  0.00  0.00     0.077 C 
ENDBRANCH  17  25
ENDBRANCH  12  15
ENDBRANCH   8  11
ENDBRANCH   4   5
ENDBRANCH   1   4
TORSDOF 5
