REMARK  1 active torsions:
REMARK  status: ('A' for Active; 'I' for Inactive)
REMARK    1  A    between atoms: C2_2  and  N1_5 
ROOT
ATOM      1  N1  <0> d           0.201   4.362  -0.891  0.00  0.00    -0.279 N 
ATOM      2  C5  <0> d          -0.094   3.973   0.355  0.00  0.00     0.234 A 
ATOM      3  O1  <0> d           0.716   3.746   1.228  0.00  0.00    -0.272 OA
ATOM      4  C6  <0> d          -1.594   3.862   0.506  0.00  0.00     0.125 A 
ATOM      5  C7  <0> d          -1.982   2.383   0.682  0.00  0.00     0.204 C 
ATOM      6  C8  <0> d          -0.776   1.604   1.243  0.00  0.00     0.036 C 
ATOM      7  C9  <0> d          -0.013   1.086   0.008  0.00  0.00     0.030 C 
ATOM      8  C10 <0> d          -0.800   1.617  -1.207  0.00  0.00     0.237 C 
ATOM      9  C11 <0> d          -2.781   2.983  -1.440  0.00  0.00     0.249 A 
ATOM     10  C12 <0> d          -2.125   4.258  -0.899  0.00  0.00     0.144 A 
ATOM     11  C13 <0> d          -0.864   4.553  -1.679  0.00  0.00     0.235 A 
ATOM     12  O2  <0> d          -0.823   4.907  -2.838  0.00  0.00    -0.272 OA
ATOM     13  C14 <0> d          -2.570   2.845  -2.922  0.00  0.00     0.016 A 
ATOM     14  C15 <0> d          -1.447   2.760  -3.715  0.00  0.00     0.031 A 
ATOM     15  C16 <0> d          -1.577   2.636  -5.087  0.00  0.00     0.011 A 
ATOM     16  C17 <0> d          -2.836   2.596  -5.659  0.00  0.00     0.021 A 
ATOM     17  C18 <0> d          -3.963   2.681  -4.868  0.00  0.00     0.031 A 
ATOM     18  C19 <0> d          -3.842   2.807  -3.486  0.00  0.00     0.044 A 
ATOM     19  N2  <0> d          -4.815   2.908  -2.489  0.00  0.00    -0.324 N 
ATOM     20  C20 <0> d          -4.274   3.015  -1.260  0.00  0.00     0.264 A 
ATOM     21  O3  <0> d          -4.875   3.116  -0.211  0.00  0.00    -0.270 OA
ATOM     22 Br1  <0> d          -0.036   2.520  -6.178  0.00  0.00    -0.051 Br
ATOM     23  H22 <0> d          -5.769   2.903  -2.662  0.00  0.00     0.169 HD
ATOM     24  N3  <0> d          -2.146   1.907  -0.673  0.00  0.00    -0.043 N 
ATOM     25  H23 <0> d          -2.728   1.061  -0.697  0.00  0.00     0.282 HD
ENDROOT
BRANCH   1  26
ATOM     26  C2  <0> d           1.576   4.563  -1.354  0.00  0.00     0.032 C 
ATOM     27  C1  <0> d           1.755   6.013  -1.806  0.00  0.00     0.038 C 
ATOM     28  C3  <0> d           2.548   4.261  -0.211  0.00  0.00     0.038 C 
ATOM     29  C4  <0> d           1.861   3.624  -2.528  0.00  0.00     0.038 C 
ENDBRANCH   1  26
TORSDOF 1
