REMARK  8 active torsions:
REMARK  status: ('A' for Active; 'I' for Inactive)
REMARK    1  A    between atoms: C6_6  and  N1_7 
REMARK    2  A    between atoms: C7_10  and  C8_12 
REMARK    3  A    between atoms: C8_12  and  C9_13 
REMARK    4  A    between atoms: C9_13  and  C10_14 
REMARK    5  A    between atoms: C10_14  and  C11_15 
REMARK    6  A    between atoms: C11_15  and  C12_16 
REMARK    7  A    between atoms: C12_16  and  C13_17 
REMARK    8  A    between atoms: C13_17  and  C14_18 
ROOT
ATOM      1  C10 <0> d           7.956   1.808  -1.244  0.00  0.00     0.000 C 
ENDROOT
BRANCH   1   2
ATOM      2  C9  <0> d           6.428   1.739  -1.231  0.00  0.00     0.007 C 
BRANCH   2   3
ATOM      3  C8  <0> d           5.966   0.884  -0.049  0.00  0.00     0.078 C 
BRANCH   3   4
ATOM      4  C7  <0> d           4.461   0.816  -0.036  0.00  0.00     0.105 A 
ATOM      5  N2  <0> d           3.732  -0.334  -0.035  0.00  0.00    -0.343 N 
ATOM      6  C4  <0> d           2.398   0.025  -0.021  0.00  0.00     0.064 A 
ATOM      7  H1  <0> d           4.083  -1.238  -0.043  0.00  0.00     0.167 HD
ATOM      8  C3  <0> d           2.375   1.431  -0.013  0.00  0.00     0.085 A 
ATOM      9  C5  <0> d           1.208  -0.686  -0.013  0.00  0.00     0.060 A 
ATOM     10  C2  <0> d           1.149   2.100   0.002  0.00  0.00     0.036 A 
ATOM     11  N3  <0> d           3.668   1.848  -0.023  0.00  0.00    -0.233 NA
ATOM     12  C1  <0> d          -0.017   1.389   0.010  0.00  0.00     0.031 A 
ATOM     13  C6  <0> d           0.002  -0.004   0.002  0.00  0.00     0.028 A 
BRANCH  13  14
ATOM     14  N1  <0> d          -1.201  -0.717   0.010  0.00  0.00    -0.399 N 
ATOM     15  H6  <0> d          -2.046  -0.241   0.020  0.00  0.00     0.156 HD
ATOM     16  H7  <0> d          -1.190  -1.687   0.004  0.00  0.00     0.156 HD
ENDBRANCH  13  14
ENDBRANCH   3   4
ENDBRANCH   2   3
ENDBRANCH   1   2
BRANCH   1  17
ATOM     17  C11 <0> d           8.418   2.663  -2.426  0.00  0.00     0.000 C 
BRANCH  17  18
ATOM     18  C12 <0> d           9.946   2.732  -2.439  0.00  0.00     0.004 C 
BRANCH  18  19
ATOM     19  C13 <0> d          10.408   3.588  -3.621  0.00  0.00     0.049 C 
BRANCH  19  20
ATOM     20  C14 <0> d          11.936   3.656  -3.634  0.00  0.00     0.206 A 
ATOM     21  N6  <0> d          12.495   2.336  -3.933  0.00  0.00    -0.262 NA
ATOM     22  C20 <0> d          13.197   2.406  -5.032  0.00  0.00     0.080 A 
ATOM     23  C15 <0> d          13.163   3.787  -5.557  0.00  0.00     0.060 A 
ATOM     24  C19 <0> d          13.957   1.371  -5.758  0.00  0.00     0.036 A 
ATOM     25  N4  <0> d          12.389   4.559  -4.701  0.00  0.00    -0.365 N 
ATOM     26  C16 <0> d          13.826   4.097  -6.694  0.00  0.00     0.062 A 
ATOM     27  H20 <0> d          12.188   5.504  -4.789  0.00  0.00     0.162 HD
ATOM     28  C17 <0> d          14.579   3.061  -7.407  0.00  0.00     0.050 A 
ATOM     29  N5  <0> d          15.222   3.360  -8.510  0.00  0.00    -0.300 NA
ATOM     30  C18 <0> d          14.613   1.683  -6.885  0.00  0.00     0.033 A 
ATOM     31  H22 <0> d          15.720   2.674  -8.982  0.00  0.00     0.187 HD
ENDBRANCH  19  20
ENDBRANCH  18  19
ENDBRANCH  17  18
ENDBRANCH   1  17
TORSDOF 8
