REMARK  3 active torsions:
REMARK  status: ('A' for Active; 'I' for Inactive)
REMARK    1  A    between atoms: C5_6  and  C6_7 
REMARK    2  A    between atoms: C6_7  and  C7_8 
REMARK    3  A    between atoms: C6_7  and  N4_18 
ROOT
ATOM      1  C6  <0> d          -0.018   1.503   0.010  0.00  0.00     0.273 C 
ENDROOT
BRANCH   1   2
ATOM      2  C5  <0> d           0.002  -0.004   0.002  0.00  0.00     0.024 A 
ATOM      3  C2  <0> d           1.028  -0.842  -0.285  0.00  0.00    -0.046 A 
ATOM      4  C1  <0> d           2.381  -0.295  -0.661  0.00  0.00     0.049 C 
ATOM      5  C3  <0> d           0.815  -2.207  -0.227  0.00  0.00     0.015 A 
ATOM      6  C4  <0> d          -0.414  -2.666   0.115  0.00  0.00     0.051 A 
ATOM      7  S1  <0> d          -1.317  -1.148   0.375  0.00  0.00    -0.103 SA
ENDBRANCH   1   2
BRANCH   1   8
ATOM      8  C7  <0> d          -0.747   2.002  -1.211  0.00  0.00     0.078 A 
ATOM      9  S2  <0> d          -2.501   2.018  -1.549  0.00  0.00    -0.048 SA
ATOM     10  C9  <0> d          -2.422   2.761  -3.161  0.00  0.00     0.198 A 
ATOM     11  N1  <0> d          -1.085   2.948  -3.342  0.00  0.00    -0.181 N 
ATOM     12  N2  <0> d          -3.070   3.188  -4.210  0.00  0.00    -0.206 NA
ATOM     13  C8  <0> d          -0.251   2.555  -2.324  0.00  0.00     0.219 A 
ATOM     14  N3  <0> d          -0.990   3.543  -4.627  0.00  0.00    -0.148 NA
ATOM     15  O1  <0> d           1.093   2.725  -2.450  0.00  0.00    -0.169 OA
ATOM     16  C10 <0> d          -2.202   3.663  -5.100  0.00  0.00     0.145 A 
ATOM     17  C11 <0> d          -2.560   4.248  -6.442  0.00  0.00     0.095 C 
ENDBRANCH   1   8
BRANCH   1  18
ATOM     18  N4  <0> d          -0.706   1.976   1.219  0.00  0.00    -0.058 N 
ATOM     19  C15 <0> d          -0.641   3.450   1.322  0.00  0.00     0.236 C 
ATOM     20  C14 <0> d          -0.547   3.795   2.820  0.00  0.00     0.029 C 
ATOM     21  C13 <0> d          -0.530   2.431   3.548  0.00  0.00     0.029 C 
ATOM     22  C12 <0> d          -0.048   1.456   2.444  0.00  0.00     0.236 C 
ATOM     23  H18 <0> d          -1.744   1.624   1.131  0.00  0.00     0.281 HD
ENDBRANCH   1  18
TORSDOF 3
