REMARK  7 active torsions:
REMARK  status: ('A' for Active; 'I' for Inactive)
REMARK    1  A    between atoms: C3_3  and  N1_9 
REMARK    2  A    between atoms: N1_9  and  C8_10 
REMARK    3  A    between atoms: C9_11  and  N5_28 
REMARK    4  A    between atoms: C10_12  and  N4_16 
REMARK    5  A    between atoms: N4_16  and  C13_18 
REMARK    6  A    between atoms: C18_23  and  C19_24 
REMARK    7  A    between atoms: C19_24  and  O2_26 
ROOT
ATOM      1  C8  <0> d           0.115  -0.673  -3.616  0.00  0.00     0.137 A 
ATOM      2  C9  <0> d           0.210   0.022  -4.824  0.00  0.00     0.117 A 
ATOM      3  C10 <0> d           0.300  -0.718  -6.005  0.00  0.00     0.161 A 
ATOM      4  N2  <0> d           0.293  -2.047  -5.935  0.00  0.00    -0.224 NA
ATOM      5  C11 <0> d           0.202  -2.664  -4.774  0.00  0.00     0.211 A 
ATOM      6  N3  <0> d           0.120  -2.004  -3.636  0.00  0.00    -0.335 N 
ATOM      7  H21 <0> d           0.058  -2.495  -2.802  0.00  0.00     0.168 HD
ENDROOT
BRANCH   3   8
ATOM      8  N4  <0> d           0.396  -0.076  -7.235  0.00  0.00    -0.333 N 
ATOM      9  C12 <0> d           1.701   0.373  -7.727  0.00  0.00     0.158 C 
BRANCH   8  10
ATOM     10  C13 <0> d          -0.745   0.140  -7.997  0.00  0.00     0.052 A 
ATOM     11  C18 <0> d          -1.163  -0.822  -8.931  0.00  0.00     0.066 A 
ATOM     12  C17 <0> d          -2.317  -0.594  -9.686  0.00  0.00     0.020 A 
ATOM     13  C16 <0> d          -3.029   0.573  -9.519  0.00  0.00     0.001 A 
ATOM     14  C15 <0> d          -2.610   1.523  -8.600  0.00  0.00     0.002 A 
ATOM     15  C14 <0> d          -1.476   1.312  -7.843  0.00  0.00     0.031 A 
BRANCH  11  16
ATOM     16  C19 <0> d          -0.394  -2.066  -9.108  0.00  0.00     0.295 C 
ATOM     17  O1  <0> d           0.606  -2.262  -8.445  0.00  0.00    -0.259 OA
BRANCH  16  18
ATOM     18  O2  <0> d          -0.798  -2.986 -10.006  0.00  0.00    -0.322 OA
ATOM     19  C20 <0> d          -0.005  -4.168 -10.125  0.00  0.00     0.213 C 
ENDBRANCH  16  18
ENDBRANCH  11  16
ENDBRANCH   8  10
ENDBRANCH   3   8
BRANCH   2  20
ATOM     20  N5  <0> d           0.213   1.425  -4.851  0.00  0.00    -0.393 N 
ATOM     21  H19 <0> d           0.221   1.925  -4.020  0.00  0.00     0.156 HD
ATOM     22  H20 <0> d           0.208   1.894  -5.699  0.00  0.00     0.156 HD
ENDBRANCH   2  20
BRANCH   1  23
ATOM     23  N1  <0> d           0.023   0.015  -2.412  0.00  0.00    -0.340 N 
ATOM     24  H7  <0> d          -0.071   0.980  -2.410  0.00  0.00     0.167 HD
BRANCH  23  25
ATOM     25  C3  <0> d           0.065  -0.685  -1.203  0.00  0.00     0.041 A 
ATOM     26  C2  <0> d           1.236  -1.321  -0.807  0.00  0.00    -0.013 A 
ATOM     27  C1  <0> d           2.462  -1.256  -1.681  0.00  0.00     0.052 C 
ATOM     28  C7  <0> d           1.273  -2.016   0.387  0.00  0.00     0.042 A 
ATOM     29  C6  <0> d           0.148  -2.070   1.192  0.00  0.00     0.024 A 
ATOM     30 Cl1  <0> d           2.732  -2.817   0.879  0.00  0.00    -0.084 Cl
ATOM     31  C5  <0> d          -1.017  -1.438   0.801  0.00  0.00     0.004 A 
ATOM     32  C4  <0> d          -1.062  -0.747  -0.394  0.00  0.00     0.030 A 
ENDBRANCH  23  25
ENDBRANCH   1  23
TORSDOF 7
