REMARK  3 active torsions:
REMARK  status: ('A' for Active; 'I' for Inactive)
REMARK    1  A    between atoms: N1_2  and  C2_3 
REMARK    2  A    between atoms: C9_11  and  C10_13 
REMARK    3  A    between atoms: C13_16  and  O1_20 
ROOT
ATOM      1  C2  <0> d           0.708  -0.582  -1.149  0.00  0.00     0.221 C 
ATOM      2  C3  <0> d           0.496  -2.096  -1.164  0.00  0.00     0.038 C 
ATOM      3  C4  <0> d           1.414  -2.705  -2.230  0.00  0.00     0.008 C 
ATOM      4  C5  <0> d           2.860  -2.590  -1.748  0.00  0.00     0.060 C 
ATOM      5  C6  <0> d           3.163  -1.178  -1.326  0.00  0.00     0.046 A 
ATOM      6  C7  <0> d           2.174  -0.262  -1.045  0.00  0.00     0.015 A 
ATOM      7  C8  <0> d           2.550   1.019  -0.653  0.00  0.00     0.130 A 
ATOM      8  N2  <0> d           3.833   1.318  -0.561  0.00  0.00    -0.240 NA
ATOM      9  C9  <0> d           4.759   0.410  -0.839  0.00  0.00     0.159 A 
ATOM     10  N3  <0> d           4.433  -0.809  -1.218  0.00  0.00    -0.232 NA
ENDROOT
BRANCH   9  11
ATOM     11  C10 <0> d           6.191   0.777  -0.729  0.00  0.00     0.013 A 
ATOM     12  C15 <0> d           6.553   2.065  -0.337  0.00  0.00     0.042 A 
ATOM     13  C14 <0> d           7.887   2.402  -0.230  0.00  0.00     0.068 A 
ATOM     14  C13 <0> d           8.868   1.462  -0.524  0.00  0.00     0.087 A 
ATOM     15 Cl1  <0> d           8.340   4.003   0.264  0.00  0.00    -0.081 Cl
ATOM     16  C12 <0> d           8.509   0.181  -0.920  0.00  0.00     0.039 A 
ATOM     17  C11 <0> d           7.178  -0.164  -1.023  0.00  0.00     0.018 A 
BRANCH  14  18
ATOM     18  O1  <0> d          10.180   1.798  -0.423  0.00  0.00    -0.359 OA
ATOM     19  H16 <0> d          10.558   2.156  -1.238  0.00  0.00     0.217 HD
ENDBRANCH  14  18
ENDBRANCH   9  11
BRANCH   1  20
ATOM     20  N1  <0> d           0.002  -0.004   0.002  0.00  0.00    -0.071 N 
ATOM     21  C1  <0> d          -1.444  -0.200  -0.162  0.00  0.00     0.267 C 
ATOM     22  H5  <0> d           0.204   0.983   0.059  0.00  0.00     0.277 HD
ATOM     23  H17 <0> d           0.309  -0.460   0.849  0.00  0.00     0.277 HD
ENDBRANCH   1  20
TORSDOF 3
