REMARK  7 active torsions:
REMARK  status: ('A' for Active; 'I' for Inactive)
REMARK    1  A    between atoms: N1_2  and  C2_3 
REMARK    2  A    between atoms: N1_2  and  S1_8 
REMARK    3  A    between atoms: C2_3  and  C3_4 
REMARK    4  A    between atoms: S1_8  and  C4_11 
REMARK    5  A    between atoms: C6_13  and  C9_17 
REMARK    6  A    between atoms: C10_18  and  C11_19 
REMARK    7  A    between atoms: C11_19  and  N3_20 
ROOT
ATOM      1  C4  <0> d           1.682  -1.059  -1.905  0.00  0.00     0.098 A 
ATOM      2  C5  <0> d           2.331  -0.113  -2.678  0.00  0.00     0.048 A 
ATOM      3  C6  <0> d           3.667  -0.343  -3.025  0.00  0.00     0.036 A 
ATOM      4  C7  <0> d           4.287  -1.511  -2.581  0.00  0.00     0.136 A 
ATOM      5  N2  <0> d           3.627  -2.383  -1.848  0.00  0.00    -0.270 NA
ATOM      6  C8  <0> d           2.369  -2.189  -1.500  0.00  0.00     0.141 A 
ENDROOT
BRANCH   1   7
ATOM      7  S1  <0> d          -0.000  -0.824  -1.437  0.00  0.00     0.262 S 
ATOM      8  O1  <0> d          -0.531  -2.115  -1.167  0.00  0.00    -0.200 OA
ATOM      9  O2  <0> d          -0.572   0.049  -2.401  0.00  0.00    -0.200 OA
BRANCH   7  10
ATOM     10  N1  <0> d           0.002  -0.004   0.002  0.00  0.00    -0.303 N 
ATOM     11  C1  <0> d          -0.018   1.461   0.010  0.00  0.00     0.163 C 
BRANCH  10  12
ATOM     12  C2  <0> d           0.024  -0.743   1.267  0.00  0.00     0.252 C 
BRANCH  12  13
ATOM     13  C3  <0> d          -1.406  -0.912   1.784  0.00  0.00     0.404 C 
ATOM     14  F1  <0> d          -2.162  -1.619   0.843  0.00  0.00    -0.169 F 
ATOM     15  F2  <0> d          -1.385  -1.618   2.992  0.00  0.00    -0.169 F 
ATOM     16  F3  <0> d          -1.979   0.348   1.990  0.00  0.00    -0.169 F 
ENDBRANCH  12  13
ENDBRANCH  10  12
ENDBRANCH   7  10
ENDBRANCH   1   7
BRANCH   3  17
ATOM     17  C9  <0> d           4.386   0.605  -3.823  0.00  0.00    -0.064 C 
ATOM     18  C10 <0> d           4.975   1.381  -4.478  0.00  0.00    -0.074 C 
BRANCH  18  19
ATOM     19  C11 <0> d           5.713   2.355  -5.298  0.00  0.00     0.323 C 
BRANCH  19  20
ATOM     20  N3  <0> d           7.084   1.873  -5.514  0.00  0.00    -0.069 N 
ATOM     21  H11 <0> d           7.546   1.764  -4.624  0.00  0.00     0.275 HD
ATOM     22  H12 <0> d           7.057   0.984  -5.991  0.00  0.00     0.275 HD
ATOM     23  H13 <0> d           7.590   2.541  -6.077  0.00  0.00     0.275 HD
ENDBRANCH  19  20
ENDBRANCH  18  19
ENDBRANCH   3  17
TORSDOF 7
