REMARK  6 active torsions:
REMARK  status: ('A' for Active; 'I' for Inactive)
REMARK    1  A    between atoms: C5_5  and  N1_9 
REMARK       I    between atoms: N1_9  and  C9_10 
REMARK    2  A    between atoms: C9_10  and  C10_12 
REMARK       I    between atoms: C10_12  and  N2_14 
REMARK    3  A    between atoms: N2_14  and  C11_15 
REMARK    4  A    between atoms: C11_15  and  C12_16 
REMARK    5  A    between atoms: C12_16  and  C13_17 
REMARK    6  A    between atoms: C12_16  and  N4_23 
ROOT
ATOM      1  C10 <0> d          -1.207   0.330   3.851  0.00  0.00     0.309 C 
ATOM      2  O2  <0> d          -2.378   0.066   4.030  0.00  0.00    -0.262 OA
ATOM      3  N2  <0> d          -0.832   1.023   2.758  0.00  0.00    -0.350 N 
ATOM      4  H11 <0> d           0.229   1.262   2.595  0.00  0.00     0.162 HD
ENDROOT
BRANCH   3   5
ATOM      5  C11 <0> d          -1.838   1.460   1.787  0.00  0.00     0.165 C 
BRANCH   5   6
ATOM      6  C12 <0> d          -1.182   2.367   0.745  0.00  0.00     0.290 C 
BRANCH   6   7
ATOM      7  C13 <0> d           0.095   1.731   0.258  0.00  0.00     0.046 A 
ATOM      8  N3  <0> d           0.198   0.527  -0.374  0.00  0.00    -0.363 N 
ATOM      9  C16 <0> d           1.511   0.295  -0.661  0.00  0.00     0.090 A 
ATOM     10  C17 <0> d          -0.917  -0.367  -0.694  0.00  0.00     0.155 C 
ATOM     11  C15 <0> d           2.233   1.339  -0.207  0.00  0.00     0.019 A 
ATOM     12  C14 <0> d           1.333   2.252   0.377  0.00  0.00     0.029 A 
ENDBRANCH   6   7
BRANCH   6  13
ATOM     13  N4  <0> d          -0.879   3.671   1.351  0.00  0.00     0.103 N 
ATOM     14  C21 <0> d          -0.188   3.505   2.637  0.00  0.00     0.301 C 
ATOM     15  C20 <0> d           0.179   4.882   3.196  0.00  0.00     0.264 C 
ATOM     16  N5  <0> d          -1.042   5.684   3.358  0.00  0.00    -0.072 N 
ATOM     17  C19 <0> d          -1.734   5.849   2.072  0.00  0.00     0.264 C 
ATOM     18  C22 <0> d          -0.739   6.987   3.964  0.00  0.00     0.269 C 
ATOM     19  H34 <0> d          -1.715   5.143   4.039  0.00  0.00     0.279 HD
ATOM     20  C18 <0> d          -2.100   4.472   1.512  0.00  0.00     0.301 C 
ENDBRANCH   6  13
ENDBRANCH   5   6
ENDBRANCH   3   5
BRANCH   1  21
ATOM     21  C9  <0> d          -0.181  -0.115   4.841  0.00  0.00     0.314 C 
ATOM     22  N1  <0> d          -0.556  -0.809   5.934  0.00  0.00    -0.318 N 
ATOM     23  H10 <0> d          -1.610  -1.090   6.072  0.00  0.00     0.169 HD
ATOM     24  O1  <0> d           0.990   0.148   4.661  0.00  0.00    -0.262 OA
BRANCH  22  25
ATOM     25  C5  <0> d           0.395  -1.172   6.891  0.00  0.00     0.047 A 
ATOM     26  C4  <0> d           0.226  -0.795   8.218  0.00  0.00    -0.034 A 
ATOM     27  C3  <0> d           1.168  -1.155   9.161  0.00  0.00     0.015 A 
ATOM     28  C23 <0> d          -0.983   0.005   8.627  0.00  0.00     0.050 C 
ATOM     29  C2  <0> d           2.279  -1.890   8.787  0.00  0.00    -0.061 A 
ATOM     30  C1  <0> d           3.304  -2.281   9.820  0.00  0.00     0.048 C 
ATOM     31  C7  <0> d           2.450  -2.266   7.468  0.00  0.00     0.015 A 
ATOM     32  C6  <0> d           1.509  -1.914   6.520  0.00  0.00    -0.034 A 
ATOM     33  C8  <0> d           1.694  -2.331   5.083  0.00  0.00     0.050 C 
ENDBRANCH  22  25
ENDBRANCH   1  21
TORSDOF 6
