REMARK  2 active torsions:
REMARK  status: ('A' for Active; 'I' for Inactive)
REMARK    1  A    between atoms: C4_4  and  C7_8 
REMARK    2  A    between atoms: C10_11  and  C11_13 
ROOT
ATOM      1  C7  <0> d           6.718  -0.294  -0.061  0.00  0.00     0.088 A 
ATOM      2  C8  <0> d           7.787   0.556  -0.067  0.00  0.00     0.041 A 
ATOM      3  C9  <0> d           7.278   1.858  -0.056  0.00  0.00     0.040 A 
ATOM      4  C10 <0> d           5.899   1.747  -0.043  0.00  0.00     0.077 A 
ATOM      5  O1  <0> d           5.586   0.434  -0.041  0.00  0.00    -0.310 OA
ENDROOT
BRANCH   4   6
ATOM      6  C11 <0> d           4.981   2.819  -0.029  0.00  0.00     0.061 C 
ATOM      7  C12 <0> d           3.640   2.568  -0.018  0.00  0.00     0.079 A 
ATOM      8  S1  <0> d           2.780   1.001  -0.011  0.00  0.00    -0.047 SA
ATOM      9  C13 <0> d           2.514   3.514  -0.003  0.00  0.00     0.264 A 
ATOM     10  C14 <0> d           1.110   1.634   0.000  0.00  0.00     0.167 A 
ATOM     11  N1  <0> d           1.295   3.001   0.006  0.00  0.00    -0.301 N 
ATOM     12  N2  <0> d          -0.011   0.966   0.007  0.00  0.00    -0.278 NA
ATOM     13  H7  <0> d           0.418   3.666   0.017  0.00  0.00     0.171 HD
ATOM     14  H8  <0> d          -0.971   1.503   0.020  0.00  0.00     0.189 HD
ATOM     15  O2  <0> d           2.696   4.719   0.003  0.00  0.00    -0.267 OA
ENDBRANCH   4   6
BRANCH   1  16
ATOM     16  C4  <0> d           6.791  -1.768  -0.069  0.00  0.00     0.021 A 
ATOM     17  C3  <0> d           6.059  -2.513   0.861  0.00  0.00     0.047 A 
ATOM     18  C2  <0> d           6.133  -3.891   0.848  0.00  0.00     0.026 A 
ATOM     19 Cl2  <0> d           5.058  -1.706   2.028  0.00  0.00    -0.083 Cl
ATOM     20  C1  <0> d           6.929  -4.536  -0.082  0.00  0.00     0.025 A 
ATOM     21  C6  <0> d           7.657  -3.805  -1.005  0.00  0.00     0.035 A 
ATOM     22  C5  <0> d           7.589  -2.426  -1.008  0.00  0.00     0.040 A 
ATOM     23 Cl1  <0> d           8.653  -4.625  -2.167  0.00  0.00    -0.084 Cl
ENDBRANCH   1  16
TORSDOF 2
