REMARK  5 active torsions:
REMARK  status: ('A' for Active; 'I' for Inactive)
REMARK    1  A    between atoms: C7_7  and  C8_8 
REMARK    2  A    between atoms: C8_8  and  S1_9 
REMARK    3  A    between atoms: S1_9  and  N1_12 
REMARK    4  A    between atoms: N1_12  and  C9_13 
REMARK    5  A    between atoms: C9_13  and  C10_14 
ROOT
ATOM      1  N1  <0> d          -1.549   1.141   4.479  0.00  0.00    -0.315 N 
ATOM      2  H11 <0> d          -1.851   0.729   5.303  0.00  0.00     0.172 HD
ENDROOT
BRANCH   1   3
ATOM      3  S1  <0> d          -1.684   0.321   3.046  0.00  0.00     0.230 S 
ATOM      4  O1  <0> d          -2.334   1.230   2.168  0.00  0.00    -0.206 OA
ATOM      5  O2  <0> d          -2.294  -0.915   3.391  0.00  0.00    -0.206 OA
BRANCH   3   6
ATOM      6  C8  <0> d           0.025   0.045   2.504  0.00  0.00     0.202 C 
BRANCH   6   7
ATOM      7  C7  <0> d           0.023  -0.702   1.195  0.00  0.00    -0.037 A 
ATOM      8  C2  <0> d           0.002  -0.004   0.002  0.00  0.00    -0.055 A 
ATOM      9  C1  <0> d          -0.018   1.503   0.010  0.00  0.00     0.049 C 
ATOM     10  C3  <0> d           0.006  -0.689  -1.199  0.00  0.00     0.007 A 
ATOM     11  C4  <0> d           0.025  -2.071  -1.207  0.00  0.00     0.001 A 
ATOM     12  C5  <0> d           0.040  -2.768  -0.013  0.00  0.00     0.001 A 
ATOM     13  C6  <0> d           0.037  -2.084   1.188  0.00  0.00     0.009 A 
ENDBRANCH   6   7
ENDBRANCH   3   6
ENDBRANCH   1   3
BRANCH   1  14
ATOM     14  C9  <0> d          -0.974   2.488   4.501  0.00  0.00     0.176 C 
BRANCH  14  15
ATOM     15  C10 <0> d          -1.294   3.149   5.817  0.00  0.00     0.029 A 
ATOM     16  C18 <0> d          -2.525   3.817   5.987  0.00  0.00     0.253 A 
ATOM     17  N2  <0> d          -2.849   4.415   7.147  0.00  0.00    -0.322 N 
ATOM     18  O3  <0> d          -3.317   3.850   5.061  0.00  0.00    -0.268 OA
ATOM     19  C17 <0> d          -1.979   4.405   8.217  0.00  0.00     0.045 A 
ATOM     20  H1  <0> d          -3.705   4.862   7.232  0.00  0.00     0.169 HD
ATOM     21  C12 <0> d          -0.735   3.757   8.097  0.00  0.00    -0.009 A 
ATOM     22  C16 <0> d          -2.312   5.027   9.416  0.00  0.00     0.030 A 
ATOM     23  C11 <0> d          -0.395   3.104   6.831  0.00  0.00     0.028 A 
ATOM     24  C13 <0> d           0.151   3.745   9.178  0.00  0.00     0.014 A 
ATOM     25  C14 <0> d          -0.196   4.363  10.346  0.00  0.00     0.001 A 
ATOM     26  C15 <0> d          -1.422   5.003  10.468  0.00  0.00     0.002 A 
ENDBRANCH  14  15
ENDBRANCH   1  14
TORSDOF 5
