REMARK  6 active torsions:
REMARK  status: ('A' for Active; 'I' for Inactive)
REMARK    1  A    between atoms: O1_2  and  C2_3 
REMARK    2  A    between atoms: C9_10  and  C11_15 
REMARK    3  A    between atoms: C11_15  and  N2_16 
REMARK    4  A    between atoms: N2_16  and  C12_17 
REMARK       I    between atoms: N2_16  and  C17_23 
REMARK    5  A    between atoms: C12_17  and  C13_18 
REMARK    6  A    between atoms: C17_23  and  C18_25 
ROOT
ATOM      1  C11 <0> d           1.294   5.661  -0.616  0.00  0.00     0.170 C 
ENDROOT
BRANCH   1   2
ATOM      2  C9  <0> d           0.139   5.896  -1.554  0.00  0.00     0.029 A 
ATOM      3  C8  <0> d          -0.959   6.563  -1.121  0.00  0.00     0.028 A 
ATOM      4  C6  <0> d          -2.062   6.779  -2.059  0.00  0.00    -0.006 A 
ATOM      5  C5  <0> d          -1.950   6.281  -3.370  0.00  0.00     0.045 A 
ATOM      6  C7  <0> d          -3.218   7.464  -1.669  0.00  0.00     0.050 A 
ATOM      7  C4  <0> d          -2.994   6.474  -4.270  0.00  0.00     0.033 A 
ATOM      8  N1  <0> d          -0.807   5.606  -3.748  0.00  0.00    -0.322 N 
ATOM      9  C3  <0> d          -4.127   7.150  -3.874  0.00  0.00     0.039 A 
ATOM     10  C2  <0> d          -4.242   7.645  -2.577  0.00  0.00     0.069 A 
ATOM     11  C10 <0> d           0.202   5.417  -2.880  0.00  0.00     0.253 A 
ATOM     12  H1  <0> d          -0.729   5.253  -4.680  0.00  0.00     0.169 HD
ATOM     13  O2  <0> d           1.197   4.816  -3.248  0.00  0.00    -0.268 OA
BRANCH  10  14
ATOM     14  O1  <0> d          -5.367   8.310  -2.203  0.00  0.00    -0.356 OA
ATOM     15  C1  <0> d          -6.388   8.463  -3.191  0.00  0.00     0.210 C 
ENDBRANCH  10  14
ENDBRANCH   1   2
BRANCH   1  16
ATOM     16  N2  <0> d           1.159   4.340   0.004  0.00  0.00    -0.341 N 
ATOM     17  C17 <0> d           1.711   3.261  -0.585  0.00  0.00     0.249 C 
ATOM     18  O3  <0> d           2.389   3.394  -1.582  0.00  0.00    -0.270 OA
BRANCH  16  19
ATOM     19  C12 <0> d           0.425   4.193   1.262  0.00  0.00     0.172 C 
BRANCH  19  20
ATOM     20  C13 <0> d           1.344   4.490   2.418  0.00  0.00     0.000 A 
ATOM     21  S1  <0> d           2.394   3.374   3.336  0.00  0.00    -0.105 SA
ATOM     22  C16 <0> d           3.088   4.561   4.474  0.00  0.00     0.050 A 
ATOM     23  C15 <0> d           2.483   5.710   4.085  0.00  0.00     0.008 A 
ATOM     24  C14 <0> d           1.594   5.675   3.028  0.00  0.00     0.017 A 
ENDBRANCH  19  20
ENDBRANCH  16  19
BRANCH  17  25
ATOM     25  C18 <0> d           1.487   1.888  -0.004  0.00  0.00     0.213 C 
ATOM     26  O4  <0> d           2.217   0.893  -0.753  0.00  0.00    -0.376 OA
ATOM     27  C21 <0> d           1.586  -0.372  -0.497  0.00  0.00     0.168 C 
ATOM     28  C20 <0> d           0.113  -0.086  -0.144  0.00  0.00     0.029 C 
ATOM     29  C19 <0> d           0.008   1.458  -0.178  0.00  0.00     0.043 C 
ENDBRANCH  17  25
ENDBRANCH   1  16
TORSDOF 6
