REMARK  5 active torsions:
REMARK  status: ('A' for Active; 'I' for Inactive)
REMARK    1  A    between atoms: C7_7  and  N1_8 
REMARK    2  A    between atoms: C11_13  and  N3_19 
REMARK       I    between atoms: N3_19  and  C17_20 
REMARK    3  A    between atoms: C17_20  and  C18_22 
REMARK    4  A    between atoms: C18_22  and  C19_23 
REMARK    5  A    between atoms: C19_23  and  C20_24 
ROOT
ATOM      1  N1  <0> d           0.168   0.117   2.336  0.00  0.00    -0.237 N 
ATOM      2  C8  <0> d           0.377  -0.362   3.576  0.00  0.00     0.047 A 
ATOM      3  C9  <0> d           0.382   0.690   4.433  0.00  0.00     0.008 A 
ATOM      4  C10 <0> d           0.167   1.851   3.691  0.00  0.00     0.150 A 
ATOM      5  N2  <0> d           0.045   1.512   2.430  0.00  0.00    -0.179 NA
ATOM      6  C11 <0> d           0.590   0.568   5.922  0.00  0.00     0.122 C 
ATOM      7  C12 <0> d           1.189  -0.813   6.214  0.00  0.00     0.039 C 
ATOM      8  C13 <0> d           0.357  -1.890   5.512  0.00  0.00    -0.040 C 
ATOM      9  C14 <0> d           0.573  -1.797   3.997  0.00  0.00     0.069 C 
ATOM     10  C15 <0> d          -1.124  -1.679   5.830  0.00  0.00     0.015 C 
ATOM     11  C16 <0> d           0.792  -3.272   6.005  0.00  0.00     0.015 C 
ENDROOT
BRANCH   6  12
ATOM     12  N3  <0> d           1.510   1.612   6.379  0.00  0.00    -0.352 N 
ATOM     13  C17 <0> d           1.042   2.840   6.678  0.00  0.00     0.218 C 
ATOM     14  O1  <0> d          -0.142   3.080   6.570  0.00  0.00    -0.274 OA
ATOM     15  H20 <0> d           2.457   1.420   6.466  0.00  0.00     0.163 HD
BRANCH  13  16
ATOM     16  C18 <0> d           1.988   3.914   7.148  0.00  0.00     0.108 C 
BRANCH  16  17
ATOM     17  C19 <0> d           1.206   5.201   7.418  0.00  0.00     0.066 C 
BRANCH  17  18
ATOM     18  C20 <0> d           2.152   6.275   7.888  0.00  0.00     0.033 C 
ATOM     19  C23 <0> d           1.614   7.641   8.219  0.00  0.00     0.066 C 
ATOM     20  C22 <0> d           2.416   8.237   9.383  0.00  0.00     0.110 C 
ATOM     21  C21 <0> d           3.888   8.062   9.104  0.00  0.00     0.237 C 
ATOM     22  N5  <0> d           4.311   6.976   8.427  0.00  0.00    -0.247 N 
ATOM     23  O2  <0> d           4.685   8.892   9.487  0.00  0.00    -0.272 OA
ATOM     24  N4  <0> d           3.396   6.012   7.993  0.00  0.00    -0.181 NA
ATOM     25  H25 <0> d           5.256   6.862   8.240  0.00  0.00     0.192 HD
ENDBRANCH  17  18
ENDBRANCH  16  17
ENDBRANCH  13  16
ENDBRANCH   6  12
BRANCH   1  26
ATOM     26  C7  <0> d           0.094  -0.640   1.158  0.00  0.00     0.064 A 
ATOM     27  C2  <0> d          -0.945  -0.432   0.262  0.00  0.00    -0.033 A 
ATOM     28  C1  <0> d          -1.995   0.609   0.552  0.00  0.00     0.050 C 
ATOM     29  C3  <0> d          -1.012  -1.177  -0.900  0.00  0.00     0.009 A 
ATOM     30  C4  <0> d          -0.049  -2.132  -1.167  0.00  0.00     0.001 A 
ATOM     31  C5  <0> d           0.984  -2.346  -0.273  0.00  0.00     0.002 A 
ATOM     32  C6  <0> d           1.056  -1.605   0.890  0.00  0.00     0.032 A 
ENDBRANCH   1  26
TORSDOF 5
