REMARK  5 active torsions:
REMARK  status: ('A' for Active; 'I' for Inactive)
REMARK    1  A    between atoms: N1_2  and  C3_4 
REMARK    2  A    between atoms: C3_4  and  C4_5 
REMARK    3  A    between atoms: C3_4  and  C14_19 
REMARK    4  A    between atoms: C4_5  and  N2_6 
REMARK       I    between atoms: N2_6  and  C5_7 
REMARK    5  A    between atoms: C5_7  and  C6_9 
ROOT
ATOM      1  N2  <0> d          -1.702   1.302  -1.405  0.00  0.00    -0.353 N 
ATOM      2  C5  <0> d          -2.076   1.923  -2.541  0.00  0.00     0.275 C 
ATOM      3  O1  <0> d          -2.647   1.300  -3.416  0.00  0.00    -0.265 OA
ATOM      4  H10 <0> d          -1.246   1.799  -0.708  0.00  0.00     0.162 HD
ENDROOT
BRANCH   1   5
ATOM      5  C4  <0> d          -1.983  -0.125  -1.224  0.00  0.00     0.163 C 
BRANCH   5   6
ATOM      6  C3  <0> d          -1.371  -0.601   0.095  0.00  0.00     0.261 C 
BRANCH   6   7
ATOM      7  N1  <0> d          -1.873   0.232   1.196  0.00  0.00    -0.067 N 
ATOM      8  C1  <0> d          -3.338   0.143   1.249  0.00  0.00     0.270 C 
ATOM      9  C2  <0> d          -1.308  -0.244   2.466  0.00  0.00     0.270 C 
ATOM     10  H18 <0> d          -1.599   1.191   1.044  0.00  0.00     0.280 HD
ENDBRANCH   6   7
BRANCH   6  11
ATOM     11  C14 <0> d           0.130  -0.488   0.023  0.00  0.00     0.085 A 
ATOM     12  O3  <0> d           0.842   0.637   0.196  0.00  0.00    -0.325 OA
ATOM     13  C17 <0> d           2.150   0.364   0.066  0.00  0.00     0.142 A 
ATOM     14  C16 <0> d           2.285  -0.947  -0.204  0.00  0.00     0.027 A 
ATOM     15  C15 <0> d           0.983  -1.497  -0.231  0.00  0.00     0.037 A 
ENDBRANCH   6  11
ENDBRANCH   5   6
ENDBRANCH   1   5
BRANCH   2  16
ATOM     16  C6  <0> d          -1.794   3.354  -2.723  0.00  0.00     0.144 A 
ATOM     17  O2  <0> d          -1.169   4.143  -1.824  0.00  0.00    -0.302 OA
ATOM     18  C13 <0> d          -1.060   5.404  -2.286  0.00  0.00     0.108 A 
ATOM     19  C8  <0> d          -1.655   5.443  -3.560  0.00  0.00     0.002 A 
ATOM     20  C12 <0> d          -0.510   6.568  -1.758  0.00  0.00     0.068 A 
ATOM     21  C7  <0> d          -2.128   4.083  -3.819  0.00  0.00     0.057 A 
ATOM     22  C9  <0> d          -1.691   6.640  -4.280  0.00  0.00     0.014 A 
ATOM     23  C10 <0> d          -1.144   7.771  -3.742  0.00  0.00     0.003 A 
ATOM     24  C11 <0> d          -0.555   7.739  -2.486  0.00  0.00     0.027 A 
ATOM     25 Cl1  <0> d           0.231   6.547  -0.189  0.00  0.00    -0.081 Cl
ENDBRANCH   2  16
TORSDOF 5
