REMARK  3 active torsions:
REMARK  status: ('A' for Active; 'I' for Inactive)
REMARK    1  A    between atoms: C4_4  and  C7_8 
REMARK    2  A    between atoms: C7_8  and  C8_9 
REMARK    3  A    between atoms: C7_8  and  O3_20 
ROOT
ATOM      1  C8  <0> d          -1.708  -3.866  -1.341  0.00  0.00    -0.003 A 
ATOM      2  C9  <0> d          -2.857  -3.419  -1.970  0.00  0.00     0.021 A 
ATOM      3  C10 <0> d          -3.137  -3.823  -3.256  0.00  0.00    -0.022 A 
ATOM      4  C11 <0> d          -2.279  -4.677  -3.937  0.00  0.00     0.043 A 
ATOM      5  C12 <0> d          -1.124  -5.123  -3.298  0.00  0.00     0.054 A 
ATOM      6  C13 <0> d          -0.842  -4.712  -2.010  0.00  0.00     0.045 A 
ATOM      7 Cl1  <0> d           0.604  -5.267  -1.224  0.00  0.00    -0.084 Cl
ATOM      8  N1  <0> d          -2.774  -4.940  -5.215  0.00  0.00    -0.326 N 
ATOM      9  C14 <0> d          -3.936  -4.308  -5.450  0.00  0.00     0.226 A 
ATOM     10  O2  <0> d          -4.587  -4.355  -6.472  0.00  0.00    -0.273 OA
ATOM     11  C15 <0> d          -4.278  -3.524  -4.201  0.00  0.00     0.144 A 
ATOM     12  H11 <0> d          -2.330  -5.513  -5.859  0.00  0.00     0.169 HD
ENDROOT
BRANCH   1  13
ATOM     13  C7  <0> d          -1.397  -3.426   0.067  0.00  0.00     0.188 C 
BRANCH  13  14
ATOM     14  C4  <0> d          -0.354  -2.339   0.035  0.00  0.00     0.007 A 
ATOM     15  C3  <0> d          -0.532  -1.013  -0.421  0.00  0.00     0.045 A 
ATOM     16  C2  <0> d           0.650  -0.388  -0.272  0.00  0.00     0.050 A 
ATOM     17  C1  <0> d           0.938   1.048  -0.627  0.00  0.00     0.076 C 
ATOM     18  O1  <0> d           1.531  -1.262   0.242  0.00  0.00    -0.320 OA
ATOM     19  C5  <0> d           0.926  -2.445   0.436  0.00  0.00     0.058 A 
ATOM     20  C6  <0> d           1.573  -3.683   1.000  0.00  0.00     0.077 C 
ENDBRANCH  13  14
BRANCH  13  21
ATOM     21  O3  <0> d          -2.586  -2.927   0.683  0.00  0.00    -0.386 OA
ATOM     22  H14 <0> d          -2.977  -2.169   0.227  0.00  0.00     0.210 HD
ENDBRANCH  13  21
ENDBRANCH   1  13
TORSDOF 3
