REMARK  2 active torsions:
REMARK  status: ('A' for Active; 'I' for Inactive)
REMARK    1  A    between atoms: C2_2  and  C10_14 
REMARK       I    between atoms: C10_14  and  N2_16 
REMARK    2  A    between atoms: N2_16  and  C11_17 
ROOT
ATOM      1  C10 <0> d          -1.590  -0.257  -0.193  0.00  0.00     0.262 C 
ATOM      2  O3  <0> d          -2.161  -0.464  -1.243  0.00  0.00    -0.270 OA
ATOM      3  N2  <0> d          -2.232  -0.458   0.974  0.00  0.00    -0.353 N 
ATOM      4  H8  <0> d          -1.776  -0.292   1.814  0.00  0.00     0.163 HD
ENDROOT
BRANCH   1   5
ATOM      5  C2  <0> d          -0.163   0.226  -0.195  0.00  0.00     0.224 C 
ATOM      6  C1  <0> d          -0.141   1.752  -0.088  0.00  0.00     0.068 C 
ATOM      7  O2  <0> d           0.531  -0.339   0.920  0.00  0.00    -0.319 OA
ATOM      8  C9  <0> d           1.889  -0.259   0.906  0.00  0.00     0.098 A 
ATOM      9  C4  <0> d           2.571  -0.300  -0.308  0.00  0.00     0.070 A 
ATOM     10  C8  <0> d           2.598  -0.159   2.092  0.00  0.00     0.041 A 
ATOM     11  N1  <0> d           1.845  -0.382  -1.504  0.00  0.00    -0.322 N 
ATOM     12  C5  <0> d           3.955  -0.257  -0.327  0.00  0.00     0.056 A 
ATOM     13  C3  <0> d           0.508  -0.197  -1.477  0.00  0.00     0.267 C 
ATOM     14  H4  <0> d           2.297  -0.569  -2.341  0.00  0.00     0.169 HD
ATOM     15  O1  <0> d          -0.151  -0.370  -2.481  0.00  0.00    -0.269 OA
ATOM     16  C6  <0> d           4.657  -0.163   0.862  0.00  0.00     0.036 A 
ATOM     17  C7  <0> d           3.979  -0.111   2.067  0.00  0.00     0.026 A 
ATOM     18 Cl1  <0> d           6.392  -0.110   0.842  0.00  0.00    -0.084 Cl
ENDBRANCH   1   5
BRANCH   3  19
ATOM     19  C11 <0> d          -3.624  -0.928   0.976  0.00  0.00     0.089 C 
ATOM     20  C15 <0> d          -3.910  -1.651   2.292  0.00  0.00     0.063 C 
ATOM     21  C14 <0> d          -5.366  -2.099   2.357  0.00  0.00     0.121 C 
ATOM     22  N3  <0> d          -6.308  -1.037   2.039  0.00  0.00    -0.059 N 
ATOM     23  C16 <0> d          -5.575  -3.327   1.467  0.00  0.00     0.046 C 
ATOM     24  C17 <0> d          -5.644  -2.545   3.813  0.00  0.00     0.046 C 
ATOM     25  C13 <0> d          -6.015  -0.196   0.888  0.00  0.00     0.121 C 
ATOM     26  H12 <0> d          -6.403  -0.435   2.861  0.00  0.00     0.279 HD
ATOM     27  H27 <0> d          -7.232  -1.455   1.905  0.00  0.00     0.279 HD
ATOM     28  C12 <0> d          -4.561   0.276   0.875  0.00  0.00     0.063 C 
ATOM     29  C18 <0> d          -6.357  -0.886  -0.432  0.00  0.00     0.046 C 
ATOM     30  C19 <0> d          -6.905   1.064   0.991  0.00  0.00     0.046 C 
ENDBRANCH   3  19
TORSDOF 2
