REMARK  7 active torsions:
REMARK  status: ('A' for Active; 'I' for Inactive)
REMARK    1  A    between atoms: N1_5  and  C14_18 
REMARK    2  A    between atoms: C6_8  and  C10_13 
REMARK    3  A    between atoms: C10_13  and  C11_14 
REMARK    4  A    between atoms: C10_13  and  N2_17 
REMARK    5  A    between atoms: C14_18  and  C15_19 
REMARK    6  A    between atoms: C15_19  and  C16_20 
REMARK    7  A    between atoms: C16_20  and  N3_21 
ROOT
ATOM      1  C1  <0> d          -0.010   5.553  -0.288  0.00  0.00     0.050 C 
ATOM      2  C2  <0> d           0.056   4.074  -0.673  0.00  0.00     0.217 C 
ATOM      3  C3  <0> d          -1.233   3.396  -0.282  0.00  0.00     0.253 C 
ATOM      4  O1  <0> d          -2.267   4.029  -0.245  0.00  0.00    -0.270 OA
ATOM      5  N1  <0> d          -1.231   2.081   0.031  0.00  0.00    -0.313 N 
ATOM      6  C4  <0> d          -0.017   1.381   0.010  0.00  0.00     0.071 A 
ATOM      7  C5  <0> d           0.002  -0.004   0.002  0.00  0.00     0.041 A 
ATOM      8  C6  <0> d           1.211  -0.675  -0.012  0.00  0.00    -0.025 A 
ATOM      9  C7  <0> d           2.399   0.032  -0.019  0.00  0.00     0.012 A 
ATOM     10  C8  <0> d           2.387   1.415  -0.012  0.00  0.00     0.040 A 
ATOM     11  C9  <0> d           1.181   2.094   0.002  0.00  0.00     0.096 A 
ATOM     12  O2  <0> d           1.150   3.453   0.007  0.00  0.00    -0.335 OA
ENDROOT
BRANCH   8  13
ATOM     13  C10 <0> d           1.234  -2.182  -0.020  0.00  0.00     0.219 C 
BRANCH  13  14
ATOM     14  C11 <0> d           1.505  -2.696   1.395  0.00  0.00     0.012 C 
ATOM     15  C12 <0> d           0.401  -2.207   2.335  0.00  0.00     0.012 C 
ATOM     16  C13 <0> d           1.528  -4.225   1.387  0.00  0.00     0.012 C 
ENDBRANCH  13  14
BRANCH  13  17
ATOM     17  N2  <0> d           2.294  -2.651  -0.923  0.00  0.00    -0.071 N 
ATOM     18  H16 <0> d           2.310  -3.751  -0.929  0.00  0.00     0.275 HD
ATOM     19  H17 <0> d           3.266  -2.272  -0.575  0.00  0.00     0.275 HD
ATOM     20  H30 <0> d           2.099  -2.282  -1.940  0.00  0.00     0.275 HD
ENDBRANCH  13  17
ENDBRANCH   8  13
BRANCH   5  21
ATOM     21  C14 <0> d          -2.478   1.397   0.382  0.00  0.00     0.134 C 
BRANCH  21  22
ATOM     22  C15 <0> d          -2.700   1.485   1.893  0.00  0.00     0.048 C 
BRANCH  22  23
ATOM     23  C16 <0> d          -4.002   0.770   2.260  0.00  0.00     0.235 C 
BRANCH  23  24
ATOM     24  N3  <0> d          -4.215   0.855   3.711  0.00  0.00    -0.079 N 
ATOM     25  C17 <0> d          -5.562   0.392   4.073  0.00  0.00     0.269 C 
ATOM     26  C18 <0> d          -3.186   0.101   4.439  0.00  0.00     0.269 C 
ATOM     27  H31 <0> d          -4.131   1.911   4.004  0.00  0.00     0.278 HD
ENDBRANCH  23  24
ENDBRANCH  22  23
ENDBRANCH  21  22
ENDBRANCH   5  21
TORSDOF 7
