REMARK  7 active torsions:
REMARK  status: ('A' for Active; 'I' for Inactive)
REMARK    1  A    between atoms: C2_2  and  C3_3 
REMARK    2  A    between atoms: C3_3  and  N1_4 
REMARK       I    between atoms: N1_4  and  C4_5 
REMARK    3  A    between atoms: C4_5  and  C5_7 
REMARK    4  A    between atoms: C5_7  and  N2_9 
REMARK    5  A    between atoms: N2_9  and  C7_10 
REMARK    6  A    between atoms: C7_10  and  C8_11 
REMARK    7  A    between atoms: C13_16  and  O2_17 
ROOT
ATOM      1  N2  <0> d          -3.929  -4.704   0.014  0.00  0.00     0.101 N 
ATOM      2  H13 <0> d          -4.310  -4.696   0.949  0.00  0.00     0.317 HD
ENDROOT
BRANCH   1   3
ATOM      3  C5  <0> d          -2.551  -4.195   0.004  0.00  0.00     0.307 C 
ATOM      4  C6  <0> d          -1.811  -4.702   1.243  0.00  0.00     0.053 C 
BRANCH   3   5
ATOM      5  C4  <0> d          -2.571  -2.688   0.012  0.00  0.00     0.250 C 
ATOM      6  N1  <0> d          -1.413  -1.998   0.005  0.00  0.00    -0.359 N 
ATOM      7  H9  <0> d          -0.567  -2.472  -0.006  0.00  0.00     0.162 HD
ATOM      8  O1  <0> d          -3.630  -2.096   0.025  0.00  0.00    -0.271 OA
BRANCH   6   9
ATOM      9  C3  <0> d          -1.433  -0.534   0.013  0.00  0.00     0.122 C 
BRANCH   9  10
ATOM     10  C2  <0> d           0.002  -0.004   0.002  0.00  0.00     0.015 C 
ATOM     11  C1  <0> d          -0.019   1.526   0.010  0.00  0.00     0.006 C 
ENDBRANCH   9  10
ENDBRANCH   6   9
ENDBRANCH   3   5
ENDBRANCH   1   3
BRANCH   1  12
ATOM     12  C7  <0> d          -3.998  -6.049  -0.572  0.00  0.00     0.312 C 
BRANCH  12  13
ATOM     13  C8  <0> d          -5.424  -6.536  -0.544  0.00  0.00     0.004 A 
ATOM     14  C13 <0> d          -6.323  -6.107  -1.509  0.00  0.00     0.091 A 
ATOM     15  C12 <0> d          -7.635  -6.562  -1.483  0.00  0.00     0.044 A 
ATOM     16  C11 <0> d          -8.043  -7.432  -0.490  0.00  0.00     0.022 A 
ATOM     17 Br1  <0> d          -8.862  -5.986  -2.801  0.00  0.00    -0.048 Br
ATOM     18  C10 <0> d          -7.146  -7.854   0.473  0.00  0.00     0.002 A 
ATOM     19  C9  <0> d          -5.838  -7.406   0.447  0.00  0.00     0.012 A 
BRANCH  14  20
ATOM     20  O2  <0> d          -5.920  -5.247  -2.481  0.00  0.00    -0.359 OA
ATOM     21  H19 <0> d          -5.579  -5.682  -3.275  0.00  0.00     0.217 HD
ENDBRANCH  14  20
ENDBRANCH  12  13
ENDBRANCH   1  12
TORSDOF 7
