REMARK  3 active torsions:
REMARK  status: ('A' for Active; 'I' for Inactive)
REMARK    1  A    between atoms: C4_6  and  C5_7 
REMARK    2  A    between atoms: C7_9  and  O3_15 
REMARK    3  A    between atoms: C8_10  and  O2_14 
ROOT
ATOM      1  C1  <0> d          -4.492   0.662   2.004  0.00  0.00     0.162 C 
ATOM      2  N1  <0> d          -3.223   1.368   1.810  0.00  0.00    -0.294 N 
ATOM      3  C2  <0> d          -2.288   0.831   1.000  0.00  0.00     0.265 A 
ATOM      4  O1  <0> d          -2.486  -0.226   0.431  0.00  0.00    -0.267 OA
ATOM      5  C3  <0> d          -1.017   1.563   0.822  0.00  0.00     0.101 A 
ATOM      6  C4  <0> d          -0.013   1.076   0.008  0.00  0.00     0.034 C 
ATOM      7  C12 <0> d          -0.866   2.834   1.556  0.00  0.00     0.263 A 
ATOM      8  O4  <0> d           0.153   3.492   1.465  0.00  0.00    -0.267 OA
ATOM      9  N2  <0> d          -1.892   3.249   2.328  0.00  0.00    -0.299 N 
ATOM     10  C13 <0> d          -3.018   2.532   2.442  0.00  0.00     0.183 A 
ATOM     11  S1  <0> d          -4.264   3.135   3.450  0.00  0.00    -0.040 SA
ATOM     12  H11 <0> d          -1.811   4.084   2.815  0.00  0.00     0.171 HD
ENDROOT
BRANCH   6  13
ATOM     13  C5  <0> d           1.133   1.922  -0.325  0.00  0.00    -0.031 A 
ATOM     14  C10 <0> d           0.934   3.253  -0.721  0.00  0.00     0.032 A 
ATOM     15  C9  <0> d           2.016   4.047  -1.028  0.00  0.00     0.043 A 
ATOM     16  C8  <0> d           3.304   3.531  -0.959  0.00  0.00     0.115 A 
ATOM     17  I1  <0> d           1.717   6.038  -1.610  0.00  0.00    -0.042 I 
ATOM     18  C7  <0> d           3.511   2.206  -0.571  0.00  0.00     0.103 A 
ATOM     19  C6  <0> d           2.436   1.403  -0.255  0.00  0.00     0.051 A 
BRANCH  16  20
ATOM     20  O2  <0> d           4.366   4.319  -1.268  0.00  0.00    -0.357 OA
ATOM     21  H7  <0> d           4.617   4.292  -2.201  0.00  0.00     0.218 HD
ENDBRANCH  16  20
BRANCH  18  22
ATOM     22  O3  <0> d           4.774   1.707  -0.505  0.00  0.00    -0.353 OA
ATOM     23  C11 <0> d           4.913   0.343  -0.101  0.00  0.00     0.210 C 
ENDBRANCH  18  22
ENDBRANCH   6  13
TORSDOF 3
