REMARK  5 active torsions:
REMARK  status: ('A' for Active; 'I' for Inactive)
REMARK    1  A    between atoms: C2_2  and  N1_4 
REMARK       I    between atoms: N1_4  and  C5_6 
REMARK    2  A    between atoms: C5_6  and  C6_8 
REMARK    3  A    between atoms: C6_8  and  S1_9 
REMARK    4  A    between atoms: S1_9  and  C7_11 
REMARK    5  A    between atoms: C10_16  and  N4_21 
ROOT
ATOM      1  C7  <0> d          -5.185  -3.341  -2.313  0.00  0.00     0.198 A 
ATOM      2  N2  <0> d          -5.586  -4.482  -1.688  0.00  0.00    -0.331 N 
ATOM      3  H1  <0> d          -5.011  -5.136  -1.260  0.00  0.00     0.168 HD
ATOM      4  C8  <0> d          -6.963  -4.537  -1.778  0.00  0.00     0.065 A 
ATOM      5  C9  <0> d          -7.923  -5.438  -1.341  0.00  0.00     0.061 A 
ATOM      6  C10 <0> d          -9.261  -5.193  -1.602  0.00  0.00     0.028 A 
ATOM      7  C11 <0> d          -9.643  -4.048  -2.298  0.00  0.00     0.031 A 
ATOM      8  C12 <0> d          -8.707  -3.154  -2.732  0.00  0.00     0.036 A 
ATOM      9  C13 <0> d          -7.352  -3.383  -2.479  0.00  0.00     0.086 A 
ATOM     10  N3  <0> d          -6.217  -2.695  -2.771  0.00  0.00    -0.221 NA
ENDROOT
BRANCH   1  11
ATOM     11  S1  <0> d          -3.511  -2.812  -2.472  0.00  0.00     0.095 S 
ATOM     12  O2  <0> d          -2.760  -4.015  -2.381  0.00  0.00    -0.249 OA
BRANCH  11  13
ATOM     13  C6  <0> d          -3.226  -1.808  -0.988  0.00  0.00     0.220 C 
BRANCH  13  14
ATOM     14  C5  <0> d          -1.812  -1.286  -0.998  0.00  0.00     0.231 C 
ATOM     15  N1  <0> d          -1.372  -0.511   0.012  0.00  0.00    -0.352 N 
ATOM     16  C4  <0> d          -2.269  -0.175   1.122  0.00  0.00     0.153 C 
ATOM     17  O1  <0> d          -1.070  -1.564  -1.917  0.00  0.00    -0.272 OA
BRANCH  15  18
ATOM     18  C2  <0> d           0.002  -0.004   0.002  0.00  0.00     0.078 C 
ATOM     19  C1  <0> d          -0.019   1.526   0.010  0.00  0.00     0.032 C 
ATOM     20  C3  <0> d           0.742  -0.511   1.242  0.00  0.00     0.032 C 
ENDBRANCH  15  18
ENDBRANCH  13  14
ENDBRANCH  11  13
ENDBRANCH   1  11
BRANCH   6  21
ATOM     21  N4  <0> d         -10.233  -6.098  -1.165  0.00  0.00    -0.399 N 
ATOM     22  H17 <0> d          -9.969  -6.896  -0.680  0.00  0.00     0.156 HD
ATOM     23  H18 <0> d         -11.170  -5.929  -1.346  0.00  0.00     0.156 HD
ENDBRANCH   6  21
TORSDOF 5
