REMARK  7 active torsions:
REMARK  status: ('A' for Active; 'I' for Inactive)
REMARK    1  A    between atoms: C2_2  and  N1_3 
REMARK    2  A    between atoms: N1_3  and  C3_4 
REMARK    3  A    between atoms: N1_3  and  C5_6 
REMARK    4  A    between atoms: C5_6  and  C6_7 
REMARK    5  A    between atoms: C5_6  and  C12_19 
REMARK    6  A    between atoms: C6_7  and  N2_8 
REMARK    7  A    between atoms: N2_8  and  C7_9 
ROOT
ATOM      1  C6  <0> d           4.054   3.521   1.156  0.00  0.00     0.157 C 
ENDROOT
BRANCH   1   2
ATOM      2  C5  <0> d           3.570   2.820  -0.114  0.00  0.00     0.240 C 
BRANCH   2   3
ATOM      3  N1  <0> d           2.716   1.681   0.251  0.00  0.00    -0.062 N 
ATOM      4  H22 <0> d           1.726   2.074   0.522  0.00  0.00     0.280 HD
BRANCH   3   5
ATOM      5  C2  <0> d           2.544   0.767  -0.886  0.00  0.00     0.231 C 
ATOM      6  C1  <0> d           1.498   1.338  -1.845  0.00  0.00     0.034 C 
ENDBRANCH   3   5
BRANCH   3   7
ATOM      7  C3  <0> d           3.256   0.972   1.419  0.00  0.00     0.231 C 
ATOM      8  C4  <0> d           2.112   0.603   2.365  0.00  0.00     0.034 C 
ENDBRANCH   3   7
ENDBRANCH   2   3
BRANCH   2   9
ATOM      9  C12 <0> d           2.780   3.790  -0.954  0.00  0.00    -0.004 A 
ATOM     10  C17 <0> d           3.399   4.481  -1.979  0.00  0.00     0.042 A 
ATOM     11  C16 <0> d           2.673   5.372  -2.750  0.00  0.00     0.024 A 
ATOM     12 Cl1  <0> d           5.087   4.232  -2.299  0.00  0.00    -0.084 Cl
ATOM     13  C15 <0> d           1.328   5.566  -2.498  0.00  0.00     0.002 A 
ATOM     14  C14 <0> d           0.711   4.879  -1.470  0.00  0.00     0.001 A 
ATOM     15  C13 <0> d           1.435   3.990  -0.699  0.00  0.00     0.011 A 
ENDBRANCH   2   9
ENDBRANCH   1   2
BRANCH   1  16
ATOM     16  N2  <0> d           5.343   2.956   1.565  0.00  0.00    -0.395 N 
ATOM     17  H14 <0> d           5.765   2.099   1.020  0.00  0.00     0.158 HD
BRANCH  16  18
ATOM     18  C7  <0> d           6.012   3.488   2.608  0.00  0.00     0.106 C 
ATOM     19  C8  <0> d           7.281   3.036   2.918  0.00  0.00     0.115 A 
ATOM     20  C11 <0> d           7.992   3.505   4.120  0.00  0.00     0.264 A 
ATOM     21  C9  <0> d           7.979   2.058   2.064  0.00  0.00     0.264 A 
ATOM     22  N4  <0> d           9.228   3.021   4.360  0.00  0.00    -0.299 N 
ATOM     23  O2  <0> d           7.479   4.308   4.877  0.00  0.00    -0.267 OA
ATOM     24  C10 <0> d           9.806   2.136   3.535  0.00  0.00     0.181 A 
ATOM     25  H17 <0> d           9.763   3.368   5.256  0.00  0.00     0.171 HD
ATOM     26  N3  <0> d           9.218   1.667   2.425  0.00  0.00    -0.299 N 
ATOM     27  S1  <0> d          11.377   1.576   3.919  0.00  0.00    -0.040 SA
ATOM     28  H16 <0> d           9.770   0.946   1.804  0.00  0.00     0.171 HD
ATOM     29  O1  <0> d           7.454   1.621   1.057  0.00  0.00    -0.267 OA
ENDBRANCH  16  18
ENDBRANCH   1  16
TORSDOF 7
