REMARK  6 active torsions:
REMARK  status: ('A' for Active; 'I' for Inactive)
REMARK    1  A    between atoms: C5_5  and  N3_21 
REMARK    2  A    between atoms: C7_7  and  N1_8 
REMARK       I    between atoms: N1_8  and  C8_9 
REMARK    3  A    between atoms: C8_9  and  C9_11 
REMARK    4  A    between atoms: C9_11  and  C10_12 
REMARK    5  A    between atoms: C10_12  and  C11_13 
REMARK    6  A    between atoms: C11_13  and  N2_14 
ROOT
ATOM      1  N1  <0> d           0.025  -0.011   2.417  0.00  0.00    -0.327 N 
ATOM      2  C8  <0> d          -0.057  -0.689   3.579  0.00  0.00     0.222 C 
ATOM      3  O1  <0> d          -0.040  -1.901   3.577  0.00  0.00    -0.273 OA
ATOM      4  H7  <0> d           0.078   0.958   2.423  0.00  0.00     0.169 HD
ENDROOT
BRANCH   2   5
ATOM      5  C9  <0> d          -0.168   0.061   4.882  0.00  0.00     0.105 C 
BRANCH   5   6
ATOM      6  C10 <0> d          -0.245  -0.937   6.039  0.00  0.00     0.037 C 
BRANCH   6   7
ATOM      7  C11 <0> d          -0.358  -0.176   7.362  0.00  0.00     0.235 C 
BRANCH   7   8
ATOM      8  N2  <0> d          -0.432  -1.134   8.473  0.00  0.00    -0.070 N 
ATOM      9  C16 <0> d          -1.665  -1.921   8.381  0.00  0.00     0.245 C 
ATOM     10  C15 <0> d          -1.568  -3.318   8.806  0.00  0.00     0.101 C 
ATOM     11  S1  <0> d          -1.179  -3.353  10.603  0.00  0.00    -0.167 SA
ATOM     12  C14 <0> d           0.471  -2.629  10.692  0.00  0.00     0.075 C 
ATOM     13  C13 <0> d           0.455  -1.094  10.732  0.00  0.00     0.038 C 
ATOM     14  C12 <0> d          -0.505  -0.423   9.747  0.00  0.00     0.235 C 
ATOM     15  H26 <0> d           0.372  -1.744   8.460  0.00  0.00     0.279 HD
ENDBRANCH   7   8
ENDBRANCH   6   7
ENDBRANCH   5   6
ENDBRANCH   2   5
BRANCH   1  16
ATOM     16  C7  <0> d           0.033  -0.705   1.202  0.00  0.00     0.042 A 
ATOM     17  C2  <0> d          -0.585  -0.158   0.085  0.00  0.00    -0.035 A 
ATOM     18  C1  <0> d          -1.265   1.183   0.182  0.00  0.00     0.050 C 
ATOM     19  C3  <0> d          -0.572  -0.840  -1.117  0.00  0.00     0.011 A 
ATOM     20  C4  <0> d           0.050  -2.069  -1.210  0.00  0.00     0.029 A 
ATOM     21  C5  <0> d           0.666  -2.625  -0.095  0.00  0.00     0.027 A 
ATOM     22  C6  <0> d           0.655  -1.942   1.113  0.00  0.00     0.059 A 
BRANCH  21  23
ATOM     23  N3  <0> d           1.294  -3.869  -0.190  0.00  0.00    -0.399 N 
ATOM     24  H24 <0> d           1.301  -4.345  -1.035  0.00  0.00     0.156 HD
ATOM     25  H25 <0> d           1.723  -4.256   0.589  0.00  0.00     0.156 HD
ENDBRANCH  21  23
ENDBRANCH   1  16
TORSDOF 6
