REMARK  9 active torsions:
REMARK  status: ('A' for Active; 'I' for Inactive)
REMARK    1  A    between atoms: C2_2  and  C3_3 
REMARK    2  A    between atoms: C3_3  and  N1_5 
REMARK    3  A    between atoms: N1_5  and  C6_7 
REMARK    4  A    between atoms: C6_7  and  C7_8 
REMARK    5  A    between atoms: C7_8  and  N2_9 
REMARK       I    between atoms: N2_9  and  C8_10 
REMARK       I    between atoms: C8_10  and  N3_12 
REMARK    6  A    between atoms: N3_12  and  C9_13 
REMARK    7  A    between atoms: C9_13  and  C10_14 
REMARK    8  A    between atoms: C10_14  and  C11_15 
REMARK    9  A    between atoms: C10_14  and  N4_20 
ROOT
ATOM      1  N2  <0> d          -5.600  -0.141  -1.935  0.00  0.00    -0.342 N 
ATOM      2  C8  <0> d          -6.453  -0.010  -2.970  0.00  0.00     0.316 C 
ATOM      3  O1  <0> d          -6.061   0.443  -4.028  0.00  0.00    -0.247 OA
ATOM      4  N3  <0> d          -7.742  -0.380  -2.833  0.00  0.00    -0.341 N 
ATOM      5  H18 <0> d          -5.914  -0.502  -1.091  0.00  0.00     0.164 HD
ATOM      6  H19 <0> d          -8.055  -0.741  -1.988  0.00  0.00     0.164 HD
ENDROOT
BRANCH   4   7
ATOM      7  C9  <0> d          -8.669  -0.238  -3.958  0.00  0.00     0.163 C 
BRANCH   7   8
ATOM      8  C10 <0> d         -10.082  -0.608  -3.504  0.00  0.00     0.245 C 
BRANCH   8   9
ATOM      9  C11 <0> d         -10.550   0.376  -2.463  0.00  0.00     0.015 A 
ATOM     10  S1  <0> d         -11.212   2.019  -2.687  0.00  0.00    -0.104 SA
ATOM     11  C14 <0> d         -11.481   2.418  -0.967  0.00  0.00     0.050 A 
ATOM     12  C13 <0> d         -11.049   1.293  -0.347  0.00  0.00     0.008 A 
ATOM     13  C12 <0> d         -10.572   0.246  -1.114  0.00  0.00     0.017 A 
ENDBRANCH   8   9
BRANCH   8  14
ATOM     14  N4  <0> d         -10.992  -0.571  -4.657  0.00  0.00    -0.061 N 
ATOM     15  C18 <0> d         -10.610  -1.616  -5.624  0.00  0.00     0.236 C 
ATOM     16  C17 <0> d         -11.828  -2.549  -5.794  0.00  0.00     0.029 C 
ATOM     17  C16 <0> d         -13.016  -1.657  -5.350  0.00  0.00     0.029 C 
ATOM     18  C15 <0> d         -12.377  -0.830  -4.206  0.00  0.00     0.236 C 
ATOM     19  H34 <0> d         -10.945   0.334  -5.099  0.00  0.00     0.280 HD
ENDBRANCH   8  14
ENDBRANCH   7   8
ENDBRANCH   4   7
BRANCH   1  20
ATOM     20  C7  <0> d          -4.200   0.262  -2.084  0.00  0.00     0.152 C 
BRANCH  20  21
ATOM     21  C6  <0> d          -3.454   0.011  -0.772  0.00  0.00     0.254 C 
BRANCH  21  22
ATOM     22  N1  <0> d          -2.050   0.415  -0.922  0.00  0.00    -0.070 N 
ATOM     23  C5  <0> d          -1.978   1.866  -1.138  0.00  0.00     0.270 C 
ATOM     24  H33 <0> d          -1.645  -0.063  -1.712  0.00  0.00     0.279 HD
BRANCH  22  25
ATOM     25  C3  <0> d          -1.307   0.065   0.296  0.00  0.00     0.183 C 
ATOM     26  C4  <0> d          -2.004   0.677   1.513  0.00  0.00     0.040 C 
BRANCH  25  27
ATOM     27  C2  <0> d          -1.262  -1.457   0.446  0.00  0.00     0.028 C 
ATOM     28  C1  <0> d          -0.475  -2.062  -0.719  0.00  0.00     0.007 C 
ENDBRANCH  25  27
ENDBRANCH  22  25
ENDBRANCH  21  22
ENDBRANCH  20  21
ENDBRANCH   1  20
TORSDOF 9
