REMARK  5 active torsions:
REMARK  status: ('A' for Active; 'I' for Inactive)
REMARK    1  A    between atoms: C9_11  and  N2_12 
REMARK    2  A    between atoms: N2_12  and  C10_13 
REMARK    3  A    between atoms: C10_13  and  C11_14 
REMARK    4  A    between atoms: C11_14  and  C12_15 
REMARK    5  A    between atoms: C12_15  and  S1_16 
ROOT
ATOM      1  C1  <0> d          -0.018   1.503   0.010  0.00  0.00     0.050 C 
ATOM      2  C2  <0> d           0.002  -0.004   0.002  0.00  0.00    -0.035 A 
ATOM      3  C3  <0> d           0.006  -0.686  -1.198  0.00  0.00     0.009 A 
ATOM      4  C4  <0> d           0.024  -2.068  -1.216  0.00  0.00     0.001 A 
ATOM      5  C5  <0> d           0.039  -2.773  -0.024  0.00  0.00     0.012 A 
ATOM      6  C6  <0> d           0.036  -2.095   1.174  0.00  0.00     0.009 A 
ATOM      7  C7  <0> d           0.023  -0.706   1.206  0.00  0.00     0.049 A 
ATOM      8  N1  <0> d           0.029  -0.253   2.525  0.00  0.00    -0.324 N 
ATOM      9  C8  <0> d           0.052  -1.264   3.410  0.00  0.00     0.257 A 
ATOM     10  O1  <0> d           0.062  -1.164   4.619  0.00  0.00    -0.270 OA
ATOM     11  C9  <0> d           0.049  -2.553   2.614  0.00  0.00     0.312 A 
ATOM     12  H8  <0> d           0.019   0.684   2.776  0.00  0.00     0.169 HD
ENDROOT
BRANCH  11  13
ATOM     13  N2  <0> d          -1.147  -3.353   2.910  0.00  0.00    -0.058 N 
ATOM     14  H9  <0> d          -1.968  -2.773   2.831  0.00  0.00     0.278 HD
ATOM     15  H19 <0> d          -1.210  -4.118   2.255  0.00  0.00     0.278 HD
BRANCH  13  16
ATOM     16  C10 <0> d          -1.054  -3.885   4.277  0.00  0.00     0.234 C 
BRANCH  16  17
ATOM     17  C11 <0> d          -2.299  -4.719   4.585  0.00  0.00     0.042 C 
BRANCH  17  18
ATOM     18  C12 <0> d          -2.203  -5.273   6.008  0.00  0.00     0.141 C 
BRANCH  18  19
ATOM     19  S1  <0> d          -3.679  -6.261   6.373  0.00  0.00     0.140 S 
ATOM     20  O2  <0> d          -4.808  -5.399   6.377  0.00  0.00    -0.228 OA
ATOM     21  O3  <0> d          -3.681  -7.399   5.521  0.00  0.00    -0.228 OA
ATOM     22  C13 <0> d          -3.377  -6.819   8.073  0.00  0.00     0.161 C 
ENDBRANCH  18  19
ENDBRANCH  17  18
ENDBRANCH  16  17
ENDBRANCH  13  16
ENDBRANCH  11  13
TORSDOF 5
