REMARK  7 active torsions:
REMARK  status: ('A' for Active; 'I' for Inactive)
REMARK    1  A    between atoms: C2_2  and  N1_3 
REMARK    2  A    between atoms: N1_3  and  C3_4 
REMARK    3  A    between atoms: N1_3  and  C8_10 
REMARK    4  A    between atoms: C3_4  and  C4_5 
REMARK    5  A    between atoms: C8_10  and  C9_11 
REMARK    6  A    between atoms: C8_10  and  C10_13 
REMARK    7  A    between atoms: C9_11  and  N2_12 
ROOT
ATOM      1  C8  <0> d          -2.291  -0.112   1.076  0.00  0.00     0.284 C 
ENDROOT
BRANCH   1   2
ATOM      2  N1  <0> d          -1.264  -0.104   0.025  0.00  0.00     0.101 N 
BRANCH   2   3
ATOM      3  C2  <0> d          -0.008   0.473   0.521  0.00  0.00     0.269 C 
ATOM      4  C1  <0> d          -0.141   1.996   0.597  0.00  0.00     0.037 C 
ENDBRANCH   2   3
BRANCH   2   5
ATOM      5  C3  <0> d          -1.048  -1.455  -0.510  0.00  0.00     0.305 C 
BRANCH   5   6
ATOM      6  C4  <0> d          -0.426  -1.358  -1.904  0.00  0.00     0.149 C 
ATOM      7  O1  <0> d          -1.327  -0.695  -2.806  0.00  0.00    -0.384 OA
ATOM      8  C7  <0> d          -1.242  -1.292  -4.107  0.00  0.00     0.168 C 
ATOM      9  C6  <0> d          -0.231  -2.456  -4.022  0.00  0.00     0.029 C 
ATOM     10  C5  <0> d          -0.222  -2.773  -2.502  0.00  0.00     0.036 C 
ENDBRANCH   5   6
ENDBRANCH   2   5
ENDBRANCH   1   2
BRANCH   1  11
ATOM     11  C9  <0> d          -1.616  -0.163   2.448  0.00  0.00     0.270 C 
BRANCH  11  12
ATOM     12  N2  <0> d          -0.917  -1.445   2.603  0.00  0.00    -0.077 N 
ATOM     13  H18 <0> d          -0.566  -1.525   3.545  0.00  0.00     0.274 HD
ATOM     14  H19 <0> d          -1.558  -2.202   2.417  0.00  0.00     0.274 HD
ATOM     15  H23 <0> d          -0.147  -1.490   1.952  0.00  0.00     0.274 HD
ENDBRANCH  11  12
ENDBRANCH   1  11
BRANCH   1  16
ATOM     16  C10 <0> d          -3.125   1.139   0.972  0.00  0.00     0.017 A 
ATOM     17  C15 <0> d          -4.303   1.247   1.692  0.00  0.00     0.124 A 
ATOM     18  C14 <0> d          -5.066   2.399   1.601  0.00  0.00     0.044 A 
ATOM     19  F1  <0> d          -4.704   0.232   2.488  0.00  0.00    -0.205 F 
ATOM     20  C13 <0> d          -4.658   3.435   0.782  0.00  0.00     0.022 A 
ATOM     21  C12 <0> d          -3.484   3.323   0.058  0.00  0.00     0.011 A 
ATOM     22  C11 <0> d          -2.718   2.175   0.153  0.00  0.00     0.031 A 
ATOM     23 Br1  <0> d          -2.926   4.741  -1.062  0.00  0.00    -0.051 Br
ENDBRANCH   1  16
TORSDOF 7
