REMARK  4 active torsions:
REMARK  status: ('A' for Active; 'I' for Inactive)
REMARK    1  A    between atoms: C4_4  and  N1_9 
REMARK    2  A    between atoms: N1_9  and  S1_10 
REMARK    3  A    between atoms: S1_10  and  C8_13 
REMARK    4  A    between atoms: C12_18  and  N3_19 
ROOT
ATOM      1  S1  <0> d           1.151  -3.977  -2.694  0.00  0.00     0.266 S 
ATOM      2  O1  <0> d           1.091  -4.468  -4.026  0.00  0.00    -0.200 OA
ATOM      3  O2  <0> d           2.327  -3.396  -2.148  0.00  0.00    -0.200 OA
ENDROOT
BRANCH   1   4
ATOM      4  N1  <0> d          -0.047  -2.842  -2.554  0.00  0.00    -0.281 N 
ATOM      5  H15 <0> d          -0.624  -2.650  -3.310  0.00  0.00     0.179 HD
BRANCH   4   6
ATOM      6  C4  <0> d          -0.225  -2.160  -1.348  0.00  0.00     0.043 A 
ATOM      7  C3  <0> d          -0.393  -0.781  -1.346  0.00  0.00     0.038 A 
ATOM      8  C2  <0> d          -0.570  -0.110  -0.152  0.00  0.00    -0.043 A 
ATOM      9  C1  <0> d          -0.752   1.386  -0.149  0.00  0.00     0.049 C 
ATOM     10  C7  <0> d          -0.575  -0.808   1.042  0.00  0.00     0.017 A 
ATOM     11  C6  <0> d          -0.413  -2.183   1.043  0.00  0.00     0.022 A 
ATOM     12 Br1  <0> d          -0.809   0.115   2.675  0.00  0.00    -0.051 Br
ATOM     13  C5  <0> d          -0.236  -2.860  -0.148  0.00  0.00     0.031 A 
ENDBRANCH   4   6
ENDBRANCH   1   4
BRANCH   1  14
ATOM     14  C8  <0> d           0.718  -5.322  -1.641  0.00  0.00     0.123 A 
ATOM     15  C12 <0> d          -0.431  -6.067  -1.885  0.00  0.00     0.124 A 
ATOM     16  N2  <0> d          -0.755  -7.083  -1.100  0.00  0.00    -0.351 N 
ATOM     17  C11 <0> d          -0.016  -7.416  -0.059  0.00  0.00     0.090 A 
ATOM     18  H14 <0> d          -1.559  -7.591  -1.291  0.00  0.00     0.166 HD
ATOM     19  C10 <0> d           1.135  -6.716   0.245  0.00  0.00     0.019 A 
ATOM     20  C9  <0> d           1.514  -5.648  -0.557  0.00  0.00     0.030 A 
BRANCH  15  21
ATOM     21  N3  <0> d          -1.243  -5.747  -2.967  0.00  0.00    -0.379 N 
ATOM     22  C13 <0> d          -2.389  -6.597  -3.300  0.00  0.00     0.147 C 
ATOM     23  H10 <0> d          -1.050  -4.961  -3.502  0.00  0.00     0.160 HD
ENDBRANCH  15  21
ENDBRANCH   1  14
TORSDOF 4
