REMARK  4 active torsions:
REMARK  status: ('A' for Active; 'I' for Inactive)
REMARK    1  A    between atoms: O1_2  and  C2_3 
REMARK    2  A    between atoms: C5_6  and  C12_18 
REMARK    3  A    between atoms: C7_8  and  S1_9 
REMARK    4  A    between atoms: S1_9  and  N1_12 
ROOT
ATOM      1  C2  <0> d           0.626  -0.618   1.041  0.00  0.00     0.091 A 
ATOM      2  C3  <0> d           0.979   0.113   2.168  0.00  0.00     0.039 A 
ATOM      3  C4  <0> d           1.611  -0.507   3.224  0.00  0.00     0.017 A 
ATOM      4  C5  <0> d           1.897  -1.870   3.160  0.00  0.00    -0.004 A 
ATOM      5  C6  <0> d           1.541  -2.602   2.028  0.00  0.00     0.042 A 
ATOM      6  C7  <0> d           0.903  -1.977   0.977  0.00  0.00     0.113 A 
ENDROOT
BRANCH   4   7
ATOM      7  C12 <0> d           2.578  -2.541   4.294  0.00  0.00     0.094 A 
ATOM      8  C13 <0> d           2.181  -2.253   5.626  0.00  0.00    -0.015 A 
ATOM      9  C18 <0> d           2.819  -2.890   6.636  0.00  0.00     0.020 A 
ATOM     10  C14 <0> d           1.081  -1.254   5.856  0.00  0.00     0.042 C 
ATOM     11  C17 <0> d           2.478  -2.679   8.084  0.00  0.00     0.045 C 
ATOM     12  C19 <0> d           3.853  -3.798   6.301  0.00  0.00     0.268 A 
ATOM     13  C16 <0> d           1.680  -1.388   8.263  0.00  0.00     0.005 C 
ATOM     14  C15 <0> d           0.514  -1.397   7.267  0.00  0.00     0.005 C 
ATOM     15  O5  <0> d           4.460  -4.390   7.179  0.00  0.00    -0.266 OA
ATOM     16  N2  <0> d           4.164  -4.003   5.008  0.00  0.00    -0.242 N 
ATOM     17  H1  <0> d           4.874  -4.625   4.785  0.00  0.00     0.192 HD
ATOM     18  N3  <0> d           3.540  -3.400   4.061  0.00  0.00    -0.171 NA
ENDBRANCH   4   7
BRANCH   6  19
ATOM     19  S1  <0> d           0.448  -2.902  -0.451  0.00  0.00     0.263 S 
ATOM     20  O2  <0> d           0.913  -2.168  -1.576  0.00  0.00    -0.200 OA
ATOM     21  O3  <0> d           0.836  -4.246  -0.206  0.00  0.00    -0.200 OA
BRANCH  19  22
ATOM     22  N1  <0> d          -1.206  -2.894  -0.532  0.00  0.00    -0.303 N 
ATOM     23  C11 <0> d          -1.924  -1.838  -1.264  0.00  0.00     0.161 C 
ATOM     24  C10 <0> d          -3.009  -1.264  -0.351  0.00  0.00     0.188 C 
ATOM     25  O4  <0> d          -3.805  -2.333   0.166  0.00  0.00    -0.388 OA
ATOM     26  C9  <0> d          -3.083  -3.261   0.978  0.00  0.00     0.188 C 
ATOM     27  C8  <0> d          -2.002  -3.940   0.130  0.00  0.00     0.161 C 
ENDBRANCH  19  22
ENDBRANCH   6  19
BRANCH   1  28
ATOM     28  O1  <0> d           0.002  -0.004   0.002  0.00  0.00    -0.354 OA
ATOM     29  C1  <0> d          -0.253   1.396   0.135  0.00  0.00     0.210 C 
ENDBRANCH   1  28
TORSDOF 4
