REMARK  7 active torsions:
REMARK  status: ('A' for Active; 'I' for Inactive)
REMARK    1  A    between atoms: C2_2  and  O1_3 
REMARK    2  A    between atoms: O1_3  and  C3_4 
REMARK    3  A    between atoms: C3_4  and  C4_6 
REMARK    4  A    between atoms: C4_6  and  C5_7 
REMARK    5  A    between atoms: C7_10  and  N2_12 
REMARK       I    between atoms: N2_12  and  C8_13 
REMARK    6  A    between atoms: C8_13  and  C9_15 
REMARK    7  A    between atoms: C9_15  and  N3_16 
ROOT
ATOM      1  N2  <0> d          -0.242   1.246   2.466  0.00  0.00    -0.304 N 
ATOM      2  C8  <0> d          -0.718   1.572   1.248  0.00  0.00     0.242 C 
ATOM      3  O3  <0> d          -1.715   2.256   1.150  0.00  0.00    -0.271 OA
ATOM      4  H9  <0> d           0.555   0.699   2.544  0.00  0.00     0.171 HD
ENDROOT
BRANCH   2   5
ATOM      5  C9  <0> d          -0.013   1.086   0.008  0.00  0.00     0.236 C 
BRANCH   5   6
ATOM      6  N3  <0> d          -0.721   1.571  -1.179  0.00  0.00    -0.293 N 
ATOM      7  C13 <0> d          -1.706   0.830  -1.730  0.00  0.00     0.257 A 
ATOM      8  C12 <0> d          -2.372   1.330  -2.869  0.00  0.00     0.035 A 
ATOM      9  O4  <0> d          -2.018  -0.247  -1.249  0.00  0.00    -0.267 OA
ATOM     10  C11 <0> d          -1.989   2.533  -3.376  0.00  0.00     0.048 A 
ATOM     11  C14 <0> d          -3.496   0.747  -3.693  0.00  0.00     0.047 C 
ATOM     12  N4  <0> d          -1.001   3.215  -2.785  0.00  0.00    -0.239 NA
ATOM     13  C16 <0> d          -2.825   2.871  -4.592  0.00  0.00     0.060 C 
ATOM     14  C10 <0> d          -0.388   2.756  -1.728  0.00  0.00     0.105 A 
ATOM     15  C17 <0> d           0.718   3.570  -1.106  0.00  0.00     0.091 C 
ATOM     16  C15 <0> d          -3.469   1.535  -5.021  0.00  0.00     0.011 C 
ENDBRANCH   5   6
ENDBRANCH   2   5
BRANCH   1  17
ATOM     17  C7  <0> d          -0.892   1.694   3.609  0.00  0.00     0.173 A 
ATOM     18  S1  <0> d          -2.320   2.674   3.739  0.00  0.00    -0.062 SA
ATOM     19  C6  <0> d          -2.401   2.732   5.523  0.00  0.00     0.081 A 
ATOM     20  C5  <0> d          -1.315   1.988   5.849  0.00  0.00     0.053 A 
ATOM     21  N1  <0> d          -0.587   1.480   4.874  0.00  0.00    -0.228 NA
BRANCH  20  22
ATOM     22  C4  <0> d          -0.954   1.742   7.291  0.00  0.00     0.170 C 
BRANCH  22  23
ATOM     23  C3  <0> d          -0.849   0.259   7.536  0.00  0.00     0.264 C 
ATOM     24  O2  <0> d          -1.048  -0.519   6.633  0.00  0.00    -0.265 OA
BRANCH  23  25
ATOM     25  O1  <0> d          -0.535  -0.199   8.759  0.00  0.00    -0.322 OA
BRANCH  25  26
ATOM     26  C2  <0> d          -0.452  -1.639   8.922  0.00  0.00     0.174 C 
ATOM     27  C1  <0> d          -0.086  -1.967  10.371  0.00  0.00     0.034 C 
ENDBRANCH  25  26
ENDBRANCH  23  25
ENDBRANCH  22  23
ENDBRANCH  20  22
ENDBRANCH   1  17
TORSDOF 7
