REMARK  7 active torsions:
REMARK  status: ('A' for Active; 'I' for Inactive)
REMARK    1  A    between atoms: C2_2  and  C3_3 
REMARK    2  A    between atoms: C2_2  and  N1_10 
REMARK    3  A    between atoms: C3_3  and  O1_4 
REMARK    4  A    between atoms: O1_4  and  C4_5 
REMARK    5  A    between atoms: C4_5  and  C5_6 
REMARK       I    between atoms: N1_10  and  C6_11 
REMARK    6  A    between atoms: C6_11  and  C7_13 
REMARK       I    between atoms: C7_13  and  N2_15 
REMARK    7  A    between atoms: N2_15  and  C8_16 
ROOT
ATOM      1  C8  <0> d          -5.402  -1.872  -2.294  0.00  0.00     0.036 A 
ATOM      2  C9  <0> d          -5.803  -2.662  -3.365  0.00  0.00     0.029 A 
ATOM      3  C10 <0> d          -7.059  -3.238  -3.372  0.00  0.00     0.004 A 
ATOM      4  C11 <0> d          -7.923  -3.034  -2.315  0.00  0.00     0.021 A 
ATOM      5  C12 <0> d          -7.530  -2.242  -1.235  0.00  0.00     0.019 A 
ATOM      6  C13 <0> d          -6.261  -1.665  -1.225  0.00  0.00     0.050 A 
ATOM      7  C14 <0> d          -8.425  -2.028  -0.138  0.00  0.00    -0.078 C 
ATOM      8  C15 <0> d          -9.159  -1.852   0.761  0.00  0.00     0.018 C 
ENDROOT
BRANCH   1   9
ATOM      9  N2  <0> d          -4.130  -1.291  -2.291  0.00  0.00    -0.319 N 
ATOM     10  C7  <0> d          -3.451  -1.162  -1.134  0.00  0.00     0.313 C 
ATOM     11  O3  <0> d          -3.975  -1.472  -0.085  0.00  0.00    -0.262 OA
ATOM     12  H10 <0> d          -3.737  -0.981  -3.122  0.00  0.00     0.169 HD
BRANCH  10  13
ATOM     13  C6  <0> d          -2.053  -0.636  -1.144  0.00  0.00     0.310 C 
ATOM     14  N1  <0> d          -1.373  -0.507   0.012  0.00  0.00    -0.347 N 
ATOM     15  H9  <0> d          -1.792  -0.755   0.851  0.00  0.00     0.163 HD
ATOM     16  O2  <0> d          -1.529  -0.326  -2.194  0.00  0.00    -0.262 OA
BRANCH  14  17
ATOM     17  C2  <0> d          -0.002   0.008   0.003  0.00  0.00     0.104 C 
ATOM     18  C1  <0> d          -0.032   1.538   0.019  0.00  0.00     0.034 C 
BRANCH  17  19
ATOM     19  C3  <0> d           0.743  -0.501   1.238  0.00  0.00     0.192 C 
BRANCH  19  20
ATOM     20  O1  <0> d           0.142   0.045   2.415  0.00  0.00    -0.380 OA
BRANCH  20  21
ATOM     21  C4  <0> d           0.766  -0.370   3.632  0.00  0.00     0.285 C 
BRANCH  21  22
ATOM     22  C5  <0> d           0.045   0.271   4.819  0.00  0.00     0.408 C 
ATOM     23  F1  <0> d          -1.296  -0.129   4.822  0.00  0.00    -0.169 F 
ATOM     24  F2  <0> d           0.655  -0.135   6.010  0.00  0.00    -0.169 F 
ATOM     25  F3  <0> d           0.115   1.664   4.710  0.00  0.00    -0.169 F 
ENDBRANCH  21  22
ENDBRANCH  20  21
ENDBRANCH  19  20
ENDBRANCH  17  19
ENDBRANCH  14  17
ENDBRANCH  10  13
ENDBRANCH   1   9
TORSDOF 7
