REMARK  7 active torsions:
REMARK  status: ('A' for Active; 'I' for Inactive)
REMARK    1  A    between atoms: C2_2  and  C3_3 
REMARK    2  A    between atoms: C3_3  and  N1_4 
REMARK    3  A    between atoms: N1_4  and  C4_5 
REMARK    4  A    between atoms: C5_6  and  C6_7 
REMARK    5  A    between atoms: C5_6  and  N3_18 
REMARK    6  A    between atoms: C6_7  and  C7_9 
REMARK    7  A    between atoms: C10_12  and  N2_15 
ROOT
ATOM      1  C4  <0> d           1.339  -2.657   2.101  0.00  0.00     0.108 C 
ATOM      2  C5  <0> d           1.350  -4.038   2.290  0.00  0.00     0.124 C 
ATOM      3  S1  <0> d           2.312  -1.617   3.138  0.00  0.00    -0.031 SA
ENDROOT
BRANCH   2   4
ATOM      4  C6  <0> d           0.669  -4.878   1.388  0.00  0.00     0.212 C 
ATOM      5  O1  <0> d           1.056  -4.977   0.236  0.00  0.00    -0.285 OA
BRANCH   4   6
ATOM      6  C7  <0> d          -0.516  -5.642   1.839  0.00  0.00     0.017 A 
ATOM      7  C12 <0> d          -1.119  -6.567   0.985  0.00  0.00     0.018 A 
ATOM      8  C11 <0> d          -2.220  -7.280   1.414  0.00  0.00     0.037 A 
ATOM      9  C10 <0> d          -2.732  -7.072   2.682  0.00  0.00     0.102 A 
ATOM     10  C9  <0> d          -2.142  -6.152   3.531  0.00  0.00     0.037 A 
ATOM     11  C8  <0> d          -1.037  -5.437   3.117  0.00  0.00     0.018 A 
BRANCH   9  12
ATOM     12  N2  <0> d          -3.917  -7.836   3.133  0.00  0.00    -0.116 N 
ATOM     13  O2  <0> d          -4.367  -7.656   4.241  0.00  0.00    -0.532 OA
ATOM     14  O3  <0> d          -4.435  -8.640   2.394  0.00  0.00    -0.532 OA
ENDBRANCH   9  12
ENDBRANCH   4   6
ENDBRANCH   2   4
BRANCH   2  15
ATOM     15  N3  <0> d           2.027  -4.580   3.359  0.00  0.00    -0.327 N 
ATOM     16  C17 <0> d           1.624  -4.298   4.591  0.00  0.00     0.097 A 
ATOM     17  C16 <0> d           2.277  -4.830   5.685  0.00  0.00     0.018 A 
ATOM     18  C15 <0> d           3.372  -5.657   5.484  0.00  0.00     0.003 A 
ATOM     19  C14 <0> d           3.771  -5.926   4.182  0.00  0.00     0.018 A 
ATOM     20  C13 <0> d           3.071  -5.367   3.133  0.00  0.00     0.097 A 
ENDBRANCH   2  15
BRANCH   1  21
ATOM     21  N1  <0> d           0.571  -2.109   1.109  0.00  0.00    -0.382 N 
ATOM     22  H8  <0> d           0.093  -2.685   0.492  0.00  0.00     0.160 HD
BRANCH  21  23
ATOM     23  C3  <0> d           0.471  -0.653   0.980  0.00  0.00     0.120 C 
BRANCH  23  24
ATOM     24  C2  <0> d          -0.441  -0.307  -0.199  0.00  0.00     0.015 C 
ATOM     25  C1  <0> d          -0.545   1.213  -0.334  0.00  0.00     0.006 C 
ENDBRANCH  23  24
ENDBRANCH  21  23
ENDBRANCH   1  21
TORSDOF 7
