REMARK  3 active torsions:
REMARK  status: ('A' for Active; 'I' for Inactive)
REMARK    1  A    between atoms: C5_5  and  N1_8 
REMARK    2  A    between atoms: C20_25  and  C21_26 
REMARK    3  A    between atoms: C21_26  and  O4_28 
ROOT
ATOM      1  N1  <0> d           1.299  -0.379  -0.205  0.00  0.00    -0.252 N 
ATOM      2  C8  <0> d           2.187   0.608  -0.373  0.00  0.00     0.238 A 
ATOM      3  O1  <0> d           3.366   0.457  -0.608  0.00  0.00    -0.272 OA
ATOM      4  C9  <0> d           1.491   1.941  -0.224  0.00  0.00     0.128 A 
ATOM      5  C10 <0> d           0.018   1.546   0.075  0.00  0.00     0.144 A 
ATOM      6  C11 <0> d           0.052   0.034   0.050  0.00  0.00     0.239 A 
ATOM      7  O2  <0> d          -0.902  -0.691   0.231  0.00  0.00    -0.272 OA
ATOM      8  C12 <0> d          -0.227   2.031   1.510  0.00  0.00     0.248 A 
ATOM      9  C13 <0> d          -1.139   1.102   2.259  0.00  0.00     0.015 A 
ATOM     10  C14 <0> d          -1.072  -0.234   2.587  0.00  0.00     0.012 A 
ATOM     11  C15 <0> d          -2.098  -0.824   3.304  0.00  0.00     0.001 A 
ATOM     12  C16 <0> d          -3.190  -0.068   3.691  0.00  0.00     0.002 A 
ATOM     13  C17 <0> d          -3.262   1.270   3.364  0.00  0.00     0.030 A 
ATOM     14  C18 <0> d          -2.234   1.871   2.642  0.00  0.00     0.044 A 
ATOM     15  N2  <0> d          -2.080   3.186   2.198  0.00  0.00    -0.324 N 
ATOM     16  C19 <0> d          -0.925   3.364   1.526  0.00  0.00     0.264 A 
ATOM     17  O3  <0> d          -0.527   4.396   1.030  0.00  0.00    -0.270 OA
ATOM     18  C20 <0> d           1.985   2.635   1.063  0.00  0.00     0.229 C 
ATOM     19  H16 <0> d          -2.728   3.891   2.356  0.00  0.00     0.169 HD
ATOM     20  N3  <0> d           1.094   2.122   2.106  0.00  0.00    -0.044 N 
ATOM     21  H21 <0> d           1.407   1.194   2.416  0.00  0.00     0.279 HD
ATOM     22  H22 <0> d           1.079   2.763   2.907  0.00  0.00     0.279 HD
ENDROOT
BRANCH  18  23
ATOM     23  C21 <0> d           3.443   2.263   1.341  0.00  0.00     0.145 C 
ATOM     24  C22 <0> d           4.337   2.853   0.249  0.00  0.00     0.041 C 
BRANCH  23  25
ATOM     25  O4  <0> d           3.834   2.788   2.612  0.00  0.00    -0.394 OA
ATOM     26  H20 <0> d           3.767   3.751   2.677  0.00  0.00     0.210 HD
ENDBRANCH  23  25
ENDBRANCH  18  23
BRANCH   1  27
ATOM     27  C5  <0> d           1.647  -1.734  -0.289  0.00  0.00     0.045 A 
ATOM     28  C4  <0> d           1.161  -2.513  -1.331  0.00  0.00     0.031 A 
ATOM     29  C3  <0> d           1.506  -3.849  -1.411  0.00  0.00     0.009 A 
ATOM     30  C2  <0> d           2.333  -4.409  -0.455  0.00  0.00    -0.062 A 
ATOM     31  C1  <0> d           2.707  -5.866  -0.546  0.00  0.00     0.048 C 
ATOM     32  C7  <0> d           2.818  -3.635   0.583  0.00  0.00     0.009 A 
ATOM     33  C6  <0> d           2.482  -2.298   0.665  0.00  0.00     0.031 A 
ENDBRANCH   1  27
TORSDOF 3
