REMARK  9 active torsions:
REMARK  status: ('A' for Active; 'I' for Inactive)
REMARK    1  A    between atoms: N1_2  and  C2_3 
REMARK    2  A    between atoms: N1_2  and  C12_15 
REMARK    3  A    between atoms: C2_3  and  C3_4 
REMARK    4  A    between atoms: C3_4  and  C4_5 
REMARK    5  A    between atoms: C4_5  and  O1_6 
REMARK    6  A    between atoms: O1_6  and  C5_7 
REMARK    7  A    between atoms: C10_12  and  C11_13 
REMARK    8  A    between atoms: C11_13  and  N2_14 
REMARK    9  A    between atoms: C12_15  and  C13_16 
ROOT
ATOM      1  C4  <0> d           0.669  -0.610   3.687  0.00  0.00     0.177 C 
ENDROOT
BRANCH   1   2
ATOM      2  C3  <0> d          -0.071  -0.103   2.448  0.00  0.00     0.054 C 
BRANCH   2   3
ATOM      3  C2  <0> d           0.713  -0.491   1.192  0.00  0.00     0.237 C 
BRANCH   3   4
ATOM      4  N1  <0> d           0.002  -0.004   0.002  0.00  0.00    -0.071 N 
ATOM      5  C1  <0> d          -0.018   1.465   0.010  0.00  0.00     0.270 C 
ATOM      6  H23 <0> d          -0.945  -0.353   0.009  0.00  0.00     0.279 HD
BRANCH   4   7
ATOM      7  C12 <0> d           0.690  -0.478  -1.207  0.00  0.00     0.273 C 
BRANCH   7   8
ATOM      8  C13 <0> d          -0.106  -0.083  -2.424  0.00  0.00    -0.024 A 
ATOM      9  C16 <0> d           0.121   1.103  -3.039  0.00  0.00     0.059 A 
ATOM     10  S1  <0> d          -1.057   1.056  -4.380  0.00  0.00    -0.094 SA
ATOM     11  C15 <0> d          -1.778  -0.538  -4.025  0.00  0.00     0.051 A 
ATOM     12  C14 <0> d          -1.081  -0.924  -2.928  0.00  0.00     0.036 A 
ATOM     13 Br1  <0> d          -3.156  -1.452  -4.943  0.00  0.00    -0.043 Br
ENDBRANCH   7   8
ENDBRANCH   4   7
ENDBRANCH   3   4
ENDBRANCH   2   3
ENDBRANCH   1   2
BRANCH   1  14
ATOM     14  O1  <0> d          -0.063  -0.249   4.860  0.00  0.00    -0.350 OA
BRANCH  14  15
ATOM     15  C5  <0> d           0.461  -0.626   6.056  0.00  0.00     0.076 A 
ATOM     16  C10 <0> d          -0.197  -0.308   7.235  0.00  0.00     0.000 A 
ATOM     17  C9  <0> d           0.336  -0.698   8.448  0.00  0.00     0.011 A 
ATOM     18  C8  <0> d           1.529  -1.394   8.489  0.00  0.00     0.001 A 
ATOM     19  C7  <0> d           2.190  -1.708   7.316  0.00  0.00     0.003 A 
ATOM     20  C6  <0> d           1.659  -1.325   6.099  0.00  0.00     0.037 A 
BRANCH  16  21
ATOM     21  C11 <0> d          -1.495   0.456   7.191  0.00  0.00     0.271 C 
BRANCH  21  22
ATOM     22  N2  <0> d          -2.594  -0.463   6.869  0.00  0.00    -0.075 N 
ATOM     23  H16 <0> d          -2.424  -0.889   5.970  0.00  0.00     0.274 HD
ATOM     24  H17 <0> d          -2.650  -1.181   7.575  0.00  0.00     0.274 HD
ATOM     25  H22 <0> d          -3.463   0.049   6.840  0.00  0.00     0.274 HD
ENDBRANCH  21  22
ENDBRANCH  16  21
ENDBRANCH  14  15
ENDBRANCH   1  14
TORSDOF 9
