REMARK  7 active torsions:
REMARK  status: ('A' for Active; 'I' for Inactive)
REMARK    1  A    between atoms: C2_2  and  C3_3 
REMARK    2  A    between atoms: C3_3  and  C4_4 
REMARK    3  A    between atoms: C4_4  and  N1_5 
REMARK    4  A    between atoms: C10_11  and  N2_14 
REMARK       I    between atoms: N2_14  and  C13_15 
REMARK    5  A    between atoms: C13_15  and  C14_17 
REMARK    6  A    between atoms: C17_20  and  N3_23 
REMARK       I    between atoms: N3_23  and  C20_24 
REMARK    7  A    between atoms: C20_24  and  C21_26 
ROOT
ATOM      1  N2  <0> d          -2.260  -6.953  -1.043  0.00  0.00    -0.322 N 
ATOM      2  C13 <0> d          -1.358  -7.867  -1.454  0.00  0.00     0.256 C 
ATOM      3  O1  <0> d          -0.813  -7.740  -2.534  0.00  0.00    -0.267 OA
ATOM      4  H17 <0> d          -2.636  -7.010  -0.151  0.00  0.00     0.169 HD
ENDROOT
BRANCH   1   5
ATOM      5  C10 <0> d          -2.652  -5.922  -1.903  0.00  0.00     0.043 A 
ATOM      6  C9  <0> d          -2.501  -6.065  -3.276  0.00  0.00     0.030 A 
ATOM      7  C8  <0> d          -2.889  -5.045  -4.122  0.00  0.00     0.003 A 
ATOM      8  C7  <0> d          -3.428  -3.882  -3.604  0.00  0.00     0.009 A 
ATOM      9  C6  <0> d          -3.579  -3.735  -2.237  0.00  0.00    -0.022 A 
ATOM     10  C5  <0> d          -4.125  -2.599  -1.402  0.00  0.00     0.274 C 
ATOM     11  C11 <0> d          -3.193  -4.753  -1.385  0.00  0.00     0.002 A 
ATOM     12  N1  <0> d          -3.639  -2.845  -0.026  0.00  0.00    -0.063 N 
ATOM     13  C12 <0> d          -3.473  -4.315   0.035  0.00  0.00     0.276 C 
ATOM     14  H28 <0> d          -4.319  -2.537   0.653  0.00  0.00     0.280 HD
BRANCH  12  15
ATOM     15  C4  <0> d          -2.352  -2.172   0.194  0.00  0.00     0.235 C 
BRANCH  15  16
ATOM     16  C3  <0> d          -2.571  -0.659   0.251  0.00  0.00     0.027 C 
BRANCH  16  17
ATOM     17  C2  <0> d          -1.230   0.042   0.480  0.00  0.00    -0.003 C 
ATOM     18  C1  <0> d          -1.449   1.556   0.537  0.00  0.00     0.005 C 
ENDBRANCH  16  17
ENDBRANCH  15  16
ENDBRANCH  12  15
ENDBRANCH   1   5
BRANCH   2  19
ATOM     19  C14 <0> d          -1.033  -9.021  -0.594  0.00  0.00     0.032 A 
ATOM     20  C19 <0> d          -0.098  -9.969  -1.019  0.00  0.00     0.019 A 
ATOM     21  C18 <0> d           0.208 -11.041  -0.211  0.00  0.00     0.030 A 
ATOM     22  C17 <0> d          -0.421 -11.188   1.021  0.00  0.00     0.034 A 
ATOM     23  C16 <0> d          -1.357 -10.248   1.444  0.00  0.00     0.030 A 
ATOM     24  C15 <0> d          -1.663  -9.171   0.644  0.00  0.00     0.019 A 
BRANCH  22  25
ATOM     25  N3  <0> d          -0.113 -12.278   1.834  0.00  0.00    -0.327 N 
ATOM     26  C20 <0> d          -0.121 -12.142   3.175  0.00  0.00     0.226 C 
ATOM     27  O2  <0> d          -0.303 -11.052   3.673  0.00  0.00    -0.273 OA
ATOM     28  H22 <0> d           0.107 -13.134   1.435  0.00  0.00     0.169 HD
BRANCH  26  29
ATOM     29  C21 <0> d           0.095 -13.346   4.056  0.00  0.00     0.078 A 
ATOM     30  C23 <0> d           0.074 -13.127   5.570  0.00  0.00     0.015 A 
ATOM     31  C22 <0> d          -1.094 -13.838   4.884  0.00  0.00     0.015 A 
ENDBRANCH  26  29
ENDBRANCH  22  25
ENDBRANCH   2  19
TORSDOF 7
