REMARK  7 active torsions:
REMARK  status: ('A' for Active; 'I' for Inactive)
REMARK    1  A    between atoms: C2_2  and  O1_3 
REMARK    2  A    between atoms: O1_3  and  C3_4 
REMARK    3  A    between atoms: C3_4  and  C4_6 
REMARK    4  A    between atoms: C7_10  and  N1_11 
REMARK       I    between atoms: N1_11  and  C8_12 
REMARK    5  A    between atoms: C8_12  and  C9_14 
REMARK    6  A    between atoms: C9_14  and  N2_16 
REMARK    7  A    between atoms: C13_19  and  C16_22 
REMARK       I    between atoms: C16_22  and  N3_24 
ROOT
ATOM      1  N1  <0> d          -1.220   1.277   4.973  0.00  0.00    -0.319 N 
ATOM      2  C8  <0> d          -2.120   1.802   5.829  0.00  0.00     0.253 C 
ATOM      3  O3  <0> d          -2.969   2.567   5.422  0.00  0.00    -0.271 OA
ATOM      4  H7  <0> d          -0.451   0.583   5.342  0.00  0.00     0.169 HD
ENDROOT
BRANCH   1   5
ATOM      5  C7  <0> d          -1.265   1.613   3.629  0.00  0.00     0.094 A 
ATOM      6  C4  <0> d          -0.433   1.181   2.604  0.00  0.00     0.080 A 
ATOM      7  C5  <0> d          -0.694   1.688   1.269  0.00  0.00    -0.026 A 
ATOM      8  C20 <0> d           0.123   1.309   0.041  0.00  0.00     0.041 C 
ATOM      9  C6  <0> d          -1.741   2.539   1.171  0.00  0.00    -0.008 A 
ATOM     10  C19 <0> d          -0.686   1.640  -1.214  0.00  0.00     0.005 C 
ATOM     11  C18 <0> d          -1.167   3.093  -1.156  0.00  0.00     0.005 C 
ATOM     12  C17 <0> d          -2.243   3.215  -0.068  0.00  0.00     0.047 C 
ATOM     13  S1  <0> d          -2.371   2.672   2.820  0.00  0.00    -0.075 SA
BRANCH   6  14
ATOM     14  C3  <0> d           0.667   0.250   2.860  0.00  0.00     0.296 C 
ATOM     15  O2  <0> d           0.479  -0.950   2.785  0.00  0.00    -0.259 OA
BRANCH  14  16
ATOM     16  O1  <0> d           1.890   0.722   3.178  0.00  0.00    -0.318 OA
BRANCH  16  17
ATOM     17  C2  <0> d           2.934  -0.259   3.418  0.00  0.00     0.174 C 
ATOM     18  C1  <0> d           4.240   0.460   3.763  0.00  0.00     0.034 C 
ENDBRANCH  16  17
ENDBRANCH  14  16
ENDBRANCH   6  14
ENDBRANCH   1   5
BRANCH   2  19
ATOM     19  C9  <0> d          -2.072   1.437   7.290  0.00  0.00     0.275 C 
ATOM     20  C10 <0> d          -2.608   0.017   7.479  0.00  0.00     0.050 C 
BRANCH  19  21
ATOM     21  N2  <0> d          -2.898   2.379   8.057  0.00  0.00    -0.059 N 
ATOM     22  C15 <0> d          -4.327   2.140   7.819  0.00  0.00     0.236 C 
ATOM     23  C14 <0> d          -5.150   3.226   8.516  0.00  0.00     0.042 C 
ATOM     24  C13 <0> d          -4.853   3.200  10.017  0.00  0.00     0.081 C 
ATOM     25  C12 <0> d          -3.351   3.403  10.236  0.00  0.00     0.042 C 
ATOM     26  C11 <0> d          -2.580   2.312   9.489  0.00  0.00     0.236 C 
ATOM     27  H30 <0> d          -2.666   3.396   7.709  0.00  0.00     0.280 HD
BRANCH  24  28
ATOM     28  C16 <0> d          -5.616   4.305  10.701  0.00  0.00     0.219 C 
ATOM     29  O4  <0> d          -6.329   5.042  10.052  0.00  0.00    -0.273 OA
ATOM     30  N3  <0> d          -5.507   4.475  12.033  0.00  0.00    -0.370 N 
ATOM     31  H20 <0> d          -6.065   5.282  12.532  0.00  0.00     0.159 HD
ATOM     32  H21 <0> d          -4.861   3.808  12.622  0.00  0.00     0.159 HD
ENDBRANCH  24  28
ENDBRANCH  19  21
ENDBRANCH   2  19
TORSDOF 7
