REMARK  5 active torsions:
REMARK  status: ('A' for Active; 'I' for Inactive)
REMARK    1  A    between atoms: C5_6  and  C6_8 
REMARK    2  A    between atoms: C6_8  and  N3_9 
REMARK    3  A    between atoms: N3_9  and  S1_10 
REMARK    4  A    between atoms: S1_10  and  C7_13 
REMARK    5  A    between atoms: C11_17  and  N4_19 
ROOT
ATOM      1  S1  <0> d           1.729  -3.237   4.552  0.00  0.00     0.259 S 
ATOM      2  O1  <0> d           3.142  -3.289   4.698  0.00  0.00    -0.201 OA
ATOM      3  O2  <0> d           0.911  -2.399   5.356  0.00  0.00    -0.201 OA
ENDROOT
BRANCH   1   4
ATOM      4  N3  <0> d           1.431  -2.820   2.978  0.00  0.00    -0.310 N 
ATOM      5  H8  <0> d           2.170  -2.651   2.372  0.00  0.00     0.172 HD
BRANCH   4   6
ATOM      6  C6  <0> d           0.051  -2.707   2.499  0.00  0.00     0.191 C 
BRANCH   6   7
ATOM      7  C5  <0> d           0.035  -1.975   1.182  0.00  0.00     0.056 A 
ATOM      8  C4  <0> d           0.038  -2.678  -0.013  0.00  0.00     0.048 A 
ATOM      9  C3  <0> d           0.023  -1.962  -1.199  0.00  0.00     0.120 A 
ATOM     10  N1  <0> d           0.005  -0.639  -1.153  0.00  0.00    -0.246 NA
ATOM     11  C2  <0> d           0.002  -0.004   0.002  0.00  0.00     0.122 A 
ATOM     12  C1  <0> d          -0.018   1.503   0.010  0.00  0.00     0.093 C 
ATOM     13  N2  <0> d           0.022  -0.651   1.150  0.00  0.00    -0.237 NA
ENDBRANCH   6   7
ENDBRANCH   4   6
ENDBRANCH   1   4
BRANCH   1  14
ATOM     14  C7  <0> d           1.139  -4.882   4.776  0.00  0.00     0.081 A 
ATOM     15  C12 <0> d           1.979  -5.953   4.548  0.00  0.00     0.054 A 
ATOM     16  C11 <0> d           1.515  -7.250   4.730  0.00  0.00     0.027 A 
ATOM     17  C10 <0> d           0.203  -7.464   5.131  0.00  0.00     0.029 A 
ATOM     18  C9  <0> d          -0.634  -6.388   5.353  0.00  0.00     0.004 A 
ATOM     19  C8  <0> d          -0.167  -5.099   5.176  0.00  0.00     0.025 A 
BRANCH  16  20
ATOM     20  N4  <0> d           2.364  -8.336   4.505  0.00  0.00    -0.399 N 
ATOM     21  H13 <0> d           2.037  -9.241   4.629  0.00  0.00     0.156 HD
ATOM     22  H14 <0> d           3.280  -8.185   4.224  0.00  0.00     0.156 HD
ENDBRANCH  16  20
ENDBRANCH   1  14
TORSDOF 5
