REMARK  7 active torsions:
REMARK  status: ('A' for Active; 'I' for Inactive)
REMARK    1  A    between atoms: O1_2  and  C2_3 
REMARK    2  A    between atoms: C5_7  and  N3_9 
REMARK    3  A    between atoms: N3_9  and  N4_10 
REMARK       I    between atoms: N4_10  and  C6_11 
REMARK    4  A    between atoms: C6_11  and  C7_13 
REMARK    5  A    between atoms: C11_17  and  S1_19 
REMARK    6  A    between atoms: S1_19  and  C13_22 
REMARK    7  A    between atoms: C13_22  and  C14_23 
ROOT
ATOM      1  C7  <0> d           4.133  -0.143  -7.270  0.00  0.00     0.035 A 
ATOM      2  C8  <0> d           4.191  -1.534  -7.371  0.00  0.00     0.017 A 
ATOM      3  C9  <0> d           4.811  -2.118  -8.456  0.00  0.00     0.002 A 
ATOM      4  C10 <0> d           5.375  -1.329  -9.443  0.00  0.00     0.023 A 
ATOM      5  C11 <0> d           5.321   0.050  -9.349  0.00  0.00     0.060 A 
ATOM      6  C12 <0> d           4.698   0.647  -8.272  0.00  0.00     0.040 A 
ENDROOT
BRANCH   1   7
ATOM      7  C6  <0> d           3.471   0.490  -6.110  0.00  0.00     0.270 C 
ATOM      8  N4  <0> d           2.926  -0.276  -5.144  0.00  0.00    -0.251 N 
ATOM      9  H7  <0> d           2.969  -1.243  -5.210  0.00  0.00     0.191 HD
ATOM     10  O2  <0> d           3.417   1.702  -6.027  0.00  0.00    -0.266 OA
BRANCH   8  11
ATOM     11  N3  <0> d           2.298   0.324  -4.045  0.00  0.00    -0.125 N 
ATOM     12  H6  <0> d           2.255   1.291  -3.979  0.00  0.00     0.206 HD
BRANCH  11  13
ATOM     13  C5  <0> d           1.739  -0.463  -3.053  0.00  0.00     0.743 A 
ATOM     14  N1  <0> d           1.807  -1.782  -3.159  0.00  0.00    -0.074 NA
ATOM     15  C4  <0> d           1.283  -2.567  -2.230  0.00  0.00     0.141 A 
ATOM     16  C3  <0> d           0.659  -1.996  -1.137  0.00  0.00     0.078 A 
ATOM     17  C2  <0> d           0.604  -0.605  -1.053  0.00  0.00     0.184 A 
ATOM     18  N2  <0> d           1.145   0.121  -2.023  0.00  0.00    -0.037 NA
BRANCH  17  19
ATOM     19  O1  <0> d           0.002  -0.004   0.002  0.00  0.00    -0.339 OA
ATOM     20  C1  <0> d          -0.017   1.425   0.010  0.00  0.00     0.211 C 
ENDBRANCH  17  19
ENDBRANCH  11  13
ENDBRANCH   8  11
ENDBRANCH   1   7
BRANCH   5  21
ATOM     21  S1  <0> d           6.042   1.047 -10.611  0.00  0.00     0.183 S 
ATOM     22  O3  <0> d           6.367   2.270  -9.965  0.00  0.00    -0.222 OA
ATOM     23  O4  <0> d           7.060   0.233 -11.177  0.00  0.00    -0.222 OA
BRANCH  21  24
ATOM     24  C13 <0> d           4.711   1.310 -11.815  0.00  0.00     0.263 C 
BRANCH  24  25
ATOM     25  C14 <0> d           5.229   2.172 -12.968  0.00  0.00     0.400 C 
ATOM     26  F1  <0> d           6.300   1.522 -13.591  0.00  0.00    -0.170 F 
ATOM     27  F2  <0> d           4.203   2.374 -13.896  0.00  0.00    -0.170 F 
ATOM     28  F3  <0> d           5.658   3.407 -12.470  0.00  0.00    -0.170 F 
ENDBRANCH  24  25
ENDBRANCH  21  24
ENDBRANCH   5  21
TORSDOF 7
