REMARK  2 active torsions:
REMARK  status: ('A' for Active; 'I' for Inactive)
REMARK    1  A    between atoms: S1_2  and  C2_3 
REMARK    2  A    between atoms: C5_9  and  C8_14 
ROOT
ATOM      1  C2  <0> d           0.877  -0.427   1.472  0.00  0.00     0.169 A 
ATOM      2  N1  <0> d           1.086  -1.740   1.778  0.00  0.00    -0.302 N 
ATOM      3  H1  <0> d           0.750  -2.427   1.181  0.00  0.00     0.171 HD
ATOM      4  C3  <0> d           1.750  -2.100   2.891  0.00  0.00     0.261 A 
ATOM      5  O1  <0> d           1.929  -3.278   3.150  0.00  0.00    -0.267 OA
ATOM      6  C4  <0> d           2.243  -1.084   3.767  0.00  0.00     0.081 A 
ATOM      7  C5  <0> d           2.984  -1.226   5.017  0.00  0.00     0.023 A 
ATOM      8  C6  <0> d           3.353  -0.105   5.686  0.00  0.00     0.067 A 
ATOM      9  S2  <0> d           2.722   1.212   4.665  0.00  0.00    -0.080 SA
ATOM     10  C7  <0> d           1.984   0.241   3.376  0.00  0.00     0.117 A 
ATOM     11  N2  <0> d           1.325   0.530   2.260  0.00  0.00    -0.216 NA
ENDROOT
BRANCH   7  12
ATOM     12  C8  <0> d           3.324  -2.563   5.544  0.00  0.00     0.086 A 
ATOM     13  O2  <0> d           2.469  -3.591   5.701  0.00  0.00    -0.322 OA
ATOM     14  C11 <0> d           3.130  -4.650   6.201  0.00  0.00     0.142 A 
ATOM     15  C10 <0> d           4.420  -4.308   6.380  0.00  0.00     0.027 A 
ATOM     16  C9  <0> d           4.554  -2.968   5.960  0.00  0.00     0.040 A 
ENDBRANCH   7  12
BRANCH   1  17
ATOM     17  S1  <0> d           0.002  -0.004   0.002  0.00  0.00    -0.096 SA
ATOM     18  C1  <0> d          -0.022   1.810   0.012  0.00  0.00     0.099 C 
ENDBRANCH   1  17
TORSDOF 2
