REMARK  5 active torsions:
REMARK  status: ('A' for Active; 'I' for Inactive)
REMARK    1  A    between atoms: C3_3  and  C7_11 
REMARK    2  A    between atoms: C7_11  and  C8_12 
REMARK       I    between atoms: C8_12  and  N3_14 
REMARK    3  A    between atoms: N3_14  and  C9_15 
REMARK    4  A    between atoms: C9_15  and  C10_16 
REMARK    5  A    between atoms: C10_16  and  N4_18 
ROOT
ATOM      1  C8  <0> d          -2.740   0.548  -1.654  0.00  0.00     0.222 C 
ATOM      2  O2  <0> d          -2.095   0.251  -2.637  0.00  0.00    -0.273 OA
ATOM      3  N3  <0> d          -4.031   0.913  -1.780  0.00  0.00    -0.359 N 
ATOM      4  H11 <0> d          -4.547   1.150  -0.994  0.00  0.00     0.162 HD
ENDROOT
BRANCH   1   5
ATOM      5  C7  <0> d          -2.098   0.507  -0.291  0.00  0.00     0.149 C 
BRANCH   5   6
ATOM      6  C3  <0> d          -0.662   0.071  -0.425  0.00  0.00     0.043 A 
ATOM      7  C2  <0> d           0.340   0.990  -0.507  0.00  0.00     0.044 A 
ATOM      8  C1  <0> d           0.018   2.462  -0.465  0.00  0.00     0.071 C 
ATOM      9  N2  <0> d           1.606   0.586  -0.630  0.00  0.00    -0.240 NA
ATOM     10  C5  <0> d           1.918  -0.682  -0.665  0.00  0.00     0.103 A 
ATOM     11  N1  <0> d           0.974  -1.641  -0.589  0.00  0.00    -0.311 N 
ATOM     12  C6  <0> d           3.365  -1.081  -0.799  0.00  0.00     0.091 C 
ATOM     13  C4  <0> d          -0.326  -1.298  -0.468  0.00  0.00     0.255 A 
ATOM     14  H1  <0> d           1.229  -2.576  -0.621  0.00  0.00     0.170 HD
ATOM     15  O1  <0> d          -1.192  -2.154  -0.399  0.00  0.00    -0.268 OA
ENDBRANCH   5   6
ENDBRANCH   1   5
BRANCH   3  16
ATOM     16  C9  <0> d          -4.655   0.952  -3.105  0.00  0.00     0.155 C 
BRANCH  16  17
ATOM     17  C10 <0> d          -6.070   1.522  -2.985  0.00  0.00     0.202 C 
ATOM     18  C11 <0> d          -6.688   1.649  -4.379  0.00  0.00     0.042 C 
BRANCH  17  19
ATOM     19  N4  <0> d          -6.013   2.847  -2.353  0.00  0.00    -0.066 N 
ATOM     20  C16 <0> d          -7.377   3.334  -2.117  0.00  0.00     0.235 C 
ATOM     21  C15 <0> d          -7.324   4.677  -1.385  0.00  0.00     0.032 C 
ATOM     22  C14 <0> d          -6.559   5.689  -2.242  0.00  0.00    -0.015 C 
ATOM     23  C13 <0> d          -5.163   5.137  -2.544  0.00  0.00     0.032 C 
ATOM     24  C17 <0> d          -6.433   7.011  -1.483  0.00  0.00     0.010 C 
ATOM     25  C12 <0> d          -5.297   3.777  -3.233  0.00  0.00     0.235 C 
ATOM     26  H29 <0> d          -5.525   2.777  -1.472  0.00  0.00     0.280 HD
ENDBRANCH  17  19
ENDBRANCH  16  17
ENDBRANCH   3  16
TORSDOF 5
