REMARK  7 active torsions:
REMARK  status: ('A' for Active; 'I' for Inactive)
REMARK    1  A    between atoms: N1_2  and  C2_3 
REMARK    2  A    between atoms: N1_2  and  C11_14 
REMARK    3  A    between atoms: C2_3  and  C3_4 
REMARK    4  A    between atoms: C3_4  and  C4_5 
REMARK    5  A    between atoms: C4_5  and  O1_6 
REMARK    6  A    between atoms: O1_6  and  C5_7 
REMARK    7  A    between atoms: C10_12  and  N2_13 
ROOT
ATOM      1  C3  <0> d          -1.090   0.379   4.751  0.00  0.00     0.054 C 
ENDROOT
BRANCH   1   2
ATOM      2  C2  <0> d          -1.259   1.351   3.582  0.00  0.00     0.237 C 
BRANCH   2   3
ATOM      3  N1  <0> d          -0.503   0.859   2.422  0.00  0.00    -0.070 N 
ATOM      4  C1  <0> d           0.941   0.880   2.688  0.00  0.00     0.270 C 
ATOM      5  H23 <0> d          -0.799  -0.186   2.245  0.00  0.00     0.279 HD
BRANCH   3   6
ATOM      6  C11 <0> d          -0.828   1.631   1.215  0.00  0.00     0.202 C 
ATOM      7  C14 <0> d          -0.013   1.086   0.008  0.00  0.00     0.173 C 
ATOM      8  S1  <0> d          -1.006   1.746  -1.397  0.00  0.00     0.146 S 
ATOM      9  C13 <0> d          -2.609   2.015  -0.537  0.00  0.00     0.142 C 
ATOM     10  O2  <0> d          -0.474   3.005  -1.787  0.00  0.00    -0.228 OA
ATOM     11  O3  <0> d          -1.168   0.724  -2.369  0.00  0.00    -0.228 OA
ATOM     12  C12 <0> d          -2.324   1.481   0.888  0.00  0.00     0.049 C 
ENDBRANCH   3   6
ENDBRANCH   2   3
ENDBRANCH   1   2
BRANCH   1  13
ATOM     13  C4  <0> d          -1.877   0.892   5.958  0.00  0.00     0.177 C 
BRANCH  13  14
ATOM     14  O1  <0> d          -1.719  -0.015   7.051  0.00  0.00    -0.349 OA
BRANCH  14  15
ATOM     15  C5  <0> d          -2.360   0.295   8.210  0.00  0.00     0.094 A 
ATOM     16  C10 <0> d          -2.254  -0.548   9.314  0.00  0.00     0.059 A 
ATOM     17  C9  <0> d          -2.905  -0.223  10.495  0.00  0.00     0.032 A 
ATOM     18  C8  <0> d          -3.665   0.929  10.570  0.00  0.00     0.002 A 
ATOM     19  C7  <0> d          -3.774   1.762   9.472  0.00  0.00     0.003 A 
ATOM     20  C6  <0> d          -3.123   1.448   8.293  0.00  0.00     0.039 A 
BRANCH  16  21
ATOM     21  N2  <0> d          -1.488  -1.717   9.233  0.00  0.00    -0.397 N 
ATOM     22  H15 <0> d          -1.406  -2.381  10.106  0.00  0.00     0.156 HD
ATOM     23  H16 <0> d          -0.969  -1.971   8.297  0.00  0.00     0.156 HD
ENDBRANCH  16  21
ENDBRANCH  14  15
ENDBRANCH  13  14
ENDBRANCH   1  13
TORSDOF 7
