REMARK  6 active torsions:
REMARK  status: ('A' for Active; 'I' for Inactive)
REMARK    1  A    between atoms: C2_2  and  N1_3 
REMARK    2  A    between atoms: N1_3  and  C3_4 
REMARK    3  A    between atoms: C3_4  and  C4_5 
REMARK    4  A    between atoms: C4_5  and  S1_6 
REMARK    5  A    between atoms: S1_6  and  N2_9 
REMARK    6  A    between atoms: N2_9  and  C5_10 
ROOT
ATOM      1  C5  <0> d          -4.706  -6.123   0.014  0.00  0.00     0.097 A 
ATOM      2  C6  <0> d          -3.725  -7.090   0.005  0.00  0.00     0.035 A 
ATOM      3  C7  <0> d          -4.056  -8.442   0.002  0.00  0.00     0.003 A 
ATOM      4  C8  <0> d          -5.357  -8.845   0.007  0.00  0.00     0.014 A 
ATOM      5  C9  <0> d          -6.386  -7.890   0.016  0.00  0.00    -0.007 A 
ATOM      6  C10 <0> d          -6.064  -6.511   0.025  0.00  0.00     0.072 A 
ATOM      7  N3  <0> d          -7.041  -5.599   0.039  0.00  0.00    -0.357 N 
ATOM      8  C11 <0> d          -8.303  -5.953   0.049  0.00  0.00     0.005 A 
ATOM      9  C12 <0> d          -8.689  -7.292   0.046  0.00  0.00     0.025 A 
ATOM     10  C13 <0> d          -7.741  -8.274   0.021  0.00  0.00     0.015 A 
ATOM     11  C14 <0> d          -9.365  -4.883   0.065  0.00  0.00     0.068 C 
ATOM     12  H20 <0> d          -6.811  -4.657   0.042  0.00  0.00     0.166 HD
ENDROOT
BRANCH   1  13
ATOM     13  N2  <0> d          -4.361  -4.772   0.018  0.00  0.00    -0.162 NA
BRANCH  13  14
ATOM     14  S1  <0> d          -2.767  -4.325   0.005  0.00  0.00     0.253 S 
ATOM     15  O1  <0> d          -2.267  -4.801  -1.237  0.00  0.00    -0.204 OA
ATOM     16  O2  <0> d          -2.243  -4.814   1.232  0.00  0.00    -0.204 OA
BRANCH  14  17
ATOM     17  C4  <0> d          -2.792  -2.511   0.015  0.00  0.00     0.193 C 
BRANCH  17  18
ATOM     18  C3  <0> d          -1.356  -1.981   0.004  0.00  0.00     0.249 C 
BRANCH  18  19
ATOM     19  N1  <0> d          -1.376  -0.512   0.012  0.00  0.00    -0.075 N 
ATOM     20  H6  <0> d          -1.848  -0.187   0.843  0.00  0.00     0.277 HD
ATOM     21  H19 <0> d          -1.864  -0.178  -0.805  0.00  0.00     0.277 HD
BRANCH  19  22
ATOM     22  C2  <0> d           0.002  -0.004   0.002  0.00  0.00     0.228 C 
ATOM     23  C1  <0> d          -0.019   1.526   0.010  0.00  0.00     0.034 C 
ENDBRANCH  19  22
ENDBRANCH  18  19
ENDBRANCH  17  18
ENDBRANCH  14  17
ENDBRANCH  13  14
ENDBRANCH   1  13
TORSDOF 6
