REMARK  4 active torsions:
REMARK  status: ('A' for Active; 'I' for Inactive)
REMARK    1  A    between atoms: C5_5  and  N1_8 
REMARK    2  A    between atoms: C9_10  and  N3_14 
REMARK       I    between atoms: N3_14  and  C12_15 
REMARK    3  A    between atoms: C12_15  and  C13_17 
REMARK    4  A    between atoms: C13_17  and  N4_19 
ROOT
ATOM      1  N3  <0> d          -2.109  -2.348  -2.050  0.00  0.00    -0.322 N 
ATOM      2  C12 <0> d          -1.128  -1.617  -1.484  0.00  0.00     0.245 C 
ATOM      3  O1  <0> d           0.018  -1.747  -1.859  0.00  0.00    -0.271 OA
ATOM      4  H14 <0> d          -3.131  -2.304  -1.646  0.00  0.00     0.169 HD
ENDROOT
BRANCH   1   5
ATOM      5  C9  <0> d          -1.825  -3.168  -3.158  0.00  0.00     0.085 A 
ATOM      6  C8  <0> d          -2.451  -4.331  -3.473  0.00  0.00     0.061 A 
ATOM      7  N1  <0> d          -1.881  -4.807  -4.614  0.00  0.00    -0.236 N 
ATOM      8  C23 <0> d          -3.572  -4.977  -2.700  0.00  0.00     0.073 C 
ATOM      9  N2  <0> d          -0.881  -3.907  -5.002  0.00  0.00    -0.170 NA
ATOM     10  C10 <0> d          -0.850  -2.925  -4.138  0.00  0.00     0.080 A 
ATOM     11  C11 <0> d           0.077  -1.738  -4.184  0.00  0.00     0.075 C 
BRANCH   7  12
ATOM     12  C5  <0> d          -2.233  -5.988  -5.281  0.00  0.00     0.058 A 
ATOM     13  C4  <0> d          -3.571  -6.327  -5.437  0.00  0.00     0.032 A 
ATOM     14  C3  <0> d          -3.915  -7.492  -6.095  0.00  0.00     0.009 A 
ATOM     15  C2  <0> d          -2.928  -8.320  -6.598  0.00  0.00    -0.062 A 
ATOM     16  C1  <0> d          -3.307  -9.590  -7.316  0.00  0.00     0.048 C 
ATOM     17  C7  <0> d          -1.595  -7.986  -6.444  0.00  0.00     0.009 A 
ATOM     18  C6  <0> d          -1.246  -6.819  -5.792  0.00  0.00     0.032 A 
ENDBRANCH   7  12
ENDBRANCH   1   5
BRANCH   2  19
ATOM     19  C13 <0> d          -1.456  -0.637  -0.387  0.00  0.00     0.184 C 
ATOM     20  C14 <0> d          -2.087  -1.383   0.790  0.00  0.00     0.043 C 
BRANCH  19  21
ATOM     21  N4  <0> d          -0.228   0.027   0.057  0.00  0.00    -0.274 N 
ATOM     22  C22 <0> d           0.834  -0.641   0.577  0.00  0.00     0.232 C 
ATOM     23  C21 <0> d           1.729   0.399   1.179  0.00  0.00     0.095 C 
ATOM     24  O3  <0> d           1.020  -1.839   0.559  0.00  0.00    -0.272 OA
ATOM     25  C16 <0> d           1.416   1.605   0.241  0.00  0.00     0.095 C 
ATOM     26  C20 <0> d           3.227   0.188   1.102  0.00  0.00     0.041 C 
ATOM     27  C15 <0> d          -0.042   1.371  -0.010  0.00  0.00     0.232 C 
ATOM     28  C17 <0> d           1.821   2.846   1.009  0.00  0.00     0.041 C 
ATOM     29  O2  <0> d          -0.886   2.212  -0.234  0.00  0.00    -0.272 OA
ATOM     30  C18 <0> d           3.266   2.657   1.421  0.00  0.00    -0.030 C 
ATOM     31  C19 <0> d           3.876   1.511   1.450  0.00  0.00    -0.030 C 
ENDBRANCH  19  21
ENDBRANCH   2  19
TORSDOF 4
