REMARK  8 active torsions:
REMARK  status: ('A' for Active; 'I' for Inactive)
REMARK    1  A    between atoms: C2_2  and  C3_3 
REMARK    2  A    between atoms: C2_2  and  O2_30 
REMARK    3  A    between atoms: C3_3  and  N1_4 
REMARK    4  A    between atoms: N1_4  and  C4_5 
REMARK    5  A    between atoms: N3_13  and  C11_14 
REMARK    6  A    between atoms: C11_14  and  C12_15 
REMARK       I    between atoms: C12_15  and  N4_17 
REMARK    7  A    between atoms: N4_17  and  C13_18 
REMARK    8  A    between atoms: C18_23  and  C19_24 
ROOT
ATOM      1  C4  <0> d           1.212   1.796   0.010  0.00  0.00     0.681 A 
ATOM      2  N2  <0> d          -0.015   1.339   0.016  0.00  0.00    -0.190 N 
ATOM      3  C5  <0> d           0.004  -0.020  -0.002  0.00  0.00     0.076 A 
ATOM      4  C6  <0> d          -0.998  -0.994  -0.004  0.00  0.00     0.032 A 
ATOM      5  C7  <0> d          -0.655  -2.327  -0.025  0.00  0.00     0.002 A 
ATOM      6  C8  <0> d           0.678  -2.711  -0.044  0.00  0.00     0.002 A 
ATOM      7  C9  <0> d           1.679  -1.762  -0.042  0.00  0.00     0.032 A 
ATOM      8  C10 <0> d           1.352  -0.414  -0.021  0.00  0.00     0.079 A 
ATOM      9  N3  <0> d           2.095   0.755  -0.013  0.00  0.00    -0.172 N 
ATOM     10  H25 <0> d          -0.863   2.039   0.034  0.00  0.00     0.184 HD
ENDROOT
BRANCH   9  11
ATOM     11  C11 <0> d           3.557   0.855  -0.027  0.00  0.00     0.251 C 
BRANCH  11  12
ATOM     12  C12 <0> d           4.043   0.908  -1.452  0.00  0.00     0.241 C 
ATOM     13  O1  <0> d           3.247   0.867  -2.367  0.00  0.00    -0.271 OA
ATOM     14  N4  <0> d           5.362   1.002  -1.711  0.00  0.00    -0.325 N 
ATOM     15  H14 <0> d           6.077   1.131  -0.885  0.00  0.00     0.169 HD
BRANCH  14  16
ATOM     16  C13 <0> d           5.823   0.936  -3.029  0.00  0.00     0.045 A 
ATOM     17  C18 <0> d           7.040   1.531  -3.379  0.00  0.00     0.001 A 
ATOM     18  C17 <0> d           7.492   1.454  -4.694  0.00  0.00     0.014 A 
ATOM     19  C16 <0> d           6.735   0.803  -5.646  0.00  0.00     0.001 A 
ATOM     20  C15 <0> d           5.529   0.219  -5.299  0.00  0.00     0.002 A 
ATOM     21  C14 <0> d           5.072   0.284  -3.997  0.00  0.00     0.030 A 
BRANCH  17  22
ATOM     22  C19 <0> d           7.846   2.236  -2.353  0.00  0.00    -0.024 A 
ATOM     23  C24 <0> d           9.203   1.948  -2.211  0.00  0.00     0.012 A 
ATOM     24  C23 <0> d           9.948   2.607  -1.255  0.00  0.00     0.001 A 
ATOM     25  C22 <0> d           9.353   3.552  -0.439  0.00  0.00     0.000 A 
ATOM     26  C21 <0> d           8.007   3.841  -0.575  0.00  0.00     0.001 A 
ATOM     27  C20 <0> d           7.252   3.193  -1.532  0.00  0.00     0.012 A 
ENDBRANCH  17  22
ENDBRANCH  14  16
ENDBRANCH  11  12
ENDBRANCH   9  11
BRANCH   1  28
ATOM     28  N1  <0> d           1.561   3.130   0.024  0.00  0.00    -0.223 N 
ATOM     29  H7  <0> d           2.621   3.421   0.016  0.00  0.00     0.177 HD
BRANCH  28  30
ATOM     30  C3  <0> d           0.518   4.159   0.048  0.00  0.00     0.169 C 
BRANCH  30  31
ATOM     31  C2  <0> d           1.169   5.544   0.059  0.00  0.00     0.132 C 
ATOM     32  C1  <0> d           0.081   6.619   0.085  0.00  0.00     0.041 C 
BRANCH  31  33
ATOM     33  O2  <0> d           1.994   5.673   1.219  0.00  0.00    -0.394 OA
ATOM     34  H24 <0> d           2.836   4.983   1.375  0.00  0.00     0.210 HD
ENDBRANCH  31  33
ENDBRANCH  30  31
ENDBRANCH  28  30
ENDBRANCH   1  28
TORSDOF 8
