REMARK  5 active torsions:
REMARK  status: ('A' for Active; 'I' for Inactive)
REMARK    1  A    between atoms: C6_6  and  O1_8 
REMARK    2  A    between atoms: O1_8  and  C8_9 
REMARK    3  A    between atoms: C8_9  and  C9_10 
REMARK    4  A    between atoms: C8_9  and  C10_12 
REMARK    5  A    between atoms: C9_10  and  N1_11 
ROOT
ATOM      1  C8  <0> d           0.157  -2.008   3.560  0.00  0.00     0.194 C 
ENDROOT
BRANCH   1   2
ATOM      2  O1  <0> d           0.051  -2.775   2.359  0.00  0.00    -0.339 OA
BRANCH   2   3
ATOM      3  C6  <0> d          -0.102  -2.086   1.198  0.00  0.00     0.070 A 
ATOM      4  C5  <0> d          -0.135  -2.763  -0.013  0.00  0.00     0.043 A 
ATOM      5  C4  <0> d          -0.291  -2.059  -1.192  0.00  0.00    -0.059 A 
ATOM      6  C3  <0> d          -0.416  -0.683  -1.166  0.00  0.00     0.013 A 
ATOM      7  C14 <0> d          -0.326  -2.794  -2.507  0.00  0.00     0.048 C 
ATOM      8  C2  <0> d          -0.384  -0.006   0.040  0.00  0.00    -0.059 A 
ATOM      9  C1  <0> d          -0.520   1.495   0.064  0.00  0.00     0.048 C 
ATOM     10  C7  <0> d          -0.222  -0.704   1.221  0.00  0.00     0.043 A 
ENDBRANCH   2   3
ENDBRANCH   1   2
BRANCH   1  11
ATOM     11  C9  <0> d           1.631  -1.717   3.850  0.00  0.00     0.267 C 
BRANCH  11  12
ATOM     12  N1  <0> d           2.179  -0.859   2.791  0.00  0.00    -0.077 N 
ATOM     13  H10 <0> d           1.664   0.008   2.761  0.00  0.00     0.274 HD
ATOM     14  H11 <0> d           3.151  -0.667   2.983  0.00  0.00     0.274 HD
ATOM     15  H17 <0> d           2.098  -1.329   1.902  0.00  0.00     0.274 HD
ENDBRANCH  11  12
ENDBRANCH   1  11
BRANCH   1  16
ATOM     16  C10 <0> d          -0.437  -2.785   4.706  0.00  0.00     0.015 A 
ATOM     17  S1  <0> d          -0.317  -4.530   5.064  0.00  0.00    -0.085 SA
ATOM     18  C13 <0> d          -1.291  -4.548   6.560  0.00  0.00     0.051 A 
ATOM     19  C12 <0> d          -1.644  -3.244   6.680  0.00  0.00     0.028 A 
ATOM     20 Br1  <0> d          -1.725  -6.008   7.681  0.00  0.00    -0.043 Br
ATOM     21  C11 <0> d          -1.206  -2.341   5.730  0.00  0.00     0.019 A 
ENDBRANCH   1  16
TORSDOF 5
