REMARK  6 active torsions:
REMARK  status: ('A' for Active; 'I' for Inactive)
REMARK    1  A    between atoms: C2_2  and  C3_3 
REMARK    2  A    between atoms: C2_2  and  C5_6 
REMARK    3  A    between atoms: C3_3  and  S1_4 
REMARK       I    between atoms: C5_6  and  N1_8 
REMARK    4  A    between atoms: N1_8  and  C6_9 
REMARK    5  A    between atoms: C6_9  and  C7_10 
REMARK    6  A    between atoms: C7_10  and  C8_11 
ROOT
ATOM      1  C6  <0> d           0.917  -0.637  -3.661  0.00  0.00     0.130 C 
ENDROOT
BRANCH   1   2
ATOM      2  N1  <0> d           0.231  -0.164  -2.456  0.00  0.00    -0.360 N 
ATOM      3  C5  <0> d           0.707  -0.490  -1.238  0.00  0.00     0.222 C 
ATOM      4  O1  <0> d           1.704  -1.174  -1.140  0.00  0.00    -0.273 OA
ATOM      5  H10 <0> d          -0.566   0.383  -2.534  0.00  0.00     0.162 HD
BRANCH   3   6
ATOM      6  C2  <0> d           0.002  -0.004   0.002  0.00  0.00     0.083 C 
ATOM      7  C1  <0> d          -0.019   1.526   0.010  0.00  0.00     0.020 C 
BRANCH   6   8
ATOM      8  C3  <0> d           0.742  -0.511   1.242  0.00  0.00     0.087 C 
BRANCH   8   9
ATOM      9  S1  <0> d          -0.187  -0.052   2.730  0.00  0.00    -0.173 SA
ATOM     10  C4  <0> d           0.810  -0.717   4.092  0.00  0.00     0.089 C 
ENDBRANCH   8   9
ENDBRANCH   6   8
ENDBRANCH   3   6
ENDBRANCH   1   2
BRANCH   1  11
ATOM     11  C7  <0> d           0.177  -0.130  -4.901  0.00  0.00     0.100 C 
BRANCH  11  12
ATOM     12  C8  <0> d           0.882  -0.616  -6.141  0.00  0.00     0.130 A 
ATOM     13  N4  <0> d           0.498  -0.354  -7.433  0.00  0.00    -0.314 N 
ATOM     14  C9  <0> d           1.374  -0.952  -8.265  0.00  0.00     0.195 A 
ATOM     15  C10 <0> d          -0.663   0.443  -7.838  0.00  0.00     0.160 C 
ATOM     16  N3  <0> d           2.288  -1.587  -7.501  0.00  0.00    -0.251 N 
ATOM     17  S2  <0> d           1.332  -0.918  -9.976  0.00  0.00    -0.039 SA
ATOM     18  N2  <0> d           1.945  -1.353  -6.162  0.00  0.00    -0.159 NA
ATOM     19  H18 <0> d           3.041  -2.108  -7.819  0.00  0.00     0.191 HD
ENDBRANCH  11  12
ENDBRANCH   1  11
TORSDOF 6
