REMARK  2 active torsions:
REMARK  status: ('A' for Active; 'I' for Inactive)
REMARK    1  A    between atoms: N1_3  and  S2_8 
REMARK    2  A    between atoms: S2_8  and  N2_11 
ROOT
ATOM      1  S2  <0> d           1.434   3.305   2.395  0.00  0.00     0.319 S 
ATOM      2  O1  <0> d           2.461   3.420   3.370  0.00  0.00    -0.182 OA
ATOM      3  O2  <0> d           1.017   4.404   1.596  0.00  0.00    -0.182 OA
ENDROOT
BRANCH   1   4
ATOM      4  N1  <0> d           1.906   2.111   1.349  0.00  0.00    -0.293 N 
ATOM      5  C2  <0> d           1.384   2.088   0.000  0.00  0.00     0.137 C 
ATOM      6  C1  <0> d          -0.018   1.455   0.010  0.00  0.00     0.031 C 
ATOM      7  C5  <0> d           0.002  -0.004   0.002  0.00  0.00     0.075 C 
ATOM      8  S1  <0> d           0.749  -0.688   1.520  0.00  0.00    -0.167 SA
ATOM      9  C4  <0> d           2.507  -0.346   1.339  0.00  0.00     0.094 C 
ATOM     10  C3  <0> d           2.850   1.084   1.793  0.00  0.00     0.147 C 
ENDBRANCH   1   4
BRANCH   1  11
ATOM     11  N2  <0> d           0.087   2.758   3.187  0.00  0.00    -0.291 N 
ATOM     12  C9  <0> d           0.205   2.010   4.448  0.00  0.00     0.166 C 
ATOM     13  C8  <0> d          -0.719   2.666   5.486  0.00  0.00     0.290 C 
ATOM     14  N3  <0> d          -2.080   2.750   4.939  0.00  0.00     0.086 N 
ATOM     15  C7  <0> d          -2.125   3.615   3.752  0.00  0.00     0.290 C 
ATOM     16  H15 <0> d          -2.733   3.066   5.641  0.00  0.00     0.316 HD
ATOM     17  C6  <0> d          -1.259   3.002   2.646  0.00  0.00     0.166 C 
ENDBRANCH   1  11
TORSDOF 2
