REMARK  7 active torsions:
REMARK  status: ('A' for Active; 'I' for Inactive)
REMARK    1  A    between atoms: C2_2  and  C3_3 
REMARK    2  A    between atoms: C3_3  and  C4_4 
REMARK    3  A    between atoms: C4_4  and  C5_5 
REMARK    4  A    between atoms: C5_5  and  C7_7 
REMARK       I    between atoms: C7_7  and  N1_9 
REMARK    5  A    between atoms: C9_11  and  C16_19 
REMARK       I    between atoms: C16_19  and  N3_21 
REMARK    6  A    between atoms: N3_21  and  C17_22 
REMARK    7  A    between atoms: C17_22  and  C18_23 
ROOT
ATOM      1  C7  <0> d           1.596  -3.795   2.569  0.00  0.00     0.223 C 
ATOM      2  O1  <0> d           1.012  -4.316   1.643  0.00  0.00    -0.273 OA
ATOM      3  N1  <0> d           2.110  -4.555   3.556  0.00  0.00    -0.350 N 
ATOM      4  C8  <0> d           2.844  -4.104   4.762  0.00  0.00     0.140 C 
ATOM      5  C9  <0> d           2.333  -5.022   5.896  0.00  0.00     0.106 C 
ATOM      6  C10 <0> d           1.827  -6.285   5.180  0.00  0.00    -0.007 C 
ATOM      7  C11 <0> d           2.063  -6.031   3.684  0.00  0.00     0.136 C 
ATOM      8  C12 <0> d           0.338  -6.484   5.447  0.00  0.00     0.039 C 
ATOM      9  C13 <0> d          -0.129  -7.777   4.772  0.00  0.00     0.233 C 
ATOM     10  N2  <0> d           0.639  -8.911   5.300  0.00  0.00    -0.075 N 
ATOM     11  C14 <0> d           2.058  -8.758   4.958  0.00  0.00     0.233 C 
ATOM     12  C15 <0> d           2.618  -7.506   5.640  0.00  0.00     0.039 C 
ATOM     13  H24 <0> d           0.538  -8.946   6.303  0.00  0.00     0.277 HD
ATOM     14  H41 <0> d           0.289  -9.768   4.899  0.00  0.00     0.277 HD
ENDROOT
BRANCH   5  15
ATOM     15  C16 <0> d           1.208  -4.354   6.644  0.00  0.00     0.224 C 
ATOM     16  O2  <0> d           0.476  -3.575   6.071  0.00  0.00    -0.273 OA
ATOM     17  N3  <0> d           1.016  -4.623   7.951  0.00  0.00    -0.358 N 
ATOM     18  H29 <0> d           1.601  -5.246   8.409  0.00  0.00     0.162 HD
BRANCH  17  19
ATOM     19  C17 <0> d          -0.078  -3.974   8.678  0.00  0.00     0.156 C 
BRANCH  19  20
ATOM     20  C18 <0> d          -0.075  -4.449  10.133  0.00  0.00     0.167 C 
ATOM     21  O3  <0> d           1.122  -4.005  10.778  0.00  0.00    -0.381 OA
ATOM     22  C21 <0> d           1.203  -4.374  12.157  0.00  0.00     0.198 C 
ATOM     23  C20 <0> d           0.002  -3.791  12.908  0.00  0.00     0.298 C 
ATOM     24  N4  <0> d          -1.239  -4.264  12.278  0.00  0.00     0.088 N 
ATOM     25  C19 <0> d          -1.288  -3.868  10.863  0.00  0.00     0.305 C 
ATOM     26  C22 <0> d          -2.418  -3.773  13.004  0.00  0.00     0.310 C 
ENDBRANCH  19  20
ENDBRANCH  17  19
ENDBRANCH   5  15
BRANCH   1  27
ATOM     27  C5  <0> d           1.748  -2.296   2.616  0.00  0.00     0.074 C 
ATOM     28  C6  <0> d           3.234  -1.933   2.627  0.00  0.00     0.020 C 
BRANCH  27  29
ATOM     29  C4  <0> d           1.081  -1.677   1.386  0.00  0.00     0.013 C 
BRANCH  29  30
ATOM     30  C3  <0> d           1.125  -0.151   1.496  0.00  0.00     0.000 C 
BRANCH  30  31
ATOM     31  C2  <0> d           0.458   0.468   0.266  0.00  0.00    -0.005 C 
ATOM     32  C1  <0> d           0.501   1.993   0.375  0.00  0.00     0.005 C 
ENDBRANCH  30  31
ENDBRANCH  29  30
ENDBRANCH  27  29
ENDBRANCH   1  27
TORSDOF 7
