REMARK  10 active torsions:
REMARK  status: ('A' for Active; 'I' for Inactive)
REMARK    1  A    between atoms: C2_2  and  O1_3 
REMARK    2  A    between atoms: O1_3  and  C3_4 
REMARK    3  A    between atoms: C3_4  and  C4_6 
REMARK    4  A    between atoms: C4_6  and  C5_7 
REMARK    5  A    between atoms: C5_7  and  C6_8 
REMARK       I    between atoms: C6_8  and  N1_10 
REMARK    6  A    between atoms: N1_10  and  C7_11 
REMARK    7  A    between atoms: N2_13  and  C8_14 
REMARK    8  A    between atoms: C11_17  and  C14_20 
REMARK    9  A    between atoms: C14_20  and  C15_21 
REMARK   10  A    between atoms: C15_21  and  C16_22 
REMARK       I    between atoms: C16_22  and  N3_24 
ROOT
ATOM      1  C7  <0> d           3.685  -6.361   4.549  0.00  0.00     0.179 C 
ATOM      2  S1  <0> d           5.134  -5.667   5.141  0.00  0.00    -0.040 SA
ATOM      3  N2  <0> d           3.165  -7.449   5.150  0.00  0.00    -0.333 N 
ATOM      4  H9  <0> d           2.313  -7.806   4.855  0.00  0.00     0.168 HD
ENDROOT
BRANCH   3   5
ATOM      5  C8  <0> d           3.854  -8.065   6.201  0.00  0.00     0.034 A 
ATOM      6  C13 <0> d           3.985  -9.447   6.232  0.00  0.00     0.030 A 
ATOM      7  C12 <0> d           4.670 -10.051   7.268  0.00  0.00     0.009 A 
ATOM      8  C11 <0> d           5.217  -9.282   8.279  0.00  0.00    -0.058 A 
ATOM      9  C10 <0> d           5.084  -7.905   8.253  0.00  0.00     0.009 A 
ATOM     10  C9  <0> d           4.405  -7.295   7.217  0.00  0.00     0.030 A 
BRANCH   8  11
ATOM     11  C14 <0> d           5.959  -9.944   9.411  0.00  0.00     0.047 C 
BRANCH  11  12
ATOM     12  C15 <0> d           4.980 -10.273  10.539  0.00  0.00     0.107 C 
BRANCH  12  13
ATOM     13  C16 <0> d           5.723 -10.936  11.671  0.00  0.00     0.217 C 
ATOM     14  O4  <0> d           6.917 -11.127  11.583  0.00  0.00    -0.274 OA
ATOM     15  N3  <0> d           5.059 -11.317  12.781  0.00  0.00    -0.365 N 
ATOM     16  C17 <0> d           5.781 -11.961  13.881  0.00  0.00     0.149 C 
ATOM     17  H18 <0> d           4.104 -11.164  12.851  0.00  0.00     0.161 HD
ENDBRANCH  12  13
ENDBRANCH  11  12
ENDBRANCH   8  11
ENDBRANCH   3   5
BRANCH   1  18
ATOM     18  N1  <0> d           3.065  -5.819   3.483  0.00  0.00    -0.300 N 
ATOM     19  C6  <0> d           3.585  -4.731   2.881  0.00  0.00     0.247 C 
ATOM     20  O3  <0> d           4.613  -4.238   3.301  0.00  0.00    -0.268 OA
ATOM     21  H8  <0> d           2.244  -6.213   3.147  0.00  0.00     0.171 HD
BRANCH  19  22
ATOM     22  C5  <0> d           2.905  -4.137   1.713  0.00  0.00     0.080 C 
BRANCH  22  23
ATOM     23  C4  <0> d           3.423  -3.053   1.114  0.00  0.00     0.088 C 
BRANCH  23  24
ATOM     24  C3  <0> d           2.744  -2.460  -0.053  0.00  0.00     0.283 C 
ATOM     25  O2  <0> d           1.716  -2.952  -0.473  0.00  0.00    -0.260 OA
BRANCH  24  26
ATOM     26  O1  <0> d           3.264  -1.371  -0.654  0.00  0.00    -0.319 OA
BRANCH  26  27
ATOM     27  C2  <0> d           2.554  -0.850  -1.779  0.00  0.00     0.174 C 
ATOM     28  C1  <0> d           3.290   0.375  -2.324  0.00  0.00     0.034 C 
ENDBRANCH  26  27
ENDBRANCH  24  26
ENDBRANCH  23  24
ENDBRANCH  22  23
ENDBRANCH  19  22
ENDBRANCH   1  18
TORSDOF 10
