REMARK  3 active torsions:
REMARK  status: ('A' for Active; 'I' for Inactive)
REMARK    1  A    between atoms: C9_9  and  C15_15 
REMARK       I    between atoms: C15_15  and  N1_17 
REMARK    2  A    between atoms: N1_17  and  C16_18 
REMARK    3  A    between atoms: C21_23  and  O2_24 
ROOT
ATOM      1  C1  <0> d          -0.145   1.390  -0.308  0.00  0.00     0.048 C 
ATOM      2  C2  <0> d          -0.806   1.870   0.959  0.00  0.00    -0.061 A 
ATOM      3  C3  <0> d          -0.037   2.202   2.059  0.00  0.00     0.015 A 
ATOM      4  C4  <0> d          -0.635   2.641   3.221  0.00  0.00    -0.034 A 
ATOM      5  C5  <0> d          -2.022   2.756   3.295  0.00  0.00     0.050 A 
ATOM      6  C6  <0> d          -2.785   2.419   2.182  0.00  0.00     0.016 A 
ATOM      7  C7  <0> d          -2.183   1.986   1.022  0.00  0.00     0.019 A 
ATOM      8  C8  <0> d          -4.220   2.646   2.577  0.00  0.00     0.249 A 
ATOM      9  C9  <0> d          -5.021   1.338   2.490  0.00  0.00     0.131 C 
ATOM     10  C10 <0> d          -6.410   1.816   1.984  0.00  0.00     0.050 C 
ATOM     11  C11 <0> d          -6.018   2.976   1.038  0.00  0.00     0.191 C 
ATOM     12  C12 <0> d          -5.438   4.732   2.522  0.00  0.00     0.237 C 
ATOM     13  C13 <0> d          -6.591   5.279   1.645  0.00  0.00     0.030 C 
ATOM     14  C14 <0> d          -7.163   4.000   0.991  0.00  0.00     0.035 C 
ATOM     15  C23 <0> d          -4.152   3.136   4.001  0.00  0.00     0.264 A 
ATOM     16  O3  <0> d          -5.091   3.441   4.706  0.00  0.00    -0.270 OA
ATOM     17  N2  <0> d          -2.850   3.171   4.340  0.00  0.00    -0.324 N 
ATOM     18  C24 <0> d           0.212   2.998   4.415  0.00  0.00     0.050 C 
ATOM     19  H23 <0> d          -2.524   3.451   5.210  0.00  0.00     0.169 HD
ATOM     20  N3  <0> d          -4.898   3.628   1.707  0.00  0.00    -0.044 N 
ATOM     21  H27 <0> d          -4.236   3.995   1.014  0.00  0.00     0.282 HD
ENDROOT
BRANCH   9  22
ATOM     22  C15 <0> d          -4.391   0.391   1.503  0.00  0.00     0.229 C 
ATOM     23  O1  <0> d          -4.669   0.469   0.325  0.00  0.00    -0.273 OA
ATOM     24  N1  <0> d          -3.517  -0.543   1.929  0.00  0.00    -0.324 N 
ATOM     25  H16 <0> d          -3.343  -0.647   2.877  0.00  0.00     0.169 HD
BRANCH  24  26
ATOM     26  C16 <0> d          -2.862  -1.364   1.001  0.00  0.00     0.070 A 
ATOM     27  C21 <0> d          -1.606  -1.889   1.298  0.00  0.00     0.095 A 
ATOM     28  C20 <0> d          -0.965  -2.704   0.380  0.00  0.00     0.041 A 
ATOM     29  C19 <0> d          -1.565  -2.987  -0.832  0.00  0.00     0.026 A 
ATOM     30  C18 <0> d          -2.810  -2.462  -1.131  0.00  0.00     0.036 A 
ATOM     31  C17 <0> d          -3.459  -1.652  -0.217  0.00  0.00     0.056 A 
ATOM     32 Cl1  <0> d          -3.559  -2.821  -2.655  0.00  0.00    -0.084 Cl
BRANCH  27  33
ATOM     33  O2  <0> d          -1.013  -1.605   2.489  0.00  0.00    -0.354 OA
ATOM     34  C22 <0> d           0.275  -2.177   2.725  0.00  0.00     0.210 C 
ENDBRANCH  27  33
ENDBRANCH  24  26
ENDBRANCH   9  22
TORSDOF 3
