REMARK  3 active torsions:
REMARK  status: ('A' for Active; 'I' for Inactive)
REMARK    1  A    between atoms: C5_5  and  C7_7 
REMARK    2  A    between atoms: C9_10  and  C10_13 
REMARK    3  A    between atoms: C10_13  and  N3_14 
ROOT
ATOM      1  C7  <0> d           1.757  -2.302   0.242  0.00  0.00     0.060 A 
ATOM      2  C8  <0> d           2.627  -3.187  -0.315  0.00  0.00     0.119 A 
ATOM      3  N1  <0> d           2.142  -4.418  -0.122  0.00  0.00    -0.352 N 
ATOM      4  C9  <0> d           1.012  -4.346   0.528  0.00  0.00     0.110 A 
ATOM      5  N2  <0> d           0.734  -3.049   0.782  0.00  0.00    -0.343 N 
ATOM      6  H1  <0> d          -0.042  -2.708   1.254  0.00  0.00     0.167 HD
ATOM      7  H19 <0> d           2.565  -5.239  -0.420  0.00  0.00     0.166 HD
ENDROOT
BRANCH   4   8
ATOM      8  C10 <0> d           0.160  -5.520   0.935  0.00  0.00     0.348 C 
BRANCH   8   9
ATOM      9  N3  <0> d           0.375  -6.630  -0.004  0.00  0.00     0.098 N 
ATOM     10  C14 <0> d          -0.322  -6.388  -1.275  0.00  0.00     0.300 C 
ATOM     11  C13 <0> d          -0.024  -7.535  -2.243  0.00  0.00     0.262 C 
ATOM     12  N4  <0> d          -0.473  -8.803  -1.652  0.00  0.00    -0.072 N 
ATOM     13  C12 <0> d           0.250  -9.043  -0.396  0.00  0.00     0.262 C 
ATOM     14  H13 <0> d          -0.288  -9.557  -2.296  0.00  0.00     0.277 HD
ATOM     15  H18 <0> d          -1.463  -8.755  -1.467  0.00  0.00     0.277 HD
ATOM     16  C11 <0> d          -0.046  -7.908   0.587  0.00  0.00     0.300 C 
ENDBRANCH   8   9
ENDBRANCH   4   8
BRANCH   1  17
ATOM     17  C5  <0> d           1.887  -0.829   0.269  0.00  0.00     0.009 A 
ATOM     18  C4  <0> d           3.133  -0.239   0.488  0.00  0.00     0.023 A 
ATOM     19  C3  <0> d           3.247   1.136   0.511  0.00  0.00     0.020 A 
ATOM     20 Br1  <0> d           4.661  -1.322   0.750  0.00  0.00    -0.050 Br
ATOM     21  C2  <0> d           2.130   1.929   0.319  0.00  0.00     0.001 A 
ATOM     22  C1  <0> d           0.892   1.350   0.102  0.00  0.00     0.001 A 
ATOM     23  C6  <0> d           0.764  -0.023   0.076  0.00  0.00     0.015 A 
ENDBRANCH   1  17
TORSDOF 3
