REMARK  5 active torsions:
REMARK  status: ('A' for Active; 'I' for Inactive)
REMARK    1  A    between atoms: C2_2  and  C3_3 
REMARK    2  A    between atoms: C3_3  and  C8_9 
REMARK       I    between atoms: C8_9  and  N2_11 
REMARK    3  A    between atoms: N2_11  and  C10_13 
REMARK    4  A    between atoms: C10_13  and  C11_14 
REMARK       I    between atoms: C11_14  and  N3_16 
REMARK    5  A    between atoms: N3_16  and  C12_17 
ROOT
ATOM      1  C8  <0> d           0.059   0.107  -2.594  0.00  0.00     0.228 C 
ATOM      2  O1  <0> d          -0.475  -0.673  -3.353  0.00  0.00    -0.273 OA
ATOM      3  N2  <0> d           0.124   1.416  -2.909  0.00  0.00    -0.347 N 
ATOM      4  C9  <0> d           0.693   2.371  -1.956  0.00  0.00     0.153 C 
ENDROOT
BRANCH   1   5
ATOM      5  C3  <0> d           0.649  -0.386  -1.298  0.00  0.00     0.044 C 
ATOM      6  C7  <0> d          -0.215   0.092  -0.127  0.00  0.00     0.046 C 
ATOM      7  C6  <0> d          -1.612  -0.522  -0.247  0.00  0.00     0.233 C 
ATOM      8  N1  <0> d          -1.511  -1.986  -0.217  0.00  0.00    -0.075 N 
ATOM      9  C5  <0> d          -0.744  -2.457  -1.377  0.00  0.00     0.233 C 
ATOM     10  H10 <0> d          -2.437  -2.386  -0.242  0.00  0.00     0.277 HD
ATOM     11  H30 <0> d          -1.046  -2.273   0.631  0.00  0.00     0.277 HD
ATOM     12  C4  <0> d           0.686  -1.917  -1.301  0.00  0.00     0.046 C 
BRANCH   5  13
ATOM     13  C2  <0> d           2.069   0.160  -1.142  0.00  0.00     0.015 C 
ATOM     14  C1  <0> d           2.890  -0.190  -2.385  0.00  0.00     0.006 C 
ENDBRANCH   5  13
ENDBRANCH   1   5
BRANCH   3  15
ATOM     15  C10 <0> d          -0.374   1.883  -4.205  0.00  0.00     0.227 C 
BRANCH  15  16
ATOM     16  C11 <0> d          -1.832   2.244  -4.083  0.00  0.00     0.236 C 
ATOM     17  O2  <0> d          -2.399   2.123  -3.018  0.00  0.00    -0.272 OA
ATOM     18  N3  <0> d          -2.505   2.702  -5.157  0.00  0.00    -0.352 N 
ATOM     19  H20 <0> d          -2.052   2.798  -6.009  0.00  0.00     0.163 HD
BRANCH  18  20
ATOM     20  C12 <0> d          -3.923   3.053  -5.038  0.00  0.00     0.022 C 
ATOM     21  C13 <0> d          -4.088   4.163  -3.998  0.00  0.00     0.037 C 
ATOM     22  C14 <0> d          -4.443   3.541  -6.391  0.00  0.00     0.037 C 
ATOM     23  C15 <0> d          -4.718   1.821  -4.599  0.00  0.00     0.037 C 
ENDBRANCH  18  20
ENDBRANCH  15  16
ENDBRANCH   3  15
TORSDOF 5
