REMARK  11 active torsions:
REMARK  status: ('A' for Active; 'I' for Inactive)
REMARK    1  A    between atoms: N1_5  and  C7_8 
REMARK    2  A    between atoms: C7_8  and  C8_9 
REMARK    3  A    between atoms: C8_9  and  C9_10 
REMARK    4  A    between atoms: C8_9  and  O3_27 
REMARK    5  A    between atoms: C9_10  and  N2_11 
REMARK    6  A    between atoms: N2_11  and  C10_12 
REMARK    7  A    between atoms: C10_12  and  C11_13 
REMARK    8  A    between atoms: C14_16  and  O2_23 
REMARK    9  A    between atoms: C16_18  and  O1_19 
REMARK   10  A    between atoms: O1_19  and  C17_20 
REMARK   11  A    between atoms: O2_23  and  C18_24 
ROOT
ATOM      1  N2  <0> d           0.631  -6.350   4.011  0.00  0.00    -0.069 N 
ATOM      2  H18 <0> d           1.563  -5.972   4.094  0.00  0.00     0.277 HD
ATOM      3  H28 <0> d           0.063  -6.015   4.774  0.00  0.00     0.277 HD
ENDROOT
BRANCH   1   4
ATOM      4  C9  <0> d           0.041  -5.922   2.735  0.00  0.00     0.265 C 
BRANCH   4   5
ATOM      5  C8  <0> d          -0.023  -4.394   2.690  0.00  0.00     0.169 C 
BRANCH   5   6
ATOM      6  C7  <0> d          -0.750  -3.952   1.419  0.00  0.00     0.268 C 
BRANCH   6   7
ATOM      7  N1  <0> d          -0.817  -2.485   1.378  0.00  0.00    -0.069 N 
ATOM      8  C4  <0> d          -1.667  -2.005   2.474  0.00  0.00     0.235 C 
ATOM      9  C3  <0> d          -1.674  -0.474   2.486  0.00  0.00     0.032 C 
ATOM     10  C2  <0> d          -2.222   0.038   1.151  0.00  0.00    -0.015 C 
ATOM     11  C1  <0> d          -2.158   1.567   1.124  0.00  0.00     0.010 C 
ATOM     12  C6  <0> d          -1.372  -0.529   0.010  0.00  0.00     0.032 C 
ATOM     13  C5  <0> d          -1.376  -2.057   0.090  0.00  0.00     0.235 C 
ATOM     14  H27 <0> d           0.112  -2.105   1.483  0.00  0.00     0.280 HD
ENDBRANCH   6   7
ENDBRANCH   5   6
BRANCH   5  15
ATOM     15  O3  <0> d           1.303  -3.862   2.691  0.00  0.00    -0.392 OA
ATOM     16  H26 <0> d           1.841  -4.147   1.940  0.00  0.00     0.210 HD
ENDBRANCH   5  15
ENDBRANCH   4   5
ENDBRANCH   1   4
BRANCH   1  17
ATOM     17  C10 <0> d           0.693  -7.817   4.054  0.00  0.00     0.273 C 
BRANCH  17  18
ATOM     18  C11 <0> d           1.298  -8.256   5.362  0.00  0.00     0.001 A 
ATOM     19  C16 <0> d           0.520  -8.289   6.510  0.00  0.00     0.085 A 
ATOM     20  C15 <0> d           1.076  -8.699   7.712  0.00  0.00     0.074 A 
ATOM     21  C14 <0> d           2.412  -9.063   7.767  0.00  0.00     0.077 A 
ATOM     22  C13 <0> d           3.188  -9.023   6.617  0.00  0.00     0.038 A 
ATOM     23  C12 <0> d           2.631  -8.620   5.419  0.00  0.00     0.014 A 
BRANCH  19  24
ATOM     24  O1  <0> d          -0.789  -7.926   6.455  0.00  0.00    -0.289 OA
BRANCH  24  25
ATOM     25  C17 <0> d          -1.530  -7.984   7.675  0.00  0.00     0.505 C 
ATOM     26  F1  <0> d          -1.525  -9.296   8.162  0.00  0.00    -0.184 F 
ATOM     27  F2  <0> d          -0.943  -7.134   8.619  0.00  0.00    -0.184 F 
ENDBRANCH  24  25
ENDBRANCH  19  24
BRANCH  21  28
ATOM     28  O2  <0> d           2.962  -9.460   8.945  0.00  0.00    -0.290 OA
BRANCH  28  29
ATOM     29  C18 <0> d           4.344  -9.821   8.927  0.00  0.00     0.505 C 
ATOM     30  F3  <0> d           4.535 -10.890   8.044  0.00  0.00    -0.184 F 
ATOM     31  F4  <0> d           5.107  -8.727   8.506  0.00  0.00    -0.184 F 
ENDBRANCH  28  29
ENDBRANCH  21  28
ENDBRANCH  17  18
ENDBRANCH   1  17
TORSDOF 11
