REMARK  3 active torsions:
REMARK  status: ('A' for Active; 'I' for Inactive)
REMARK    1  A    between atoms: C7_11  and  C8_13 
REMARK    2  A    between atoms: C8_13  and  N3_15 
REMARK    3  A    between atoms: N3_15  and  C10_16 
ROOT
ATOM      1  C1  <0> d           3.290  -0.225   6.321  0.00  0.00     0.050 C 
ATOM      2  C2  <0> d           1.840  -0.395   5.949  0.00  0.00    -0.031 A 
ATOM      3  C3  <0> d           1.006  -1.069   6.757  0.00  0.00    -0.012 A 
ATOM      4  S1  <0> d          -0.554  -0.992   5.898  0.00  0.00    -0.074 SA
ATOM      5  C4  <0> d          -0.041  -0.057   4.480  0.00  0.00     0.116 A 
ATOM      6  C5  <0> d           1.327   0.169   4.714  0.00  0.00     0.075 A 
ATOM      7  C6  <0> d           2.013   0.920   3.704  0.00  0.00     0.260 A 
ATOM      8  O1  <0> d           3.201   1.167   3.816  0.00  0.00    -0.267 OA
ATOM      9  N1  <0> d           1.325   1.341   2.627  0.00  0.00    -0.309 N 
ATOM     10  H1  <0> d           1.785   1.846   1.938  0.00  0.00     0.170 HD
ATOM     11  C7  <0> d           0.000   1.080   2.488  0.00  0.00     0.130 A 
ATOM     12  N2  <0> d          -0.653   0.399   3.391  0.00  0.00    -0.225 NA
ATOM     13  C16 <0> d           1.315  -1.733   8.074  0.00  0.00     0.057 C 
ENDROOT
BRANCH  11  14
ATOM     14  C8  <0> d          -0.729   1.579   1.267  0.00  0.00     0.147 C 
ATOM     15  C9  <0> d          -0.013   1.086   0.008  0.00  0.00     0.040 C 
BRANCH  14  16
ATOM     16  N3  <0> d          -2.103   1.072   1.277  0.00  0.00    -0.379 N 
ATOM     17  H9  <0> d          -2.316   0.256   1.757  0.00  0.00     0.160 HD
BRANCH  16  18
ATOM     18  C10 <0> d          -3.109   1.764   0.596  0.00  0.00     0.028 A 
ATOM     19  C15 <0> d          -4.412   1.285   0.605  0.00  0.00     0.032 A 
ATOM     20  C14 <0> d          -5.404   1.970  -0.068  0.00  0.00     0.044 A 
ATOM     21  C13 <0> d          -5.100   3.135  -0.752  0.00  0.00     0.116 A 
ATOM     22  C12 <0> d          -3.802   3.616  -0.762  0.00  0.00     0.044 A 
ATOM     23  F1  <0> d          -6.072   3.804  -1.410  0.00  0.00    -0.206 F 
ATOM     24  C11 <0> d          -2.807   2.936  -0.086  0.00  0.00     0.032 A 
ENDBRANCH  16  18
ENDBRANCH  14  16
ENDBRANCH  11  14
TORSDOF 3
