REMARK  5 active torsions:
REMARK  status: ('A' for Active; 'I' for Inactive)
REMARK    1  A    between atoms: C3_3  and  C13_19 
REMARK    2  A    between atoms: N1_5  and  C5_7 
REMARK    3  A    between atoms: C5_7  and  C6_8 
REMARK    4  A    between atoms: C9_11  and  N3_15 
REMARK    5  A    between atoms: C13_19  and  N4_21 
ROOT
ATOM      1  C1  <0> d          -0.018   1.503   0.010  0.00  0.00     0.073 C 
ATOM      2  C2  <0> d           0.002  -0.004   0.002  0.00  0.00     0.061 A 
ATOM      3  C3  <0> d           0.008  -0.818  -1.135  0.00  0.00     0.021 A 
ATOM      4  C4  <0> d           0.028  -2.107  -0.725  0.00  0.00     0.037 A 
ATOM      5  N1  <0> d           0.034  -2.109   0.625  0.00  0.00    -0.269 N 
ATOM      6  N2  <0> d           0.023  -0.777   1.058  0.00  0.00    -0.176 NA
ATOM      7  C12 <0> d           0.040  -3.323  -1.615  0.00  0.00     0.070 C 
ENDROOT
BRANCH   5   8
ATOM      8  C5  <0> d           0.055  -3.295   1.485  0.00  0.00     0.191 C 
BRANCH   8   9
ATOM      9  C6  <0> d           1.482  -3.682   1.773  0.00  0.00    -0.021 A 
ATOM     10  C11 <0> d           2.166  -3.079   2.813  0.00  0.00     0.021 A 
ATOM     11  C10 <0> d           3.475  -3.438   3.080  0.00  0.00     0.055 A 
ATOM     12 Br1  <0> d           1.309  -1.769   3.874  0.00  0.00    -0.050 Br
ATOM     13  C9  <0> d           4.103  -4.391   2.301  0.00  0.00     0.104 A 
ATOM     14  C8  <0> d           3.421  -4.990   1.258  0.00  0.00     0.037 A 
ATOM     15  C7  <0> d           2.111  -4.635   0.994  0.00  0.00     0.013 A 
BRANCH  13  16
ATOM     16  N3  <0> d           5.505  -4.771   2.583  0.00  0.00    -0.116 N 
ATOM     17  O1  <0> d           6.054  -5.606   1.902  0.00  0.00    -0.532 OA
ATOM     18  O2  <0> d           6.101  -4.248   3.495  0.00  0.00    -0.532 OA
ENDBRANCH  13  16
ENDBRANCH   8   9
ENDBRANCH   5   8
BRANCH   3  19
ATOM     19  C13 <0> d          -0.006  -0.343  -2.566  0.00  0.00     0.216 C 
ATOM     20  C14 <0> d          -1.408   0.152  -2.925  0.00  0.00     0.045 C 
BRANCH  19  21
ATOM     21  N4  <0> d           0.957   0.754  -2.727  0.00  0.00    -0.071 N 
ATOM     22  H16 <0> d           1.882   0.428  -2.490  0.00  0.00     0.275 HD
ATOM     23  H17 <0> d           0.948   1.072  -3.684  0.00  0.00     0.275 HD
ATOM     24  H18 <0> d           0.703   1.517  -2.116  0.00  0.00     0.275 HD
ENDBRANCH  19  21
ENDBRANCH   3  19
TORSDOF 5
