REMARK  7 active torsions:
REMARK  status: ('A' for Active; 'I' for Inactive)
REMARK    1  A    between atoms: C2_2  and  C3_3 
REMARK    2  A    between atoms: C3_3  and  C4_4 
REMARK    3  A    between atoms: C4_4  and  N1_5 
REMARK       I    between atoms: N1_5  and  C5_6 
REMARK    4  A    between atoms: C5_6  and  C6_8 
REMARK    5  A    between atoms: N4_22  and  C18_25 
REMARK    6  A    between atoms: C17_23  and  N5_24 
REMARK    7  A    between atoms: C18_25  and  C20_27 
ROOT
ATOM      1  C6  <0> d          -5.012  -5.551   2.463  0.00  0.00     0.076 A 
ATOM      2  C7  <0> d          -6.052  -4.621   2.520  0.00  0.00     0.042 A 
ATOM      3  C8  <0> d          -7.059  -4.707   1.561  0.00  0.00     0.080 A 
ATOM      4  C9  <0> d          -7.003  -5.721   0.567  0.00  0.00     0.150 A 
ATOM      5  N2  <0> d          -7.979  -5.787  -0.344  0.00  0.00    -0.211 NA
ATOM      6  C10 <0> d          -8.999  -4.936  -0.351  0.00  0.00     0.145 A 
ATOM      7  C11 <0> d          -9.987  -5.077  -1.349  0.00  0.00    -0.015 A 
ATOM      8  C12 <0> d         -11.042  -4.219  -1.379  0.00  0.00     0.012 A 
ATOM      9  C13 <0> d         -11.136  -3.202  -0.416  0.00  0.00     0.018 A 
ATOM     10  C14 <0> d         -10.184  -3.078   0.533  0.00  0.00     0.102 A 
ATOM     11  N3  <0> d          -9.121  -3.934   0.574  0.00  0.00    -0.272 N 
ATOM     12  C15 <0> d          -8.188  -3.776   1.542  0.00  0.00     0.267 A 
ATOM     13  O2  <0> d          -8.285  -2.888   2.369  0.00  0.00    -0.267 OA
ATOM     14  C16 <0> d          -9.873  -6.173  -2.378  0.00  0.00     0.052 C 
ATOM     15  N4  <0> d          -5.989  -6.588   0.553  0.00  0.00    -0.307 N 
ATOM     16  C17 <0> d          -5.017  -6.529   1.444  0.00  0.00     0.119 A 
ENDROOT
BRANCH   1  17
ATOM     17  C5  <0> d          -3.921  -5.509   3.450  0.00  0.00     0.255 C 
ATOM     18  N1  <0> d          -3.821  -4.468   4.300  0.00  0.00    -0.357 N 
ATOM     19  H11 <0> d          -4.468  -3.746   4.261  0.00  0.00     0.162 HD
ATOM     20  O1  <0> d          -3.110  -6.414   3.499  0.00  0.00    -0.268 OA
BRANCH  18  21
ATOM     21  C4  <0> d          -2.735  -4.426   5.282  0.00  0.00     0.123 C 
BRANCH  21  22
ATOM     22  C3  <0> d          -2.850  -3.148   6.115  0.00  0.00     0.019 C 
BRANCH  22  23
ATOM     23  C2  <0> d          -1.716  -3.104   7.142  0.00  0.00    -0.003 C 
ATOM     24  C1  <0> d          -1.832  -1.826   7.975  0.00  0.00     0.005 C 
ENDBRANCH  22  23
ENDBRANCH  21  22
ENDBRANCH  18  21
ENDBRANCH   1  17
BRANCH  16  25
ATOM     25  N5  <0> d          -3.987  -7.445   1.383  0.00  0.00    -0.384 N 
ATOM     26  H19 <0> d          -4.160  -8.348   1.074  0.00  0.00     0.157 HD
ATOM     27  H28 <0> d          -3.091  -7.186   1.648  0.00  0.00     0.157 HD
ENDBRANCH  16  25
BRANCH  15  28
ATOM     28  C18 <0> d          -5.950  -7.626  -0.479  0.00  0.00     0.122 C 
ATOM     29  C19 <0> d          -7.370  -8.120  -0.760  0.00  0.00     0.038 C 
BRANCH  28  30
ATOM     30  C20 <0> d          -5.357  -7.056  -1.743  0.00  0.00    -0.035 A 
ATOM     31  C25 <0> d          -4.407  -7.774  -2.445  0.00  0.00     0.009 A 
ATOM     32  C24 <0> d          -3.867  -7.253  -3.606  0.00  0.00     0.001 A 
ATOM     33  C23 <0> d          -4.271  -6.011  -4.060  0.00  0.00     0.000 A 
ATOM     34  C22 <0> d          -5.217  -5.292  -3.354  0.00  0.00     0.001 A 
ATOM     35  C21 <0> d          -5.760  -5.814  -2.196  0.00  0.00     0.009 A 
ENDBRANCH  28  30
ENDBRANCH  15  28
TORSDOF 7
