REMARK  5 active torsions:
REMARK  status: ('A' for Active; 'I' for Inactive)
REMARK    1  A    between atoms: O1_2  and  C2_3 
REMARK    2  A    between atoms: P1_10  and  C18_25 
REMARK    3  A    between atoms: C11_17  and  C12_18 
REMARK    4  A    between atoms: C17_23  and  O4_24 
REMARK    5  A    between atoms: C23_30  and  O5_31 
ROOT
ATOM      1  C2  <0> d           0.606  -0.607  -1.056  0.00  0.00     0.075 C 
ATOM      2  C3  <0> d           1.153   0.130  -2.027  0.00  0.00     0.016 C 
ATOM      3  C4  <0> d           1.824  -0.568  -3.178  0.00  0.00     0.022 C 
ATOM      4  C5  <0> d           2.838   0.338  -3.868  0.00  0.00     0.047 C 
ATOM      5  C6  <0> d           3.518  -0.432  -5.009  0.00  0.00     0.238 C 
ATOM      6  C7  <0> d           4.541   0.515  -5.651  0.00  0.00     0.213 C 
ATOM      7  O2  <0> d           5.145  -0.134  -6.785  0.00  0.00    -0.312 OA
ATOM      8  P1  <0> d           5.739  -1.634  -6.572  0.00  0.00     0.346 P 
ATOM      9  O3  <0> d           7.077  -1.570  -5.944  0.00  0.00    -0.260 OA
ATOM     10  N1  <0> d           4.669  -2.385  -5.564  0.00  0.00    -0.172 N 
ATOM     11  N2  <0> d           4.173  -1.641  -4.512  0.00  0.00     0.018 N 
ATOM     12  C8  <0> d           3.219  -2.524  -3.818  0.00  0.00     0.272 C 
ATOM     13  C9  <0> d           2.574  -1.797  -2.647  0.00  0.00     0.045 C 
ATOM     14  C10 <0> d           1.607  -2.671  -1.896  0.00  0.00    -0.005 C 
ATOM     15  C11 <0> d           0.666  -2.086  -1.136  0.00  0.00     0.007 C 
ATOM     16  H12 <0> d           4.411  -3.310  -5.705  0.00  0.00     0.197 HD
ATOM     17  H26 <0> d           4.919  -1.386  -3.882  0.00  0.00     0.309 HD
ENDROOT
BRANCH   8  18
ATOM     18  C18 <0> d           5.831  -2.505  -8.160  0.00  0.00     0.084 A 
ATOM     19  C23 <0> d           6.981  -2.421  -8.932  0.00  0.00     0.083 A 
ATOM     20  C22 <0> d           7.050  -3.094 -10.144  0.00  0.00     0.037 A 
ATOM     21  C21 <0> d           5.972  -3.836 -10.583  0.00  0.00     0.003 A 
ATOM     22  C20 <0> d           4.825  -3.914  -9.814  0.00  0.00     0.001 A 
ATOM     23  C19 <0> d           4.755  -3.249  -8.604  0.00  0.00     0.022 A 
BRANCH  19  24
ATOM     24  O5  <0> d           8.038  -1.685  -8.500  0.00  0.00    -0.360 OA
ATOM     25  H25 <0> d           8.672  -2.183  -7.966  0.00  0.00     0.217 HD
ENDBRANCH  19  24
ENDBRANCH   8  18
BRANCH  15  26
ATOM     26  C12 <0> d          -0.307  -2.916  -0.386  0.00  0.00     0.010 A 
ATOM     27  C17 <0> d          -1.626  -3.030  -0.836  0.00  0.00     0.076 A 
ATOM     28  C16 <0> d          -2.528  -3.812  -0.133  0.00  0.00     0.037 A 
ATOM     29  C15 <0> d          -2.127  -4.467   1.016  0.00  0.00     0.003 A 
ATOM     30  C14 <0> d          -0.824  -4.352   1.467  0.00  0.00     0.001 A 
ATOM     31  C13 <0> d           0.086  -3.581   0.773  0.00  0.00     0.015 A 
BRANCH  27  32
ATOM     32  O4  <0> d          -2.021  -2.380  -1.962  0.00  0.00    -0.360 OA
ATOM     33  H20 <0> d          -1.909  -2.896  -2.773  0.00  0.00     0.217 HD
ENDBRANCH  27  32
ENDBRANCH  15  26
BRANCH   1  34
ATOM     34  O1  <0> d           0.002  -0.004   0.002  0.00  0.00    -0.355 OA
ATOM     35  C1  <0> d          -0.017   1.425   0.010  0.00  0.00     0.210 C 
ENDBRANCH   1  34
TORSDOF 5
