REMARK  4 active torsions:
REMARK  status: ('A' for Active; 'I' for Inactive)
REMARK    1  A    between atoms: C2_2  and  N1_3 
REMARK    2  A    between atoms: N1_3  and  C3_4 
REMARK       I    between atoms: N1_3  and  C7_11 
REMARK    3  A    between atoms: C7_11  and  C8_13 
REMARK    4  A    between atoms: N3_15  and  C10_18 
ROOT
ATOM      1  C8  <0> d          -1.263  -0.634   2.463  0.00  0.00     0.172 A 
ATOM      2  C9  <0> d          -1.673  -1.006   3.712  0.00  0.00     0.070 A 
ATOM      3  N3  <0> d          -0.747  -0.544   4.581  0.00  0.00    -0.217 N 
ATOM      4  N4  <0> d           0.228   0.116   3.819  0.00  0.00    -0.060 NA
ATOM      5  N5  <0> d          -0.105   0.039   2.578  0.00  0.00    -0.124 NA
ATOM      6  C19 <0> d          -2.918  -1.783   4.055  0.00  0.00     0.073 C 
ENDROOT
BRANCH   1   7
ATOM      7  C7  <0> d          -1.969  -0.925   1.201  0.00  0.00     0.277 C 
ATOM      8  N1  <0> d          -1.404  -0.600   0.022  0.00  0.00    -0.333 N 
ATOM      9  O3  <0> d          -3.061  -1.460   1.225  0.00  0.00    -0.266 OA
BRANCH   8  10
ATOM     10  C2  <0> d          -0.042  -0.060  -0.014  0.00  0.00     0.122 C 
ATOM     11  C1  <0> d          -0.090   1.457   0.178  0.00  0.00     0.026 C 
ENDBRANCH   8  10
BRANCH   8  12
ATOM     12  C3  <0> d          -2.151  -0.785  -1.225  0.00  0.00     0.189 A 
ATOM     13  C6  <0> d          -3.469  -0.041  -1.176  0.00  0.00     0.268 A 
ATOM     14  N2  <0> d          -4.464  -0.925  -1.284  0.00  0.00    -0.189 NA
ATOM     15  O2  <0> d          -3.598   1.161  -1.056  0.00  0.00    -0.269 OA
ATOM     16  C5  <0> d          -4.100  -2.166  -1.406  0.00  0.00     0.182 A 
ATOM     17  C4  <0> d          -2.589  -2.257  -1.386  0.00  0.00     0.124 A 
ATOM     18  O1  <0> d          -4.935  -3.209  -1.530  0.00  0.00    -0.175 OA
ENDBRANCH   8  12
ENDBRANCH   1   7
BRANCH   3  19
ATOM     19  C10 <0> d          -0.759  -0.694   5.971  0.00  0.00     0.072 A 
ATOM     20  C15 <0> d          -0.534   0.417   6.809  0.00  0.00     0.021 A 
ATOM     21  C14 <0> d          -0.556   0.248   8.216  0.00  0.00     0.069 A 
ATOM     22  C16 <0> d          -0.294   1.697   6.279  0.00  0.00     0.017 A 
ATOM     23  C13 <0> d          -0.790  -1.030   8.749  0.00  0.00     0.032 A 
ATOM     24  N6  <0> d          -0.349   1.301   9.014  0.00  0.00    -0.260 NA
ATOM     25  C12 <0> d          -0.999  -2.088   7.918  0.00  0.00     0.005 A 
ATOM     26  C11 <0> d          -0.985  -1.931   6.536  0.00  0.00     0.032 A 
ATOM     27  C18 <0> d          -0.114   2.493   8.523  0.00  0.00     0.117 A 
ATOM     28  C17 <0> d          -0.085   2.728   7.150  0.00  0.00     0.020 A 
ENDBRANCH   3  19
TORSDOF 4
