REMARK  3 active torsions:
REMARK  status: ('A' for Active; 'I' for Inactive)
REMARK    1  A    between atoms: C2_2  and  C3_3 
REMARK    2  A    between atoms: N1_8  and  C8_9 
REMARK    3  A    between atoms: C11_14  and  N3_20 
ROOT
ATOM      1  C8  <0> d           2.523   0.945   0.238  0.00  0.00     0.170 A 
ATOM      2  N2  <0> d           1.813   1.462  -0.741  0.00  0.00    -0.228 NA
ATOM      3  C9  <0> d           2.358   2.252  -1.663  0.00  0.00     0.053 A 
ATOM      4  C10 <0> d           3.687   2.476  -1.510  0.00  0.00     0.041 A 
ATOM      5  S1  <0> d           4.071   1.545  -0.053  0.00  0.00    -0.053 SA
ATOM      6  C11 <0> d           4.576   3.310  -2.369  0.00  0.00     0.226 C 
ATOM      7  C12 <0> d           3.690   4.190  -3.266  0.00  0.00     0.047 C 
ATOM      8  C13 <0> d           2.599   3.316  -3.891  0.00  0.00    -0.040 C 
ATOM      9  C14 <0> d           1.595   2.881  -2.821  0.00  0.00     0.069 C 
ATOM     10  C15 <0> d           1.871   4.112  -4.976  0.00  0.00     0.015 C 
ATOM     11  C16 <0> d           3.239   2.077  -4.519  0.00  0.00     0.015 C 
ENDROOT
BRANCH   1  12
ATOM     12  N1  <0> d           2.101   0.113   1.263  0.00  0.00    -0.355 N 
ATOM     13  C3  <0> d           0.724  -0.401   1.291  0.00  0.00     0.086 C 
ATOM     14  C4  <0> d           0.767  -1.927   1.414  0.00  0.00     0.025 C 
ATOM     15  C5  <0> d           1.607  -2.313   2.634  0.00  0.00     0.004 C 
ATOM     16  C6  <0> d           3.038  -1.803   2.452  0.00  0.00     0.020 C 
ATOM     17  C7  <0> d           3.021  -0.275   2.341  0.00  0.00     0.125 C 
BRANCH  13  18
ATOM     18  C2  <0> d           0.005  -0.011  -0.002  0.00  0.00     0.021 C 
ATOM     19  C1  <0> d          -1.433  -0.532   0.037  0.00  0.00     0.007 C 
ENDBRANCH  13  18
ENDBRANCH   1  12
BRANCH   6  20
ATOM     20  N3  <0> d           5.426   4.160  -1.525  0.00  0.00    -0.070 N 
ATOM     21  H26 <0> d           5.991   3.578  -0.924  0.00  0.00     0.275 HD
ATOM     22  H27 <0> d           6.026   4.722  -2.109  0.00  0.00     0.275 HD
ATOM     23  H28 <0> d           4.846   4.762  -0.961  0.00  0.00     0.275 HD
ENDBRANCH   6  20
TORSDOF 3
