REMARK  6 active torsions:
REMARK  status: ('A' for Active; 'I' for Inactive)
REMARK    1  A    between atoms: C5_5  and  C8_8 
REMARK    2  A    between atoms: C8_8  and  N5_33 
REMARK    3  A    between atoms: C12_14  and  C13_15 
REMARK    4  A    between atoms: C13_15  and  C14_16 
REMARK       I    between atoms: C14_16  and  N2_18 
REMARK    5  A    between atoms: N2_18  and  C15_19 
REMARK    6  A    between atoms: C15_19  and  C16_20 
ROOT
ATOM      1  C9  <0> d          -4.675  11.937  -2.468  0.00  0.00     0.256 C 
ATOM      2  C10 <0> d          -4.894  12.324  -3.931  0.00  0.00     0.150 C 
ATOM      3  N1  <0> d          -5.322  11.158  -4.699  0.00  0.00    -0.358 N 
ATOM      4  C11 <0> d          -5.154   9.903  -4.269  0.00  0.00     0.249 C 
ATOM      5  O1  <0> d          -5.512   8.991  -4.984  0.00  0.00    -0.271 OA
ATOM      6  C12 <0> d          -4.540   9.575  -2.937  0.00  0.00     0.288 C 
ATOM      7  H16 <0> d          -5.748  11.300  -5.558  0.00  0.00     0.162 HD
ATOM      8  N5  <0> d          -3.800  10.748  -2.435  0.00  0.00    -0.052 N 
ATOM      9  H25 <0> d          -2.985  10.914  -3.037  0.00  0.00     0.281 HD
ENDROOT
BRANCH   6  10
ATOM     10  C13 <0> d          -3.567   8.406  -3.101  0.00  0.00     0.145 C 
BRANCH  10  11
ATOM     11  C14 <0> d          -2.478   8.790  -4.069  0.00  0.00     0.220 C 
ATOM     12  O2  <0> d          -2.424   9.921  -4.503  0.00  0.00    -0.274 OA
ATOM     13  N2  <0> d          -1.563   7.877  -4.452  0.00  0.00    -0.354 N 
ATOM     14  H19 <0> d          -1.607   6.972  -4.104  0.00  0.00     0.162 HD
BRANCH  13  15
ATOM     15  C15 <0> d          -0.504   8.250  -5.392  0.00  0.00     0.201 C 
BRANCH  15  16
ATOM     16  C16 <0> d           0.379   7.057  -5.654  0.00  0.00     0.123 A 
ATOM     17  N4  <0> d           1.386   6.699  -4.913  0.00  0.00    -0.232 NA
ATOM     18  C22 <0> d           1.961   5.584  -5.433  0.00  0.00     0.085 A 
ATOM     19  C17 <0> d           1.233   5.248  -6.587  0.00  0.00     0.064 A 
ATOM     20  C21 <0> d           3.045   4.790  -5.048  0.00  0.00     0.036 A 
ATOM     21  N3  <0> d           0.238   6.199  -6.700  0.00  0.00    -0.341 N 
ATOM     22  C18 <0> d           1.598   4.137  -7.335  0.00  0.00     0.055 A 
ATOM     23  H2  <0> d          -0.456   6.247  -7.418  0.00  0.00     0.167 HD
ATOM     24  C19 <0> d           2.675   3.371  -6.940  0.00  0.00     0.036 A 
ATOM     25  C20 <0> d           3.394   3.704  -5.799  0.00  0.00     0.026 A 
ATOM     26 Cl1  <0> d           3.134   1.981  -7.873  0.00  0.00    -0.084 Cl
ENDBRANCH  15  16
ENDBRANCH  13  15
ENDBRANCH  10  11
ENDBRANCH   6  10
BRANCH   8  27
ATOM     27  C8  <0> d          -3.333  10.498  -1.052  0.00  0.00     0.274 C 
BRANCH  27  28
ATOM     28  C5  <0> d          -2.682  11.747  -0.518  0.00  0.00    -0.033 A 
ATOM     29  C4  <0> d          -3.436  12.683   0.164  0.00  0.00     0.009 A 
ATOM     30  C3  <0> d          -2.838  13.829   0.654  0.00  0.00     0.007 A 
ATOM     31  C2  <0> d          -1.486  14.039   0.463  0.00  0.00    -0.062 A 
ATOM     32  C1  <0> d          -0.834  15.288   0.997  0.00  0.00     0.048 C 
ATOM     33  C7  <0> d          -0.731  13.103  -0.219  0.00  0.00     0.007 A 
ATOM     34  C6  <0> d          -1.328  11.955  -0.705  0.00  0.00     0.009 A 
ENDBRANCH  27  28
ENDBRANCH   8  27
TORSDOF 6
