REMARK  3 active torsions:
REMARK  status: ('A' for Active; 'I' for Inactive)
REMARK    1  A    between atoms: C4_4  and  C7_7 
REMARK    2  A    between atoms: C17_18  and  C18_20 
REMARK    3  A    between atoms: C21_23  and  N3_26 
ROOT
ATOM      1  C7  <0> d           3.711  -0.707  -0.038  0.00  0.00     0.258 C 
ATOM      2  C8  <0> d           4.114  -1.067   1.405  0.00  0.00     0.078 C 
ATOM      3  C9  <0> d           3.148  -2.135   1.856  0.00  0.00    -0.040 C 
ATOM      4  C10 <0> d           2.408  -2.266   2.947  0.00  0.00    -0.005 A 
ATOM      5  C11 <0> d           2.349  -1.485   4.194  0.00  0.00     0.014 A 
ATOM      6  C12 <0> d           1.435  -1.892   5.113  0.00  0.00     0.001 A 
ATOM      7  C13 <0> d           0.583  -2.984   4.921  0.00  0.00     0.002 A 
ATOM      8  C14 <0> d           0.575  -3.764   3.811  0.00  0.00     0.030 A 
ATOM      9  C15 <0> d           1.500  -3.442   2.776  0.00  0.00     0.039 A 
ATOM     10  N1  <0> d           1.726  -4.028   1.636  0.00  0.00    -0.378 N 
ATOM     11  C16 <0> d           2.843  -3.350   0.984  0.00  0.00     0.149 C 
ATOM     12  C17 <0> d           2.483  -2.801  -0.398  0.00  0.00     0.281 C 
ATOM     13  N2  <0> d           3.576  -1.925  -0.842  0.00  0.00     0.104 N 
ATOM     14  H15 <0> d           3.481  -1.703  -1.821  0.00  0.00     0.317 HD
ATOM     15  H20 <0> d           1.236  -4.786   1.281  0.00  0.00     0.160 HD
ENDROOT
BRANCH  12  16
ATOM     16  C18 <0> d           2.317  -3.941  -1.369  0.00  0.00    -0.023 A 
ATOM     17  C23 <0> d           1.052  -4.394  -1.694  0.00  0.00     0.012 A 
ATOM     18  C22 <0> d           0.899  -5.437  -2.589  0.00  0.00     0.037 A 
ATOM     19  C21 <0> d           2.012  -6.033  -3.152  0.00  0.00     0.102 A 
ATOM     20  C20 <0> d           3.278  -5.584  -2.823  0.00  0.00     0.037 A 
ATOM     21  C19 <0> d           3.430  -4.538  -1.932  0.00  0.00     0.012 A 
BRANCH  19  22
ATOM     22  N3  <0> d           1.849  -7.152  -4.107  0.00  0.00    -0.116 N 
ATOM     23  O1  <0> d           2.822  -7.673  -4.599  0.00  0.00    -0.532 OA
ATOM     24  O2  <0> d           0.742  -7.545  -4.394  0.00  0.00    -0.532 OA
ENDBRANCH  19  22
ENDBRANCH  12  16
BRANCH   1  25
ATOM     25  C4  <0> d           2.396   0.029  -0.020  0.00  0.00    -0.025 A 
ATOM     26  C3  <0> d           2.006   0.721   1.111  0.00  0.00     0.009 A 
ATOM     27  C2  <0> d           0.800   1.397   1.127  0.00  0.00     0.001 A 
ATOM     28  C1  <0> d          -0.016   1.380   0.011  0.00  0.00     0.000 A 
ATOM     29  C6  <0> d           0.374   0.688  -1.120  0.00  0.00     0.001 A 
ATOM     30  C5  <0> d           1.579   0.011  -1.135  0.00  0.00     0.009 A 
ENDBRANCH   1  25
TORSDOF 3
