REMARK  9 active torsions:
REMARK  status: ('A' for Active; 'I' for Inactive)
REMARK    1  A    between atoms: C4_4  and  C18_24 
REMARK    2  A    between atoms: C5_5  and  C7_7 
REMARK    3  A    between atoms: C7_7  and  N1_8 
REMARK       I    between atoms: N1_8  and  C8_9 
REMARK       I    between atoms: C8_9  and  N2_11 
REMARK    4  A    between atoms: N2_11  and  C9_12 
REMARK    5  A    between atoms: C14_17  and  O2_18 
REMARK    6  A    between atoms: O2_18  and  C15_19 
REMARK    7  A    between atoms: C15_19  and  C16_20 
REMARK    8  A    between atoms: C16_20  and  C17_21 
REMARK       I    between atoms: C17_21  and  N3_23 
REMARK    9  A    between atoms: C18_24  and  N4_25 
ROOT
ATOM      1  N1  <0> d           1.508  -2.679   1.330  0.00  0.00    -0.339 N 
ATOM      2  C8  <0> d           1.560  -4.005   1.567  0.00  0.00     0.321 C 
ATOM      3  O1  <0> d           1.397  -4.792   0.655  0.00  0.00    -0.247 OA
ATOM      4  N2  <0> d           1.793  -4.457   2.815  0.00  0.00    -0.306 N 
ATOM      5  H7  <0> d           1.637  -2.051   2.058  0.00  0.00     0.164 HD
ATOM      6  H8  <0> d           1.987  -3.831   3.530  0.00  0.00     0.171 HD
ENDROOT
BRANCH   1   7
ATOM      7  C7  <0> d           1.255  -2.187  -0.026  0.00  0.00     0.163 C 
BRANCH   7   8
ATOM      8  C5  <0> d           1.246  -0.680  -0.020  0.00  0.00    -0.032 A 
ATOM      9  C4  <0> d           2.438   0.018  -0.026  0.00  0.00    -0.030 A 
ATOM     10  C3  <0> d           2.430   1.401  -0.022  0.00  0.00     0.009 A 
ATOM     11  C2  <0> d           1.229   2.085  -0.012  0.00  0.00     0.001 A 
ATOM     12  C1  <0> d           0.036   1.386  -0.006  0.00  0.00     0.001 A 
ATOM     13  C6  <0> d           0.044   0.004  -0.011  0.00  0.00     0.009 A 
BRANCH   9  14
ATOM     14  C18 <0> d           3.748  -0.727  -0.039  0.00  0.00     0.191 C 
BRANCH  14  15
ATOM     15  N4  <0> d           4.102  -1.069  -1.419  0.00  0.00    -0.258 N 
ATOM     16  N6  <0> d           3.314  -1.778  -2.339  0.00  0.00    -0.164 NA
ATOM     17  C20 <0> d           4.005  -1.858  -3.446  0.00  0.00     0.256 A 
ATOM     18  N5  <0> d           5.178  -1.251  -3.268  0.00  0.00    -0.234 NA
ATOM     19  C19 <0> d           5.250  -0.771  -2.053  0.00  0.00     0.230 A 
ENDBRANCH  14  15
ENDBRANCH   9  14
ENDBRANCH   7   8
ENDBRANCH   1   7
BRANCH   4  20
ATOM     20  C9  <0> d           1.755  -5.833   3.080  0.00  0.00     0.069 A 
ATOM     21  C14 <0> d           1.286  -6.296   4.307  0.00  0.00     0.095 A 
ATOM     22  C13 <0> d           1.245  -7.657   4.561  0.00  0.00     0.039 A 
ATOM     23  C12 <0> d           1.680  -8.553   3.602  0.00  0.00     0.003 A 
ATOM     24  C11 <0> d           2.151  -8.094   2.386  0.00  0.00     0.002 A 
ATOM     25  C10 <0> d           2.190  -6.738   2.123  0.00  0.00     0.032 A 
BRANCH  21  26
ATOM     26  O2  <0> d           0.863  -5.413   5.252  0.00  0.00    -0.348 OA
BRANCH  26  27
ATOM     27  C15 <0> d           0.395  -5.959   6.487  0.00  0.00     0.185 C 
BRANCH  27  28
ATOM     28  C16 <0> d          -0.034  -4.822   7.417  0.00  0.00     0.129 C 
BRANCH  28  29
ATOM     29  C17 <0> d          -0.527  -5.398   8.719  0.00  0.00     0.217 C 
ATOM     30  O3  <0> d          -0.535  -6.599   8.887  0.00  0.00    -0.274 OA
ATOM     31  N3  <0> d          -0.960  -4.578   9.697  0.00  0.00    -0.370 N 
ATOM     32  H17 <0> d          -0.954  -3.618   9.563  0.00  0.00     0.159 HD
ATOM     33  H18 <0> d          -1.278  -4.949  10.535  0.00  0.00     0.159 HD
ENDBRANCH  28  29
ENDBRANCH  27  28
ENDBRANCH  26  27
ENDBRANCH  21  26
ENDBRANCH   4  20
TORSDOF 9
