REMARK  7 active torsions:
REMARK  status: ('A' for Active; 'I' for Inactive)
REMARK    1  A    between atoms: C5_6  and  S1_10 
REMARK    2  A    between atoms: S1_10  and  C8_11 
REMARK    3  A    between atoms: C8_11  and  C9_12 
REMARK       I    between atoms: C9_12  and  N3_14 
REMARK    4  A    between atoms: N3_14  and  C10_15 
REMARK    5  A    between atoms: C11_18  and  S3_20 
REMARK    6  A    between atoms: S3_20  and  C12_21 
REMARK    7  A    between atoms: C12_21  and  C13_22 
REMARK       I    between atoms: C13_22  and  N6_24 
ROOT
ATOM      1  C9  <0> d           3.313  -2.560  -4.211  0.00  0.00     0.233 C 
ATOM      2  O1  <0> d           4.002  -3.557  -4.234  0.00  0.00    -0.272 OA
ATOM      3  N3  <0> d           2.897  -2.000  -5.364  0.00  0.00    -0.304 N 
ATOM      4  H8  <0> d           2.346  -1.202  -5.346  0.00  0.00     0.171 HD
ENDROOT
BRANCH   1   5
ATOM      5  C8  <0> d           2.921  -1.946  -2.892  0.00  0.00     0.180 C 
BRANCH   5   6
ATOM      6  S1  <0> d           3.629  -2.921  -1.536  0.00  0.00    -0.114 SA
BRANCH   6   7
ATOM      7  C5  <0> d           3.071  -2.062  -0.039  0.00  0.00     0.247 A 
ATOM      8  N1  <0> d           3.569  -0.680  -0.036  0.00  0.00    -0.359 N 
ATOM      9  C4  <0> d           2.533   0.108  -0.022  0.00  0.00     0.057 A 
ATOM     10  H13 <0> d           4.499  -0.405  -0.045  0.00  0.00     0.162 HD
ATOM     11  C3  <0> d           2.389   1.570  -0.013  0.00  0.00     0.031 A 
ATOM     12  C6  <0> d           1.290  -0.712  -0.014  0.00  0.00     0.057 A 
ATOM     13  C2  <0> d           1.158   2.118   0.002  0.00  0.00     0.002 A 
ATOM     14  C1  <0> d          -0.016   1.344   0.009  0.00  0.00     0.002 A 
ATOM     15  C7  <0> d           0.002  -0.004   0.002  0.00  0.00     0.031 A 
ATOM     16  N2  <0> d           1.606  -1.974  -0.024  0.00  0.00    -0.359 N 
ATOM     17  H14 <0> d           0.987  -2.721  -0.022  0.00  0.00     0.162 HD
ENDBRANCH   6   7
ENDBRANCH   5   6
ENDBRANCH   1   5
BRANCH   3  18
ATOM     18  C10 <0> d           3.260  -2.568  -6.584  0.00  0.00     0.197 A 
ATOM     19  S2  <0> d           2.865  -2.057  -8.254  0.00  0.00    -0.022 SA
ATOM     20  C11 <0> d           3.758  -3.376  -9.072  0.00  0.00     0.160 A 
ATOM     21  N5  <0> d           4.226  -4.026  -8.016  0.00  0.00    -0.133 NA
ATOM     22  N4  <0> d           3.989  -3.642  -6.838  0.00  0.00    -0.122 NA
BRANCH  20  23
ATOM     23  S3  <0> d           3.954  -3.715 -10.790  0.00  0.00    -0.092 SA
BRANCH  23  24
ATOM     24  C12 <0> d           4.978  -5.212 -10.827  0.00  0.00     0.184 C 
BRANCH  24  25
ATOM     25  C13 <0> d           5.224  -5.617 -12.258  0.00  0.00     0.225 C 
ATOM     26  O2  <0> d           4.755  -4.960 -13.163  0.00  0.00    -0.273 OA
ATOM     27  N6  <0> d           5.965  -6.708 -12.531  0.00  0.00    -0.369 N 
ATOM     28  H11 <0> d           6.340  -7.234 -11.807  0.00  0.00     0.159 HD
ATOM     29  H12 <0> d           6.124  -6.969 -13.452  0.00  0.00     0.159 HD
ENDBRANCH  24  25
ENDBRANCH  23  24
ENDBRANCH  20  23
ENDBRANCH   3  18
TORSDOF 7
