REMARK  6 active torsions:
REMARK  status: ('A' for Active; 'I' for Inactive)
REMARK    1  A    between atoms: N1_2  and  C3_4 
REMARK    2  A    between atoms: C4_5  and  C8_10 
REMARK    3  A    between atoms: C8_10  and  N3_11 
REMARK       I    between atoms: N3_11  and  C9_12 
REMARK       I    between atoms: C9_12  and  N4_14 
REMARK    4  A    between atoms: N4_14  and  N5_15 
REMARK    5  A    between atoms: N5_15  and  C10_16 
REMARK    6  A    between atoms: C13_19  and  N8_22 
ROOT
ATOM      1  N3  <0> d          -1.689  -2.816   0.650  0.00  0.00    -0.337 N 
ATOM      2  C9  <0> d          -2.053  -3.378   1.819  0.00  0.00     0.335 C 
ATOM      3  O1  <0> d          -1.216  -3.899   2.531  0.00  0.00    -0.246 OA
ATOM      4  N4  <0> d          -3.346  -3.364   2.200  0.00  0.00    -0.250 N 
ATOM      5  H12 <0> d          -2.357  -2.400   0.083  0.00  0.00     0.164 HD
ATOM      6  H13 <0> d          -3.608  -3.769   3.042  0.00  0.00     0.192 HD
ENDROOT
BRANCH   1   7
ATOM      7  C8  <0> d          -0.283  -2.831   0.236  0.00  0.00     0.166 C 
BRANCH   7   8
ATOM      8  C4  <0> d          -0.145  -2.143  -1.097  0.00  0.00     0.004 A 
ATOM      9  C3  <0> d          -0.143  -0.753  -1.176  0.00  0.00     0.110 A 
ATOM     10  N2  <0> d          -0.027  -0.146  -2.347  0.00  0.00    -0.352 N 
ATOM     11  C7  <0> d           0.102  -0.826  -3.470  0.00  0.00     0.089 A 
ATOM     12  H20 <0> d          -0.032   0.824  -2.379  0.00  0.00     0.166 HD
ATOM     13  C6  <0> d           0.109  -2.206  -3.465  0.00  0.00     0.018 A 
ATOM     14  C5  <0> d          -0.017  -2.883  -2.258  0.00  0.00     0.014 A 
BRANCH   9  15
ATOM     15  N1  <0> d          -0.271   0.003  -0.017  0.00  0.00    -0.376 N 
ATOM     16  C1  <0> d          -1.595   0.450   0.424  0.00  0.00     0.150 C 
ATOM     17  C2  <0> d           0.918   0.353   0.764  0.00  0.00     0.150 C 
ENDBRANCH   9  15
ENDBRANCH   7   8
ENDBRANCH   1   7
BRANCH   4  18
ATOM     18  N5  <0> d          -4.311  -2.764   1.381  0.00  0.00    -0.279 N 
ATOM     19  H14 <0> d          -4.049  -2.359   0.540  0.00  0.00     0.189 HD
BRANCH  18  20
ATOM     20  C10 <0> d          -5.646  -2.749   1.774  0.00  0.00     0.164 A 
ATOM     21  N7  <0> d          -6.006  -3.301   2.922  0.00  0.00    -0.129 NA
ATOM     22  N6  <0> d          -7.224  -3.306   3.326  0.00  0.00    -0.128 NA
ATOM     23  C13 <0> d          -8.203  -2.769   2.618  0.00  0.00     0.172 A 
ATOM     24  C12 <0> d          -7.924  -2.167   1.391  0.00  0.00     0.058 A 
ATOM     25  C11 <0> d          -6.609  -2.157   0.957  0.00  0.00     0.057 A 
BRANCH  23  26
ATOM     26  N8  <0> d          -9.517  -2.804   3.099  0.00  0.00    -0.225 N 
ATOM     27  N9  <0> d         -10.645  -2.276   2.457  0.00  0.00    -0.179 NA
ATOM     28  C16 <0> d         -11.690  -2.505   3.211  0.00  0.00     0.141 A 
ATOM     29  C15 <0> d         -11.264  -3.176   4.362  0.00  0.00     0.040 A 
ATOM     30  C14 <0> d          -9.925  -3.350   4.273  0.00  0.00     0.122 A 
ENDBRANCH  23  26
ENDBRANCH  18  20
ENDBRANCH   4  18
TORSDOF 6
