REMARK  5 active torsions:
REMARK  status: ('A' for Active; 'I' for Inactive)
REMARK    1  A    between atoms: C3_3  and  C7_9 
REMARK    2  A    between atoms: C7_9  and  N3_11 
REMARK       I    between atoms: N3_11  and  C9_12 
REMARK    3  A    between atoms: C9_12  and  C10_14 
REMARK    4  A    between atoms: C13_17  and  C16_20 
REMARK    5  A    between atoms: C16_20  and  S1_21 
ROOT
ATOM      1  N3  <0> d           0.955   0.751  -2.726  0.00  0.00    -0.348 N 
ATOM      2  C9  <0> d           1.494   1.003  -3.936  0.00  0.00     0.252 C 
ATOM      3  O1  <0> d           1.183   0.322  -4.893  0.00  0.00    -0.268 OA
ATOM      4  H14 <0> d           1.203   1.295  -1.962  0.00  0.00     0.163 HD
ENDROOT
BRANCH   2   5
ATOM      5  C10 <0> d           2.463   2.107  -4.098  0.00  0.00     0.032 A 
ATOM      6  C15 <0> d           3.023   2.370  -5.349  0.00  0.00     0.017 A 
ATOM      7  C14 <0> d           3.923   3.406  -5.495  0.00  0.00     0.009 A 
ATOM      8  C13 <0> d           4.279   4.176  -4.401  0.00  0.00    -0.044 A 
ATOM      9  C12 <0> d           3.732   3.916  -3.157  0.00  0.00     0.009 A 
ATOM     10  C11 <0> d           2.826   2.888  -2.999  0.00  0.00     0.017 A 
BRANCH   8  11
ATOM     11  C16 <0> d           5.267   5.301  -4.566  0.00  0.00     0.178 C 
BRANCH  11  12
ATOM     12  S1  <0> d           6.948   4.676  -4.293  0.00  0.00     0.144 S 
ATOM     13  O2  <0> d           7.060   4.267  -2.936  0.00  0.00    -0.228 OA
ATOM     14  O3  <0> d           7.255   3.746  -5.322  0.00  0.00    -0.228 OA
ATOM     15  C17 <0> d           7.970   6.155  -4.532  0.00  0.00     0.161 C 
ENDBRANCH  11  12
ENDBRANCH   8  11
ENDBRANCH   2   5
BRANCH   1  16
ATOM     16  C7  <0> d          -0.006  -0.343  -2.566  0.00  0.00     0.118 C 
ATOM     17  C8  <0> d          -1.408   0.152  -2.925  0.00  0.00     0.037 C 
BRANCH  16  18
ATOM     18  C3  <0> d           0.008  -0.818  -1.135  0.00  0.00     0.014 A 
ATOM     19  C2  <0> d           0.002  -0.004   0.002  0.00  0.00     0.061 A 
ATOM     20  C1  <0> d          -0.018   1.503   0.010  0.00  0.00     0.073 C 
ATOM     21  N2  <0> d           0.023  -0.777   1.058  0.00  0.00    -0.177 NA
ATOM     22  N1  <0> d           0.034  -2.109   0.625  0.00  0.00    -0.278 N 
ATOM     23  C4  <0> d           0.028  -2.107  -0.725  0.00  0.00     0.036 A 
ATOM     24  C5  <0> d           0.055  -3.295   1.485  0.00  0.00     0.179 C 
ATOM     25  C6  <0> d           0.040  -3.323  -1.615  0.00  0.00     0.070 C 
ENDBRANCH  16  18
ENDBRANCH   1  16
TORSDOF 5
