REMARK  3 active torsions:
REMARK  status: ('A' for Active; 'I' for Inactive)
REMARK    1  A    between atoms: C6_6  and  C7_7 
REMARK    2  A    between atoms: C7_7  and  C8_8 
REMARK    3  A    between atoms: C7_7  and  N1_16 
ROOT
ATOM      1  C7  <0> d          -1.294  -0.773   0.011  0.00  0.00     0.249 C 
ENDROOT
BRANCH   1   2
ATOM      2  C6  <0> d           0.002  -0.004   0.002  0.00  0.00    -0.021 A 
ATOM      3  C1  <0> d          -0.017   1.378   0.010  0.00  0.00     0.012 A 
ATOM      4  C2  <0> d           1.169   2.091   0.002  0.00  0.00     0.040 A 
ATOM      5  C3  <0> d           2.378   1.419  -0.013  0.00  0.00     0.096 A 
ATOM      6  O2  <0> d           3.552   2.104  -0.020  0.00  0.00    -0.340 OA
ATOM      7  C4  <0> d           2.397   0.025  -0.021  0.00  0.00     0.069 A 
ATOM      8  C15 <0> d           4.655   1.496   0.659  0.00  0.00     0.278 C 
ATOM      9  C14 <0> d           4.751   0.043   0.269  0.00  0.00     0.246 C 
ATOM     10  N2  <0> d           3.629  -0.644  -0.038  0.00  0.00    -0.323 N 
ATOM     11  O1  <0> d           5.831  -0.507   0.231  0.00  0.00    -0.271 OA
ATOM     12  H10 <0> d           3.675  -1.586  -0.267  0.00  0.00     0.169 HD
ATOM     13  C5  <0> d           1.207  -0.684  -0.013  0.00  0.00     0.042 A 
ENDBRANCH   1   2
BRANCH   1  14
ATOM     14  C8  <0> d          -1.838  -0.825   1.416  0.00  0.00    -0.021 A 
ATOM     15  C13 <0> d          -1.656  -1.958   2.185  0.00  0.00     0.053 A 
ATOM     16  C12 <0> d          -2.150  -2.003   3.478  0.00  0.00     0.134 A 
ATOM     17  C11 <0> d          -2.837  -0.916   3.994  0.00  0.00     0.049 A 
ATOM     18  F1  <0> d          -1.967  -3.108   4.233  0.00  0.00    -0.205 F 
ATOM     19  C10 <0> d          -3.023   0.214   3.219  0.00  0.00     0.023 A 
ATOM     20 Br1  <0> d          -3.519  -0.978   5.756  0.00  0.00    -0.048 Br
ATOM     21  C9  <0> d          -2.523   0.260   1.931  0.00  0.00     0.011 A 
ENDBRANCH   1  14
BRANCH   1  22
ATOM     22  N1  <0> d          -2.265  -0.106  -0.866  0.00  0.00    -0.067 N 
ATOM     23  H8  <0> d          -3.133  -0.620  -0.860  0.00  0.00     0.275 HD
ATOM     24  H9  <0> d          -2.429   0.833  -0.534  0.00  0.00     0.275 HD
ATOM     25  H13 <0> d          -1.901  -0.071  -1.806  0.00  0.00     0.275 HD
ENDBRANCH   1  22
TORSDOF 3
