REMARK  5 active torsions:
REMARK  status: ('A' for Active; 'I' for Inactive)
REMARK    1  A    between atoms: C4_4  and  N4_21 
REMARK    2  A    between atoms: C6_6  and  S1_9 
REMARK    3  A    between atoms: S1_9  and  N1_12 
REMARK    4  A    between atoms: N1_12  and  C10_14 
REMARK    5  A    between atoms: C10_14  and  C11_15 
ROOT
ATOM      1  S1  <0> d           0.069  -2.950   2.745  0.00  0.00     0.261 S 
ATOM      2  O1  <0> d          -0.964  -2.548   3.635  0.00  0.00    -0.200 OA
ATOM      3  O2  <0> d           0.128  -4.255   2.186  0.00  0.00    -0.200 OA
ENDROOT
BRANCH   1   4
ATOM      4  C6  <0> d           0.033  -1.823   1.391  0.00  0.00     0.088 A 
ATOM      5  C5  <0> d           0.919  -0.764   1.351  0.00  0.00     0.054 A 
ATOM      6  C4  <0> d           0.891   0.123   0.282  0.00  0.00     0.027 A 
ATOM      7  C3  <0> d          -0.029  -0.058  -0.742  0.00  0.00     0.036 A 
ATOM      8  C2  <0> d          -0.913  -1.118  -0.696  0.00  0.00    -0.052 A 
ATOM      9  C1  <0> d          -1.912  -1.315  -1.806  0.00  0.00     0.049 C 
ATOM     10  C7  <0> d          -0.885  -1.997   0.372  0.00  0.00    -0.033 A 
ATOM     11  C8  <0> d          -1.855  -3.150   0.422  0.00  0.00     0.050 C 
BRANCH   6  12
ATOM     12  N4  <0> d           1.786   1.194   0.239  0.00  0.00    -0.399 N 
ATOM     13  H19 <0> d           1.765   1.813  -0.508  0.00  0.00     0.156 HD
ATOM     14  H20 <0> d           2.428   1.320   0.955  0.00  0.00     0.156 HD
ENDBRANCH   6  12
ENDBRANCH   1   4
BRANCH   1  15
ATOM     15  N1  <0> d           1.500  -2.711   3.543  0.00  0.00    -0.307 N 
ATOM     16  C9  <0> d           1.613  -1.647   4.544  0.00  0.00     0.163 C 
BRANCH  15  17
ATOM     17  C10 <0> d           2.655  -3.564   3.248  0.00  0.00     0.176 C 
BRANCH  17  18
ATOM     18  C11 <0> d           3.528  -2.889   2.222  0.00  0.00    -0.003 A 
ATOM     19  C13 <0> d           4.554  -2.046   2.481  0.00  0.00     0.122 A 
ATOM     20  N3  <0> d           5.080  -1.663   1.299  0.00  0.00    -0.285 N 
ATOM     21  N2  <0> d           4.348  -2.284   0.279  0.00  0.00    -0.185 NA
ATOM     22  C14 <0> d           6.214  -0.753   1.114  0.00  0.00     0.179 C 
ATOM     23  C12 <0> d           3.418  -3.018   0.834  0.00  0.00     0.149 A 
ENDBRANCH  17  18
ENDBRANCH  15  17
ENDBRANCH   1  15
TORSDOF 5
