REMARK  3 active torsions:
REMARK  status: ('A' for Active; 'I' for Inactive)
REMARK    1  A    between atoms: C2_2  and  C3_3 
REMARK    2  A    between atoms: C6_6  and  C7_8 
REMARK    3  A    between atoms: C14_17  and  N3_18 
ROOT
ATOM      1  C7  <0> d           1.746  -1.799  -5.045  0.00  0.00     0.166 A 
ATOM      2  N1  <0> d           2.970  -2.126  -5.448  0.00  0.00    -0.240 NA
ATOM      3  C8  <0> d           3.183  -2.528  -6.686  0.00  0.00     0.130 A 
ATOM      4  C9  <0> d           2.113  -2.611  -7.573  0.00  0.00     0.014 A 
ATOM      5  C10 <0> d           0.855  -2.269  -7.124  0.00  0.00     0.047 A 
ATOM      6  N2  <0> d           0.706  -1.873  -5.866  0.00  0.00    -0.232 NA
ATOM      7  C11 <0> d          -0.365  -2.340  -8.002  0.00  0.00     0.069 C 
ATOM      8  C12 <0> d           0.038  -2.393  -9.475  0.00  0.00    -0.040 C 
ATOM      9  C13 <0> d           1.079  -3.505  -9.655  0.00  0.00     0.046 C 
ATOM     10  C14 <0> d           2.379  -3.065  -8.982  0.00  0.00     0.220 C 
ATOM     11  C15 <0> d          -1.191  -2.696 -10.334  0.00  0.00     0.015 C 
ATOM     12  C16 <0> d           0.643  -1.051  -9.890  0.00  0.00     0.015 C 
ENDROOT
BRANCH   1  13
ATOM     13  C6  <0> d           1.539  -1.350  -3.656  0.00  0.00     0.053 A 
ATOM     14  C5  <0> d           2.458  -1.200  -2.650  0.00  0.00     0.024 A 
ATOM     15  C4  <0> d           2.027  -0.761  -1.420  0.00  0.00     0.016 A 
ATOM     16  C3  <0> d           0.707  -0.490  -1.238  0.00  0.00    -0.017 A 
ATOM     17  S1  <0> d           0.024  -0.865  -2.844  0.00  0.00    -0.091 SA
BRANCH  16  18
ATOM     18  C2  <0> d           0.002  -0.004   0.002  0.00  0.00     0.041 C 
ATOM     19  C1  <0> d          -0.019   1.526   0.010  0.00  0.00     0.010 C 
ENDBRANCH  16  18
ENDBRANCH   1  13
BRANCH  10  20
ATOM     20  N3  <0> d           3.320  -4.193  -8.959  0.00  0.00    -0.071 N 
ATOM     21  H14 <0> d           2.921  -4.953  -8.429  0.00  0.00     0.275 HD
ATOM     22  H15 <0> d           3.500  -4.500  -9.903  0.00  0.00     0.275 HD
ATOM     23  H22 <0> d           4.185  -3.900  -8.530  0.00  0.00     0.275 HD
ENDBRANCH  10  20
TORSDOF 3
