REMARK  6 active torsions:
REMARK  status: ('A' for Active; 'I' for Inactive)
REMARK    1  A    between atoms: C2_2  and  C3_3 
REMARK    2  A    between atoms: C2_2  and  N2_8 
REMARK    3  A    between atoms: C3_3  and  C4_4 
REMARK    4  A    between atoms: C4_4  and  N1_5 
REMARK       I    between atoms: N2_8  and  C7_9 
REMARK       I    between atoms: C7_9  and  N3_11 
REMARK    5  A    between atoms: N3_11  and  C9_13 
REMARK    6  A    between atoms: N4_16  and  C14_19 
ROOT
ATOM      1  N2  <0> d           0.711  -0.489   1.189  0.00  0.00    -0.339 N 
ATOM      2  C7  <0> d           0.051  -0.633   2.355  0.00  0.00     0.318 C 
ATOM      3  O1  <0> d          -1.132  -0.361   2.423  0.00  0.00    -0.247 OA
ATOM      4  N3  <0> d           0.703  -1.080   3.447  0.00  0.00    -0.334 N 
ATOM      5  C8  <0> d           2.128  -1.409   3.366  0.00  0.00     0.155 C 
ATOM      6  H15 <0> d           1.654  -0.707   1.135  0.00  0.00     0.164 HD
ENDROOT
BRANCH   4   7
ATOM      7  C9  <0> d          -0.014  -1.237   4.715  0.00  0.00     0.091 C 
ATOM      8  C13 <0> d           0.054  -2.699   5.165  0.00  0.00     0.053 C 
ATOM      9  C12 <0> d          -0.628  -2.840   6.527  0.00  0.00     0.237 C 
ATOM     10  N4  <0> d           0.057  -1.993   7.511  0.00  0.00    -0.067 N 
ATOM     11  C11 <0> d          -0.066  -0.582   7.124  0.00  0.00     0.237 C 
ATOM     12  H38 <0> d           1.033  -2.246   7.550  0.00  0.00     0.280 HD
ATOM     13  C10 <0> d           0.637  -0.354   5.784  0.00  0.00     0.053 C 
BRANCH  10  14
ATOM     14  C14 <0> d          -0.551  -2.191   8.833  0.00  0.00     0.192 C 
ATOM     15  C18 <0> d          -0.425  -3.662   9.240  0.00  0.00     0.059 C 
ATOM     16  C17 <0> d          -0.990  -3.844  10.651  0.00  0.00     0.169 C 
ATOM     17  O2  <0> d          -0.292  -2.986  11.556  0.00  0.00    -0.391 OA
ATOM     18  C16 <0> d          -0.414  -1.595  11.253  0.00  0.00     0.169 C 
ATOM     19  C15 <0> d           0.174  -1.323   9.866  0.00  0.00     0.059 C 
ENDBRANCH  10  14
ENDBRANCH   4   7
BRANCH   1  20
ATOM     20  C2  <0> d           0.002  -0.004   0.002  0.00  0.00     0.083 C 
ATOM     21  C1  <0> d          -0.019   1.526   0.010  0.00  0.00     0.032 C 
BRANCH  20  22
ATOM     22  C3  <0> d           0.718  -0.497  -1.257  0.00  0.00     0.052 C 
BRANCH  22  23
ATOM     23  C4  <0> d           0.630  -2.023  -1.329  0.00  0.00     0.236 C 
BRANCH  23  24
ATOM     24  N1  <0> d           1.318  -2.497  -2.537  0.00  0.00    -0.079 N 
ATOM     25  C5  <0> d           1.338  -3.966  -2.545  0.00  0.00     0.269 C 
ATOM     26  C6  <0> d           0.607  -2.010  -3.727  0.00  0.00     0.269 C 
ATOM     27  H37 <0> d           2.264  -2.148  -2.544  0.00  0.00     0.278 HD
ENDBRANCH  23  24
ENDBRANCH  22  23
ENDBRANCH  20  22
ENDBRANCH   1  20
TORSDOF 6
