REMARK  6 active torsions:
REMARK  status: ('A' for Active; 'I' for Inactive)
REMARK    1  A    between atoms: C5_7  and  N3_11 
REMARK       I    between atoms: N3_11  and  C9_12 
REMARK    2  A    between atoms: C9_12  and  C10_14 
REMARK    3  A    between atoms: C10_14  and  C11_15 
REMARK    4  A    between atoms: C11_15  and  N4_16 
REMARK       I    between atoms: N4_16  and  C12_17 
REMARK    5  A    between atoms: C12_17  and  C13_19 
REMARK    6  A    between atoms: C14_20  and  C15_21 
ROOT
ATOM      1  N3  <0> d          -0.906  -4.283  -1.109  0.00  0.00    -0.352 N 
ATOM      2  C9  <0> d          -0.513  -5.173  -0.178  0.00  0.00     0.219 C 
ATOM      3  O1  <0> d           0.619  -5.137   0.257  0.00  0.00    -0.274 OA
ATOM      4  H12 <0> d          -1.812  -4.312  -1.456  0.00  0.00     0.163 HD
ENDROOT
BRANCH   2   5
ATOM      5  C10 <0> d          -1.479  -6.215   0.325  0.00  0.00     0.122 C 
BRANCH   5   6
ATOM      6  C11 <0> d          -0.785  -7.093   1.369  0.00  0.00     0.132 C 
BRANCH   6   7
ATOM      7  N4  <0> d          -1.725  -8.106   1.857  0.00  0.00    -0.357 N 
ATOM      8  C12 <0> d          -1.331  -8.996   2.789  0.00  0.00     0.241 C 
ATOM      9  O2  <0> d          -0.195  -8.959   3.225  0.00  0.00    -0.269 OA
ATOM     10  H17 <0> d          -2.630  -8.135   1.510  0.00  0.00     0.162 HD
BRANCH   8  11
ATOM     11  C13 <0> d          -2.239  -9.975   3.260  0.00  0.00     0.077 C 
ATOM     12  C14 <0> d          -1.843 -10.871   4.198  0.00  0.00     0.042 C 
BRANCH  12  13
ATOM     13  C15 <0> d          -2.751 -11.850   4.670  0.00  0.00     0.075 A 
ATOM     14  O3  <0> d          -4.032 -12.002   4.275  0.00  0.00    -0.323 OA
ATOM     15  C18 <0> d          -4.582 -13.032   4.934  0.00  0.00     0.142 A 
ATOM     16  C17 <0> d          -3.664 -13.558   5.775  0.00  0.00     0.027 A 
ATOM     17  C16 <0> d          -2.485 -12.814   5.620  0.00  0.00     0.039 A 
ENDBRANCH  12  13
ENDBRANCH   8  11
ENDBRANCH   6   7
ENDBRANCH   5   6
ENDBRANCH   2   5
BRANCH   1  18
ATOM     18  C5  <0> d           0.033  -3.270  -1.598  0.00  0.00     0.121 C 
ATOM     19  C3  <0> d           0.025  -2.081  -0.670  0.00  0.00     0.008 A 
ATOM     20  C2  <0> d           0.008  -0.789  -1.088  0.00  0.00     0.040 A 
ATOM     21  C4  <0> d           0.032  -2.082   0.723  0.00  0.00     0.150 A 
ATOM     22  N1  <0> d           0.002  -0.004   0.002  0.00  0.00    -0.278 N 
ATOM     23  C8  <0> d          -0.001  -0.369  -2.536  0.00  0.00     0.059 C 
ATOM     24  C1  <0> d          -0.018   1.461   0.010  0.00  0.00     0.179 C 
ATOM     25  N2  <0> d           0.025  -0.837   1.131  0.00  0.00    -0.184 NA
ATOM     26  C7  <0> d           0.427  -1.569  -3.391  0.00  0.00     0.008 C 
ATOM     27  C6  <0> d          -0.395  -2.798  -2.993  0.00  0.00     0.030 C 
ENDBRANCH   1  18
TORSDOF 6
