REMARK  4 active torsions:
REMARK  status: ('A' for Active; 'I' for Inactive)
REMARK    1  A    between atoms: C7_8  and  N3_13 
REMARK    2  A    between atoms: C8_9  and  N2_12 
REMARK    3  A    between atoms: N3_13  and  C10_14 
REMARK    4  A    between atoms: C10_14  and  C11_15 
ROOT
ATOM      1  C1  <0> d          -0.234   0.910   1.756  0.00  0.00     0.021 A 
ATOM      2  C2  <0> d           0.741   1.852   1.641  0.00  0.00     0.032 A 
ATOM      3  C3  <0> d           2.075   1.455   1.445  0.00  0.00     0.044 A 
ATOM      4  C4  <0> d           2.378   0.073   1.371  0.00  0.00     0.021 A 
ATOM      5  C5  <0> d           1.349  -0.871   1.494  0.00  0.00     0.035 A 
ATOM      6  C6  <0> d           0.066  -0.449   1.683  0.00  0.00     0.011 A 
ATOM      7 Br1  <0> d          -1.321  -1.723   1.848  0.00  0.00    -0.051 Br
ATOM      8  C7  <0> d           3.720  -0.325   1.174  0.00  0.00     0.068 A 
ATOM      9  C8  <0> d           4.684   0.671   1.062  0.00  0.00     0.069 A 
ATOM     10  C9  <0> d           4.303   2.009   1.145  0.00  0.00     0.119 A 
ATOM     11  N1  <0> d           3.052   2.362   1.329  0.00  0.00    -0.363 N 
ATOM     12  H17 <0> d           2.830   3.304   1.382  0.00  0.00     0.165 HD
ENDROOT
BRANCH   8  13
ATOM     13  N3  <0> d           4.065  -1.670   1.095  0.00  0.00    -0.387 N 
ATOM     14  H8  <0> d           3.380  -2.339   0.938  0.00  0.00     0.159 HD
BRANCH  13  15
ATOM     15  C10 <0> d           5.464  -2.078   1.248  0.00  0.00     0.126 C 
BRANCH  15  16
ATOM     16  C11 <0> d           5.522  -3.519   1.758  0.00  0.00     0.029 C 
ATOM     17  C14 <0> d           5.023  -3.607   3.216  0.00  0.00     0.173 C 
ATOM     18  O1  <0> d           5.885  -4.520   3.912  0.00  0.00    -0.391 OA
ATOM     19  C13 <0> d           6.864  -5.057   3.008  0.00  0.00     0.168 C 
ATOM     20  C12 <0> d           6.993  -4.003   1.879  0.00  0.00     0.034 C 
ENDBRANCH  15  16
ENDBRANCH  13  15
ENDBRANCH   8  13
BRANCH   9  21
ATOM     21  N2  <0> d           6.030   0.331   0.865  0.00  0.00    -0.396 N 
ATOM     22  H6  <0> d           6.261  -0.455   0.347  0.00  0.00     0.156 HD
ATOM     23  H7  <0> d           6.730   0.882   1.249  0.00  0.00     0.156 HD
ENDBRANCH   9  21
TORSDOF 4
