REMARK  4 active torsions:
REMARK  status: ('A' for Active; 'I' for Inactive)
REMARK    1  A    between atoms: C6_6  and  N1_9 
REMARK    2  A    between atoms: N2_12  and  S1_15 
REMARK    3  A    between atoms: S1_15  and  C13_18 
REMARK    4  A    between atoms: C16_21  and  C17_23 
ROOT
ATOM      1  S1  <0> d           0.113  -5.910   5.333  0.00  0.00     0.283 S 
ATOM      2  O1  <0> d           1.355  -5.619   5.959  0.00  0.00    -0.198 OA
ATOM      3  O2  <0> d          -1.136  -5.662   5.965  0.00  0.00    -0.198 OA
ENDROOT
BRANCH   1   4
ATOM      4  N2  <0> d           0.094  -5.071   3.905  0.00  0.00    -0.302 N 
ATOM      5  C10 <0> d          -1.179  -4.714   3.263  0.00  0.00     0.155 C 
ATOM      6  C9  <0> d          -1.205  -3.197   3.038  0.00  0.00     0.143 C 
ATOM      7  N1  <0> d           0.051  -2.796   2.390  0.00  0.00    -0.377 N 
ATOM      8  C12 <0> d           1.324  -3.159   3.029  0.00  0.00     0.143 C 
ATOM      9  C11 <0> d           1.351  -4.670   3.257  0.00  0.00     0.155 C 
BRANCH   7  10
ATOM     10  C6  <0> d           0.036  -2.089   1.186  0.00  0.00     0.036 A 
ATOM     11  C5  <0> d           0.039  -2.773  -0.023  0.00  0.00     0.030 A 
ATOM     12  C4  <0> d           0.024  -2.071  -1.212  0.00  0.00     0.003 A 
ATOM     13  C3  <0> d           0.006  -0.688  -1.200  0.00  0.00     0.007 A 
ATOM     14  C2  <0> d           0.002  -0.004   0.002  0.00  0.00    -0.054 A 
ATOM     15  C1  <0> d          -0.018   1.503   0.010  0.00  0.00     0.049 C 
ATOM     16  C7  <0> d           0.023  -0.700   1.194  0.00  0.00    -0.029 A 
ATOM     17  C8  <0> d           0.025   0.046   2.504  0.00  0.00     0.051 C 
ENDBRANCH   7  10
ENDBRANCH   1   4
BRANCH   1  18
ATOM     18  C13 <0> d           0.141  -7.625   4.930  0.00  0.00     0.190 A 
ATOM     19  O3  <0> d          -0.938  -8.406   4.754  0.00  0.00    -0.295 OA
ATOM     20  C16 <0> d          -0.540  -9.657   4.454  0.00  0.00     0.107 A 
ATOM     21  C15 <0> d           0.820  -9.679   4.447  0.00  0.00     0.043 A 
ATOM     22  C14 <0> d           1.248  -8.372   4.752  0.00  0.00     0.054 A 
BRANCH  20  23
ATOM     23  C17 <0> d          -1.427 -10.808   4.186  0.00  0.00     0.111 A 
ATOM     24  N4  <0> d          -0.909 -11.984   3.909  0.00  0.00    -0.169 NA
ATOM     25  N3  <0> d          -1.637 -13.015   3.674  0.00  0.00    -0.243 N 
ATOM     26  C20 <0> d          -2.981 -12.952   3.686  0.00  0.00     0.261 A 
ATOM     27  H1  <0> d          -1.206 -13.862   3.479  0.00  0.00     0.192 HD
ATOM     28  C19 <0> d          -3.619 -11.723   3.970  0.00  0.00     0.078 A 
ATOM     29  O4  <0> d          -3.645 -13.949   3.454  0.00  0.00    -0.267 OA
ATOM     30  C18 <0> d          -2.833 -10.639   4.222  0.00  0.00     0.042 A 
ENDBRANCH  20  23
ENDBRANCH   1  18
TORSDOF 4
