REMARK  6 active torsions:
REMARK  status: ('A' for Active; 'I' for Inactive)
REMARK    1  A    between atoms: C2_2  and  C3_3 
REMARK    2  A    between atoms: C2_2  and  N2_19 
REMARK    3  A    between atoms: C8_8  and  N1_9 
REMARK    4  A    between atoms: N1_9  and  S1_10 
REMARK    5  A    between atoms: S1_10  and  C9_13 
REMARK    6  A    between atoms: C9_13  and  C10_14 
ROOT
ATOM      1  C3  <0> d           0.731  -0.503   1.223  0.00  0.00     0.001 A 
ATOM      2  C4  <0> d           2.076  -0.808   1.149  0.00  0.00     0.011 A 
ATOM      3  C5  <0> d           2.745  -1.267   2.268  0.00  0.00     0.001 A 
ATOM      4  C6  <0> d           2.071  -1.421   3.466  0.00  0.00     0.002 A 
ATOM      5  C7  <0> d           0.727  -1.118   3.547  0.00  0.00     0.033 A 
ATOM      6  C8  <0> d           0.052  -0.652   2.425  0.00  0.00     0.078 A 
ENDROOT
BRANCH   6   7
ATOM      7  N1  <0> d          -1.307  -0.339   2.506  0.00  0.00    -0.164 NA
BRANCH   7   8
ATOM      8  S1  <0> d          -2.114  -0.517   3.940  0.00  0.00     0.254 S 
ATOM      9  O1  <0> d          -2.069  -1.912   4.211  0.00  0.00    -0.204 OA
ATOM     10  O2  <0> d          -1.498   0.412   4.821  0.00  0.00    -0.204 OA
BRANCH   8  11
ATOM     11  C9  <0> d          -3.818  -0.006   3.583  0.00  0.00     0.197 C 
BRANCH  11  12
ATOM     12  C10 <0> d          -4.664  -0.131   4.852  0.00  0.00     0.137 C 
ATOM     13  O3  <0> d          -4.219   0.818   5.828  0.00  0.00    -0.385 OA
ATOM     14  C13 <0> d          -5.277   1.744   6.128  0.00  0.00     0.168 C 
ATOM     15  C12 <0> d          -6.586   0.990   5.782  0.00  0.00     0.029 C 
ATOM     16  C11 <0> d          -6.140   0.187   4.529  0.00  0.00     0.035 C 
ENDBRANCH  11  12
ENDBRANCH   8  11
ENDBRANCH   7   8
ENDBRANCH   6   7
BRANCH   1  17
ATOM     17  C2  <0> d           0.002  -0.004   0.002  0.00  0.00     0.214 C 
ATOM     18  C1  <0> d          -0.019   1.526   0.010  0.00  0.00     0.045 C 
BRANCH  17  19
ATOM     19  N2  <0> d           0.690  -0.478  -1.207  0.00  0.00    -0.071 N 
ATOM     20  H18 <0> d           1.636  -0.129  -1.214  0.00  0.00     0.275 HD
ATOM     21  H19 <0> d           0.703  -1.487  -1.212  0.00  0.00     0.275 HD
ATOM     22  H20 <0> d           0.202  -0.144  -2.024  0.00  0.00     0.275 HD
ENDBRANCH  17  19
ENDBRANCH   1  17
TORSDOF 6
