REMARK  6 active torsions:
REMARK  status: ('A' for Active; 'I' for Inactive)
REMARK    1  A    between atoms: C5_5  and  C8_8 
REMARK       I    between atoms: C8_8  and  N1_10 
REMARK    2  A    between atoms: N1_10  and  C9_11 
REMARK    3  A    between atoms: C9_11  and  C10_12 
REMARK    4  A    between atoms: C9_11  and  C13_16 
REMARK    5  A    between atoms: C10_12  and  C11_13 
REMARK    6  A    between atoms: C11_13  and  S1_14 
REMARK       I    between atoms: C13_16  and  N2_18 
ROOT
ATOM      1  C13 <0> d          -0.478  -6.813   2.465  0.00  0.00     0.242 C 
ATOM      2  O2  <0> d          -0.944  -5.980   3.213  0.00  0.00    -0.271 OA
ATOM      3  N2  <0> d          -0.472  -8.112   2.823  0.00  0.00    -0.350 N 
ATOM      4  C14 <0> d           0.191  -9.117   1.982  0.00  0.00     0.128 C 
ATOM      5  C15 <0> d           1.188  -9.901   2.842  0.00  0.00     0.061 C 
ATOM      6  C16 <0> d           0.463 -10.476   4.059  0.00  0.00     0.156 C 
ATOM      7  C17 <0> d          -0.117  -9.340   4.902  0.00  0.00     0.061 C 
ATOM      8  C18 <0> d          -1.121  -8.549   4.067  0.00  0.00     0.128 C 
ATOM      9  C19 <0> d           1.443 -11.295   4.901  0.00  0.00     0.193 A 
ATOM     10  C20 <0> d           1.859 -12.471   4.023  0.00  0.00     0.042 A 
ATOM     11  N3  <0> d           3.132 -12.428   3.954  0.00  0.00    -0.249 NA
ATOM     12  C21 <0> d           3.632 -11.337   4.585  0.00  0.00     0.227 A 
ATOM     13  N4  <0> d           2.704 -10.596   5.153  0.00  0.00    -0.269 NA
ATOM     14  C22 <0> d           0.836 -13.338   3.334  0.00  0.00     0.084 C 
ATOM     15  C23 <0> d          -0.152 -12.370   2.657  0.00  0.00     0.239 C 
ATOM     16  N5  <0> d          -0.620 -11.365   3.614  0.00  0.00    -0.063 N 
ATOM     17  H31 <0> d          -1.010 -11.834   4.418  0.00  0.00     0.278 HD
ATOM     18  H32 <0> d          -1.341 -10.809   3.179  0.00  0.00     0.278 HD
ENDROOT
BRANCH   1  19
ATOM     19  C9  <0> d           0.093  -6.395   1.135  0.00  0.00     0.177 C 
BRANCH  19  20
ATOM     20  N1  <0> d          -0.553  -5.157   0.693  0.00  0.00    -0.344 N 
ATOM     21  C8  <0> d          -0.607  -4.856  -0.620  0.00  0.00     0.252 C 
ATOM     22  O1  <0> d          -0.119  -5.612  -1.437  0.00  0.00    -0.268 OA
ATOM     23  H10 <0> d          -0.942  -4.554   1.345  0.00  0.00     0.163 HD
BRANCH  21  24
ATOM     24  C5  <0> d          -1.259  -3.607  -1.066  0.00  0.00     0.032 A 
ATOM     25  C4  <0> d          -1.316  -3.292  -2.425  0.00  0.00     0.017 A 
ATOM     26  C3  <0> d          -1.926  -2.125  -2.834  0.00  0.00     0.007 A 
ATOM     27  C2  <0> d          -2.481  -1.266  -1.902  0.00  0.00    -0.062 A 
ATOM     28  C1  <0> d          -3.146   0.007  -2.357  0.00  0.00     0.048 C 
ATOM     29  C7  <0> d          -2.422  -1.569  -0.553  0.00  0.00     0.007 A 
ATOM     30  C6  <0> d          -1.820  -2.736  -0.131  0.00  0.00     0.017 A 
ENDBRANCH  21  24
ENDBRANCH  19  20
BRANCH  19  31
ATOM     31  C10 <0> d           1.599  -6.162   1.276  0.00  0.00     0.045 C 
BRANCH  31  32
ATOM     32  C11 <0> d           2.203  -5.879  -0.100  0.00  0.00     0.076 C 
BRANCH  32  33
ATOM     33  S1  <0> d           3.988  -5.603   0.068  0.00  0.00    -0.173 SA
ATOM     34  C12 <0> d           4.545  -5.285  -1.629  0.00  0.00     0.089 C 
ENDBRANCH  32  33
ENDBRANCH  31  32
ENDBRANCH  19  31
ENDBRANCH   1  19
TORSDOF 6
