REMARK  4 active torsions:
REMARK  status: ('A' for Active; 'I' for Inactive)
REMARK    1  A    between atoms: C2_2  and  C3_3 
REMARK    2  A    between atoms: C3_3  and  C7_8 
REMARK       I    between atoms: C7_8  and  N2_10 
REMARK    3  A    between atoms: N2_10  and  C8_11 
REMARK    4  A    between atoms: C8_11  and  C9_12 
ROOT
ATOM      1  C7  <0> d           0.207  -0.059  -2.486  0.00  0.00     0.228 C 
ATOM      2  O1  <0> d          -0.330  -0.807  -3.275  0.00  0.00    -0.273 OA
ATOM      3  N2  <0> d           0.314   1.255  -2.769  0.00  0.00    -0.360 N 
ATOM      4  H14 <0> d           0.678   1.865  -2.109  0.00  0.00     0.162 HD
ENDROOT
BRANCH   1   5
ATOM      5  C3  <0> d           0.756  -0.597  -1.190  0.00  0.00     0.066 C 
ATOM      6  C6  <0> d           0.672  -2.138  -1.160  0.00  0.00     0.251 C 
ATOM      7  N1  <0> d           1.986  -2.655  -1.585  0.00  0.00    -0.074 N 
ATOM      8  C5  <0> d           2.865  -1.508  -1.896  0.00  0.00     0.233 C 
ATOM      9  H11 <0> d           1.875  -3.231  -2.406  0.00  0.00     0.277 HD
ATOM     10  H23 <0> d           2.392  -3.202  -0.840  0.00  0.00     0.277 HD
ATOM     11  C4  <0> d           2.280  -0.328  -1.081  0.00  0.00     0.048 C 
BRANCH   5  12
ATOM     12  C2  <0> d           0.013   0.008   0.003  0.00  0.00     0.016 C 
ATOM     13  C1  <0> d          -1.474  -0.342  -0.092  0.00  0.00     0.006 C 
ENDBRANCH   5  12
ENDBRANCH   1   5
BRANCH   3  14
ATOM     14  C8  <0> d          -0.119   1.760  -4.074  0.00  0.00     0.128 C 
BRANCH  14  15
ATOM     15  C9  <0> d           0.108   3.272  -4.136  0.00  0.00     0.018 C 
ATOM     16  C12 <0> d          -0.230   3.796  -5.561  0.00  0.00     0.146 C 
ATOM     17  S1  <0> d          -0.475   5.588  -5.212  0.00  0.00     0.144 S 
ATOM     18  C11 <0> d          -0.833   5.502  -3.410  0.00  0.00     0.141 C 
ATOM     19  O2  <0> d          -1.639   6.037  -5.893  0.00  0.00    -0.228 OA
ATOM     20  O3  <0> d           0.756   6.271  -5.407  0.00  0.00    -0.228 OA
ATOM     21  C10 <0> d          -0.820   3.979  -3.134  0.00  0.00     0.022 C 
ENDBRANCH  14  15
ENDBRANCH   3  14
TORSDOF 4
