REMARK  2 active torsions:
REMARK  status: ('A' for Active; 'I' for Inactive)
REMARK    1  A    between atoms: C2_2  and  N1_3 
REMARK    2  A    between atoms: C5_7  and  C6_8 
ROOT
ATOM      1  N1  <0> d          -1.266  -0.952  -0.009  0.00  0.00    -0.266 N 
ATOM      2  C3  <0> d          -1.884  -1.148   1.173  0.00  0.00     0.267 A 
ATOM      3  O1  <0> d          -1.249  -1.195   2.210  0.00  0.00    -0.267 OA
ATOM      4  C4  <0> d          -3.349  -1.304   1.176  0.00  0.00     0.103 A 
ATOM      5  C5  <0> d          -4.055  -1.509   2.356  0.00  0.00     0.060 C 
ATOM      6  C11 <0> d          -4.034  -1.233  -0.127  0.00  0.00     0.265 A 
ATOM      7  O3  <0> d          -5.242  -1.352  -0.205  0.00  0.00    -0.267 OA
ATOM      8  N2  <0> d          -3.285  -1.032  -1.231  0.00  0.00    -0.274 N 
ATOM      9  C12 <0> d          -1.954  -0.893  -1.158  0.00  0.00     0.332 A 
ATOM     10  O4  <0> d          -1.337  -0.709  -2.189  0.00  0.00    -0.246 OA
ATOM     11  H12 <0> d          -3.720  -0.982  -2.096  0.00  0.00     0.173 HD
ENDROOT
BRANCH   5  12
ATOM     12  C6  <0> d          -3.404  -1.386   3.594  0.00  0.00     0.076 A 
ATOM     13  O2  <0> d          -2.450  -0.482   3.906  0.00  0.00    -0.316 OA
ATOM     14  C9  <0> d          -2.063  -0.664   5.175  0.00  0.00     0.050 A 
ATOM     15  C8  <0> d          -2.758  -1.699   5.707  0.00  0.00     0.035 A 
ATOM     16  C10 <0> d          -1.019   0.150   5.895  0.00  0.00     0.076 C 
ATOM     17  C7  <0> d          -3.620  -2.175   4.714  0.00  0.00     0.040 A 
ENDBRANCH   5  12
BRANCH   1  18
ATOM     18  C2  <0> d           0.190  -0.794  -0.038  0.00  0.00     0.132 C 
ATOM     19  C1  <0> d           0.546   0.686   0.116  0.00  0.00     0.027 C 
ENDBRANCH   1  18
TORSDOF 2
