REMARK  5 active torsions:
REMARK  status: ('A' for Active; 'I' for Inactive)
REMARK       I    between atoms: N1_2  and  C2_3 
REMARK    1  A    between atoms: C2_3  and  C3_5 
REMARK    2  A    between atoms: C3_5  and  N2_6 
REMARK    3  A    between atoms: N2_6  and  S1_8 
REMARK    4  A    between atoms: S1_8  and  C5_11 
REMARK    5  A    between atoms: C7_13  and  C11_19 
ROOT
ATOM      1  C5  <0> d           0.324   5.858  -0.290  0.00  0.00     0.102 A 
ATOM      2  C6  <0> d           0.813   4.571  -0.360  0.00  0.00     0.047 A 
ATOM      3  C7  <0> d           2.166   4.354  -0.628  0.00  0.00     0.064 A 
ATOM      4  C8  <0> d           3.018   5.446  -0.819  0.00  0.00     0.052 A 
ATOM      5  C9  <0> d           2.515   6.730  -0.753  0.00  0.00     0.050 A 
ATOM      6  C10 <0> d           1.172   6.936  -0.486  0.00  0.00     0.059 A 
ATOM      7 Cl1  <0> d           0.548   8.554  -0.397  0.00  0.00    -0.083 Cl
ATOM      8 Cl2  <0> d           4.704   5.188  -1.146  0.00  0.00    -0.083 Cl
ENDROOT
BRANCH   1   9
ATOM      9  S1  <0> d          -1.383   6.133   0.048  0.00  0.00     0.262 S 
ATOM     10  O2  <0> d          -1.833   7.098  -0.892  0.00  0.00    -0.200 OA
ATOM     11  O3  <0> d          -1.984   4.851   0.172  0.00  0.00    -0.200 OA
BRANCH   9  12
ATOM     12  N2  <0> d          -1.478   6.846   1.540  0.00  0.00    -0.302 N 
ATOM     13  C4  <0> d          -1.405   6.024   2.751  0.00  0.00     0.163 C 
BRANCH  12  14
ATOM     14  C3  <0> d          -1.634   8.299   1.649  0.00  0.00     0.237 C 
BRANCH  14  15
ATOM     15  C2  <0> d          -3.082   8.630   1.902  0.00  0.00     0.235 C 
ATOM     16  N1  <0> d          -3.466   9.915   2.038  0.00  0.00    -0.364 N 
ATOM     17  C1  <0> d          -4.873  10.237   2.284  0.00  0.00     0.149 C 
ATOM     18  H4  <0> d          -2.809  10.626   1.973  0.00  0.00     0.161 HD
ATOM     19  O1  <0> d          -3.903   7.741   1.983  0.00  0.00    -0.272 OA
ENDBRANCH  14  15
ENDBRANCH  12  14
ENDBRANCH   9  12
ENDBRANCH   1   9
BRANCH   3  20
ATOM     20  C11 <0> d           2.696   2.979  -0.703  0.00  0.00     0.211 C 
ATOM     21  O4  <0> d           3.873   2.793  -0.937  0.00  0.00    -0.644 OA
ATOM     22  O5  <0> d           1.873   1.929  -0.513  0.00  0.00    -0.644 OA
ENDBRANCH   3  20
TORSDOF 5
