REMARK  5 active torsions:
REMARK  status: ('A' for Active; 'I' for Inactive)
REMARK    1  A    between atoms: S1_2  and  C2_3 
REMARK    2  A    between atoms: C5_6  and  N2_9 
REMARK       I    between atoms: N2_9  and  C7_10 
REMARK    3  A    between atoms: C7_10  and  C8_12 
REMARK       I    between atoms: C8_12  and  N3_14 
REMARK    4  A    between atoms: N3_14  and  C9_15 
REMARK    5  A    between atoms: C9_15  and  C10_16 
ROOT
ATOM      1  C8  <0> d           3.803  -0.550  -7.143  0.00  0.00     0.309 C 
ATOM      2  O2  <0> d           4.001  -1.698  -7.481  0.00  0.00    -0.262 OA
ATOM      3  N3  <0> d           4.145   0.464  -7.963  0.00  0.00    -0.352 N 
ATOM      4  H9  <0> d           3.986   1.381  -7.692  0.00  0.00     0.162 HD
ENDROOT
BRANCH   1   5
ATOM      5  C7  <0> d           3.180  -0.260  -5.817  0.00  0.00     0.314 C 
ATOM      6  N2  <0> d           2.838  -1.273  -4.997  0.00  0.00    -0.318 N 
ATOM      7  H8  <0> d           3.066  -2.186  -5.233  0.00  0.00     0.169 HD
ATOM      8  O1  <0> d           2.982   0.889  -5.478  0.00  0.00    -0.262 OA
BRANCH   6   9
ATOM      9  C5  <0> d           2.155  -1.008  -3.804  0.00  0.00     0.052 A 
ATOM     10  C4  <0> d           1.254   0.054  -3.728  0.00  0.00     0.034 A 
ATOM     11  C3  <0> d           0.601   0.279  -2.531  0.00  0.00     0.041 A 
ATOM     12  C2  <0> d           0.863  -0.556  -1.448  0.00  0.00     0.092 A 
ATOM     13  N1  <0> d           1.729  -1.552  -1.556  0.00  0.00    -0.252 NA
ATOM     14  C6  <0> d           2.366  -1.799  -2.684  0.00  0.00     0.147 A 
BRANCH  12  15
ATOM     15  S1  <0> d           0.038  -0.280   0.084  0.00  0.00    -0.115 SA
ATOM     16  C1  <0> d           0.688  -1.578   1.172  0.00  0.00     0.097 C 
ENDBRANCH  12  15
ENDBRANCH   6   9
ENDBRANCH   1   5
BRANCH   3  17
ATOM     17  C9  <0> d           4.756   0.179  -9.263  0.00  0.00     0.130 C 
BRANCH  17  18
ATOM     18  C10 <0> d           5.044   1.494  -9.991  0.00  0.00     0.032 C 
ATOM     19  C18 <0> d           3.723   2.200 -10.325  0.00  0.00     0.182 C 
ATOM     20  O3  <0> d           4.025   3.467 -10.910  0.00  0.00    -0.350 OA
ATOM     21  C17 <0> d           4.932   3.501 -11.920  0.00  0.00     0.075 A 
ATOM     22  C12 <0> d           5.805   2.452 -12.152  0.00  0.00    -0.024 A 
ATOM     23  C16 <0> d           4.981   4.630 -12.732  0.00  0.00     0.037 A 
ATOM     24  C11 <0> d           5.782   1.208 -11.300  0.00  0.00     0.049 C 
ATOM     25  C13 <0> d           6.722   2.535 -13.186  0.00  0.00     0.010 A 
ATOM     26  C14 <0> d           6.768   3.658 -13.989  0.00  0.00     0.001 A 
ATOM     27  C15 <0> d           5.895   4.706 -13.762  0.00  0.00     0.003 A 
ENDBRANCH  17  18
ENDBRANCH   3  17
TORSDOF 5
