REMARK  3 active torsions:
REMARK  status: ('A' for Active; 'I' for Inactive)
REMARK    1  A    between atoms: C3_3  and  C5_6 
REMARK    2  A    between atoms: C5_6  and  N1_7 
REMARK    3  A    between atoms: N1_7  and  C6_8 
ROOT
ATOM      1  C6  <0> d           5.617   2.500   1.385  0.00  0.00     0.347 A 
ATOM      2  C7  <0> d           6.283   2.138   2.693  0.00  0.00     0.012 A 
ATOM      3  C8  <0> d           6.570   0.933   3.295  0.00  0.00     0.034 A 
ATOM      4  C9  <0> d           7.203   0.909   4.525  0.00  0.00     0.050 A 
ATOM      5  C10 <0> d           7.546   2.100   5.147  0.00  0.00     0.136 A 
ATOM      6  C11 <0> d           7.258   3.309   4.543  0.00  0.00     0.073 A 
ATOM      7  C12 <0> d           6.622   3.339   3.305  0.00  0.00     0.046 A 
ATOM      8  N2  <0> d           6.231   4.414   2.506  0.00  0.00    -0.324 N 
ATOM      9  C13 <0> d           5.638   4.014   1.365  0.00  0.00     0.260 A 
ATOM     10  O1  <0> d           5.202   4.729   0.487  0.00  0.00    -0.270 OA
ATOM     11  F1  <0> d           8.163   2.078   6.348  0.00  0.00    -0.205 F 
ATOM     12 Br1  <0> d           7.600  -0.742   5.356  0.00  0.00    -0.048 Br
ATOM     13  H10 <0> d           6.371   5.344   2.744  0.00  0.00     0.169 HD
ENDROOT
BRANCH   1  14
ATOM     14  N1  <0> d           4.235   2.004   1.357  0.00  0.00     0.106 N 
ATOM     15  H7  <0> d           3.623   2.610   1.882  0.00  0.00     0.317 HD
BRANCH  14  16
ATOM     16  C5  <0> d           3.761   1.845  -0.024  0.00  0.00     0.317 C 
BRANCH  16  17
ATOM     17  C3  <0> d           2.343   1.336  -0.013  0.00  0.00     0.010 A 
ATOM     18  C2  <0> d           1.183   2.038   0.002  0.00  0.00     0.017 A 
ATOM     19  C1  <0> d          -0.016   1.351   0.009  0.00  0.00     0.008 A 
ATOM     20  C4  <0> d           0.002  -0.004   0.002  0.00  0.00     0.050 A 
ATOM     21  S1  <0> d           1.754  -0.349  -0.017  0.00  0.00    -0.105 SA
ENDBRANCH  16  17
ENDBRANCH  14  16
ENDBRANCH   1  14
TORSDOF 3
