REMARK  2 active torsions:
REMARK  status: ('A' for Active; 'I' for Inactive)
REMARK    1  A    between atoms: C3_3  and  N4_16 
REMARK    2  A    between atoms: C4_4  and  C7_8 
ROOT
ATOM      1  C1  <0> d          -0.017   1.379   0.010  0.00  0.00     0.021 A 
ATOM      2  C2  <0> d           1.169   2.087   0.002  0.00  0.00     0.031 A 
ATOM      3  C3  <0> d           2.381   1.409  -0.013  0.00  0.00     0.034 A 
ATOM      4  C4  <0> d           2.397   0.020  -0.021  0.00  0.00     0.003 A 
ATOM      5  C5  <0> d           1.208  -0.682  -0.013  0.00  0.00     0.031 A 
ATOM      6  C6  <0> d           0.002  -0.004   0.002  0.00  0.00     0.011 A 
ATOM      7 Br1  <0> d          -1.624  -0.970   0.012  0.00  0.00    -0.051 Br
ENDROOT
BRANCH   4   8
ATOM      8  C7  <0> d           3.710  -0.719  -0.038  0.00  0.00     0.229 A 
ATOM      9  N3  <0> d           3.482  -2.065   0.514  0.00  0.00    -0.293 N 
ATOM     10  N2  <0> d           3.751  -3.053  -0.178  0.00  0.00    -0.148 NA
ATOM     11  H8  <0> d           3.126  -2.175   1.409  0.00  0.00     0.183 HD
ATOM     12  C9  <0> d           4.245  -2.985  -1.418  0.00  0.00     0.218 A 
ATOM     13  N1  <0> d           4.506  -1.835  -2.060  0.00  0.00    -0.299 N 
ATOM     14  S1  <0> d           4.562  -4.453  -2.238  0.00  0.00    -0.037 SA
ATOM     15  C8  <0> d           4.270  -0.650  -1.447  0.00  0.00     0.252 A 
ATOM     16  H5  <0> d           4.864  -1.853  -2.961  0.00  0.00     0.171 HD
ATOM     17  O1  <0> d           4.494   0.408  -1.994  0.00  0.00    -0.270 OA
ENDBRANCH   4   8
BRANCH   3  18
ATOM     18  N4  <0> d           3.582   2.123  -0.021  0.00  0.00    -0.399 N 
ATOM     19  H6  <0> d           3.570   3.093  -0.016  0.00  0.00     0.156 HD
ATOM     20  H7  <0> d           4.428   1.649  -0.032  0.00  0.00     0.156 HD
ENDBRANCH   3  18
TORSDOF 2
