REMARK  5 active torsions:
REMARK  status: ('A' for Active; 'I' for Inactive)
REMARK    1  A    between atoms: N2_6  and  C5_7 
REMARK    2  A    between atoms: C5_7  and  C6_8 
REMARK    3  A    between atoms: C6_8  and  O1_9 
REMARK    4  A    between atoms: O1_9  and  C7_10 
REMARK    5  A    between atoms: C8_11  and  N3_18 
ROOT
ATOM      1  C7  <0> d          -2.605   0.606   4.882  0.00  0.00     0.112 A 
ATOM      2  C8  <0> d          -3.140   1.890   4.804  0.00  0.00     0.064 A 
ATOM      3  C9  <0> d          -4.371   2.162   5.384  0.00  0.00     0.074 A 
ATOM      4  C10 <0> d          -5.063   1.158   6.039  0.00  0.00     0.120 A 
ATOM      5  C11 <0> d          -4.531  -0.117   6.117  0.00  0.00     0.064 A 
ATOM      6  C12 <0> d          -3.306  -0.395   5.535  0.00  0.00     0.049 A 
ATOM      7 Br1  <0> d          -2.585  -2.140   5.637  0.00  0.00    -0.048 Br
ATOM      8  F1  <0> d          -6.261   1.424   6.604  0.00  0.00    -0.206 F 
ENDROOT
BRANCH   1   9
ATOM      9  O1  <0> d          -1.399   0.335   4.314  0.00  0.00    -0.346 OA
BRANCH   9  10
ATOM     10  C6  <0> d          -1.406  -0.098   2.953  0.00  0.00     0.196 C 
BRANCH  10  11
ATOM     11  C5  <0> d           0.030  -0.353   2.491  0.00  0.00     0.156 C 
BRANCH  11  12
ATOM     12  N2  <0> d           0.023  -0.797   1.095  0.00  0.00    -0.344 N 
ATOM     13  C2  <0> d           0.002  -0.004   0.002  0.00  0.00     0.079 A 
ATOM     14  C1  <0> d          -0.018   1.503   0.010  0.00  0.00     0.089 C 
ATOM     15  N1  <0> d           0.008  -0.759  -1.063  0.00  0.00    -0.355 N 
ATOM     16  C3  <0> d           0.028  -2.047  -0.691  0.00  0.00     0.106 A 
ATOM     17  H14 <0> d          -0.000  -0.438  -1.978  0.00  0.00     0.166 HD
ATOM     18  C4  <0> d           0.034  -2.093   0.655  0.00  0.00     0.109 A 
ENDBRANCH  11  12
ENDBRANCH  10  11
ENDBRANCH   9  10
ENDBRANCH   1   9
BRANCH   2  19
ATOM     19  N3  <0> d          -2.438   2.903   4.141  0.00  0.00    -0.397 N 
ATOM     20  H12 <0> d          -1.578   2.712   3.736  0.00  0.00     0.156 HD
ATOM     21  H13 <0> d          -2.812   3.797   4.087  0.00  0.00     0.156 HD
ENDBRANCH   2  19
TORSDOF 5
