REMARK  3 active torsions:
REMARK  status: ('A' for Active; 'I' for Inactive)
REMARK    1  A    between atoms: C7_7  and  C9_11 
REMARK    2  A    between atoms: C9_11  and  C10_12 
REMARK    3  A    between atoms: C9_11  and  O2_18 
ROOT
ATOM      1  C1  <0> d          -0.017   1.380   0.010  0.00  0.00     0.001 A 
ATOM      2  C2  <0> d           1.174   2.084   0.002  0.00  0.00     0.002 A 
ATOM      3  C3  <0> d           2.380   1.415  -0.013  0.00  0.00     0.030 A 
ATOM      4  C4  <0> d           2.407   0.021  -0.021  0.00  0.00     0.042 A 
ATOM      5  C5  <0> d           1.205  -0.674  -0.013  0.00  0.00    -0.015 A 
ATOM      6  C6  <0> d           0.002  -0.004   0.002  0.00  0.00     0.010 A 
ATOM      7  C7  <0> d           1.563  -2.143  -0.025  0.00  0.00     0.148 A 
ATOM      8  C8  <0> d           3.077  -2.152  -0.040  0.00  0.00     0.233 A 
ATOM      9  O1  <0> d           3.791  -3.132  -0.052  0.00  0.00    -0.272 OA
ATOM     10  N1  <0> d           3.480  -0.870  -0.037  0.00  0.00    -0.326 N 
ATOM     11  H7  <0> d           4.410  -0.596  -0.044  0.00  0.00     0.169 HD
ENDROOT
BRANCH   7  12
ATOM     12  C9  <0> d           1.007  -2.820  -1.279  0.00  0.00     0.187 C 
BRANCH  12  13
ATOM     13  C10 <0> d           1.377  -4.281  -1.266  0.00  0.00     0.064 A 
ATOM     14  N2  <0> d           2.643  -4.632  -1.146  0.00  0.00    -0.263 NA
ATOM     15  C14 <0> d           3.013  -5.897  -1.125  0.00  0.00     0.117 A 
ATOM     16  C13 <0> d           2.078  -6.909  -1.240  0.00  0.00     0.019 A 
ATOM     17  C12 <0> d           0.738  -6.579  -1.374  0.00  0.00     0.003 A 
ATOM     18  C11 <0> d           0.387  -5.238  -1.386  0.00  0.00     0.030 A 
ENDBRANCH  12  13
BRANCH  12  19
ATOM     19  O2  <0> d          -0.416  -2.690  -1.300  0.00  0.00    -0.388 OA
ATOM     20  H12 <0> d          -0.859  -3.090  -0.539  0.00  0.00     0.210 HD
ENDBRANCH  12  19
ENDBRANCH   7  12
TORSDOF 3
