REMARK  7 active torsions:
REMARK  status: ('A' for Active; 'I' for Inactive)
REMARK    1  A    between atoms: C2_2  and  N1_4 
REMARK       I    between atoms: N1_4  and  C4_5 
REMARK    2  A    between atoms: C4_5  and  C5_7 
REMARK    3  A    between atoms: C5_7  and  N2_8 
REMARK    4  A    between atoms: N3_11  and  C10_14 
REMARK    5  A    between atoms: C10_14  and  C11_15 
REMARK    6  A    between atoms: C12_18  and  C14_21 
REMARK    7  A    between atoms: C14_21  and  C15_22 
ROOT
ATOM      1  C11 <0> d          -7.132  -3.016  -6.129  0.00  0.00     0.158 A 
ATOM      2  N4  <0> d          -7.495  -4.266  -6.218  0.00  0.00    -0.133 NA
ATOM      3  N5  <0> d          -8.778  -4.348  -6.176  0.00  0.00    -0.135 NA
ATOM      4  C12 <0> d          -9.291  -3.153  -6.057  0.00  0.00     0.130 A 
ATOM      5  N6  <0> d          -8.260  -2.275  -6.019  0.00  0.00    -0.323 N 
ATOM      6  C13 <0> d          -8.349  -0.818  -5.889  0.00  0.00     0.159 C 
ENDROOT
BRANCH   1   7
ATOM      7  C10 <0> d          -5.718  -2.494  -6.140  0.00  0.00     0.352 C 
BRANCH   7   8
ATOM      8  N3  <0> d          -5.203  -2.446  -4.765  0.00  0.00     0.099 N 
ATOM      9  C7  <0> d          -3.760  -2.170  -4.752  0.00  0.00     0.303 C 
ATOM     10  C6  <0> d          -3.249  -2.207  -3.309  0.00  0.00     0.303 C 
ATOM     11  N2  <0> d          -3.979  -1.213  -2.509  0.00  0.00     0.100 N 
ATOM     12  C9  <0> d          -5.423  -1.488  -2.522  0.00  0.00     0.303 C 
ATOM     13  C8  <0> d          -5.933  -1.452  -3.964  0.00  0.00     0.303 C 
BRANCH  11  14
ATOM     14  C5  <0> d          -3.465  -1.164  -1.134  0.00  0.00     0.374 C 
BRANCH  14  15
ATOM     15  C4  <0> d          -2.051  -0.643  -1.145  0.00  0.00     0.246 C 
ATOM     16  N1  <0> d          -1.372  -0.511   0.012  0.00  0.00    -0.356 N 
ATOM     17  H8  <0> d          -1.794  -0.752   0.852  0.00  0.00     0.162 HD
ATOM     18  O1  <0> d          -1.524  -0.341  -2.194  0.00  0.00    -0.272 OA
BRANCH  16  19
ATOM     19  C2  <0> d           0.002  -0.004   0.002  0.00  0.00     0.076 C 
ATOM     20  C1  <0> d          -0.019   1.526   0.010  0.00  0.00     0.032 C 
ATOM     21  C3  <0> d           0.742  -0.511   1.242  0.00  0.00     0.032 C 
ENDBRANCH  16  19
ENDBRANCH  14  15
ENDBRANCH  11  14
ENDBRANCH   7   8
ENDBRANCH   1   7
BRANCH   4  22
ATOM     22  C14 <0> d         -10.757  -2.815  -5.973  0.00  0.00     0.085 C 
BRANCH  22  23
ATOM     23  C15 <0> d         -11.197  -2.818  -4.507  0.00  0.00    -0.004 C 
ATOM     24  C19 <0> d         -12.653  -2.354  -4.409  0.00  0.00     0.032 C 
ATOM     25  C18 <0> d         -13.112  -2.436  -2.952  0.00  0.00     0.232 C 
ATOM     26  N7  <0> d         -13.006  -3.821  -2.479  0.00  0.00    -0.075 N 
ATOM     27  C17 <0> d         -11.602  -4.249  -2.502  0.00  0.00     0.232 C 
ATOM     28  H31 <0> d         -13.550  -4.423  -3.078  0.00  0.00     0.277 HD
ATOM     29  H36 <0> d         -13.359  -3.881  -1.535  0.00  0.00     0.277 HD
ATOM     30  C16 <0> d         -11.085  -4.237  -3.942  0.00  0.00     0.032 C 
ENDBRANCH  22  23
ENDBRANCH   4  22
TORSDOF 7
