REMARK  5 active torsions:
REMARK  status: ('A' for Active; 'I' for Inactive)
REMARK    1  A    between atoms: C6_7  and  C9_10 
REMARK    2  A    between atoms: C9_10  and  C10_11 
REMARK    3  A    between atoms: C11_13  and  C12_16 
REMARK       I    between atoms: C12_16  and  N4_18 
REMARK    4  A    between atoms: N4_18  and  C13_19 
REMARK    5  A    between atoms: C13_19  and  C14_20 
ROOT
ATOM      1  C10 <0> d           0.457  -3.653  -1.462  0.00  0.00     0.325 C 
ATOM      2  N2  <0> d          -0.540  -4.750  -1.487  0.00  0.00     0.143 N 
ATOM      3  C11 <0> d          -0.031  -5.674  -2.534  0.00  0.00     0.471 C 
ATOM      4  O1  <0> d           1.402  -5.632  -2.347  0.00  0.00    -0.258 OA
ATOM      5  N3  <0> d           1.700  -4.224  -2.021  0.00  0.00    -0.170 NA
ATOM      6  H11 <0> d          -0.592  -5.212  -0.591  0.00  0.00     0.322 HD
ATOM      7  H12 <0> d           1.994  -3.716  -2.842  0.00  0.00     0.156 HD
ENDROOT
BRANCH   1   8
ATOM      8  C9  <0> d           0.691  -3.186  -0.024  0.00  0.00     0.090 C 
BRANCH   8   9
ATOM      9  C6  <0> d           1.631  -2.008  -0.025  0.00  0.00    -0.047 A 
ATOM     10  C5  <0> d           3.143  -2.053  -0.041  0.00  0.00     0.155 A 
ATOM     11  N1  <0> d           3.587  -0.654  -0.037  0.00  0.00    -0.385 N 
ATOM     12  C4  <0> d           2.529   0.120  -0.022  0.00  0.00     0.038 A 
ATOM     13  H21 <0> d           4.509  -0.353  -0.045  0.00  0.00     0.160 HD
ATOM     14  C3  <0> d           2.391   1.535  -0.013  0.00  0.00     0.030 A 
ATOM     15  C7  <0> d           1.295  -0.698  -0.014  0.00  0.00    -0.006 A 
ATOM     16  C2  <0> d           1.166   2.101   0.002  0.00  0.00     0.002 A 
ATOM     17  C1  <0> d          -0.016   1.348   0.009  0.00  0.00     0.001 A 
ATOM     18  C8  <0> d           0.002  -0.004   0.002  0.00  0.00     0.014 A 
ENDBRANCH   8   9
ENDBRANCH   1   8
BRANCH   3  19
ATOM     19  C12 <0> d          -0.559  -7.068  -2.314  0.00  0.00     0.279 C 
ATOM     20  O2  <0> d          -1.376  -7.535  -3.079  0.00  0.00    -0.268 OA
ATOM     21  N4  <0> d          -0.123  -7.796  -1.267  0.00  0.00    -0.357 N 
ATOM     22  H13 <0> d           0.530  -7.423  -0.655  0.00  0.00     0.162 HD
BRANCH  21  23
ATOM     23  C13 <0> d          -0.636  -9.152  -1.053  0.00  0.00     0.127 C 
BRANCH  23  24
ATOM     24  C14 <0> d           0.015  -9.753   0.194  0.00  0.00     0.003 A 
ATOM     25  C16 <0> d          -0.477 -11.126   0.656  0.00  0.00     0.007 A 
ATOM     26  C15 <0> d           0.900 -10.987   0.003  0.00  0.00     0.007 A 
ENDBRANCH  23  24
ENDBRANCH  21  23
ENDBRANCH   3  19
TORSDOF 5
