REMARK  6 active torsions:
REMARK  status: ('A' for Active; 'I' for Inactive)
REMARK    1  A    between atoms: C3_4  and  S1_10 
REMARK    2  A    between atoms: C5_6  and  C6_7 
REMARK       I    between atoms: C6_7  and  N2_9 
REMARK    3  A    between atoms: S1_10  and  N3_13 
REMARK    4  A    between atoms: C7_14  and  C8_16 
REMARK    5  A    between atoms: C9_17  and  C10_18 
REMARK    6  A    between atoms: C15_23  and  N4_24 
ROOT
ATOM      1  N3  <0> d           1.375  -3.241  -3.357  0.00  0.00    -0.132 NA
ATOM      2  C7  <0> d           1.647  -4.298  -4.071  0.00  0.00     0.212 C 
ATOM      3  O4  <0> d           0.647  -4.991  -4.663  0.00  0.00    -0.170 OA
ENDROOT
BRANCH   1   4
ATOM      4  S1  <0> d          -0.195  -2.746  -3.177  0.00  0.00     0.287 S 
ATOM      5  O2  <0> d          -0.857  -3.757  -2.430  0.00  0.00    -0.198 OA
ATOM      6  O3  <0> d          -0.641  -2.332  -4.461  0.00  0.00    -0.198 OA
BRANCH   4   7
ATOM      7  C3  <0> d          -0.174  -1.304  -2.163  0.00  0.00     0.099 A 
ATOM      8  C2  <0> d          -0.069  -0.026  -2.597  0.00  0.00     0.116 A 
ATOM      9  N1  <0> d          -0.088   0.804  -1.526  0.00  0.00    -0.355 N 
ATOM     10  C1  <0> d           0.003   2.265  -1.575  0.00  0.00     0.156 C 
ATOM     11  C5  <0> d          -0.202   0.045  -0.383  0.00  0.00     0.103 A 
ATOM     12  C4  <0> d          -0.262  -1.278  -0.768  0.00  0.00     0.062 A 
BRANCH  11  13
ATOM     13  C6  <0> d          -0.253   0.551   0.992  0.00  0.00     0.266 C 
ATOM     14  O1  <0> d          -0.282   1.750   1.199  0.00  0.00    -0.266 OA
ATOM     15  N2  <0> d          -0.267  -0.312   2.028  0.00  0.00    -0.365 N 
ATOM     16  H6  <0> d          -0.173  -1.264   1.867  0.00  0.00     0.159 HD
ATOM     17  H7  <0> d          -0.371   0.019   2.933  0.00  0.00     0.159 HD
ENDBRANCH  11  13
ENDBRANCH   4   7
ENDBRANCH   1   4
BRANCH   2  18
ATOM     18  C8  <0> d           3.038  -4.737  -4.231  0.00  0.00     0.062 C 
ATOM     19  C9  <0> d           3.319  -5.829  -4.967  0.00  0.00     0.018 C 
BRANCH  19  20
ATOM     20  C10 <0> d           4.715  -6.269  -5.127  0.00  0.00    -0.003 A 
ATOM     21  C15 <0> d           4.997  -7.522  -5.679  0.00  0.00     0.116 A 
ATOM     22  C14 <0> d           6.306  -7.926  -5.832  0.00  0.00     0.079 A 
ATOM     23  C13 <0> d           7.341  -7.097  -5.429  0.00  0.00     0.118 A 
ATOM     24  C12 <0> d           7.068  -5.855  -4.876  0.00  0.00     0.043 A 
ATOM     25  F1  <0> d           8.622  -7.501  -5.577  0.00  0.00    -0.206 F 
ATOM     26  C11 <0> d           5.764  -5.437  -4.723  0.00  0.00     0.017 A 
BRANCH  21  27
ATOM     27  N4  <0> d           3.892  -8.411  -6.104  0.00  0.00    -0.115 N 
ATOM     28  O5  <0> d           2.880  -8.476  -5.445  0.00  0.00    -0.532 OA
ATOM     29  O6  <0> d           4.001  -9.072  -7.110  0.00  0.00    -0.532 OA
ENDBRANCH  21  27
ENDBRANCH  19  20
ENDBRANCH   2  18
TORSDOF 6
