REMARK  6 active torsions:
REMARK  status: ('A' for Active; 'I' for Inactive)
REMARK    1  A    between atoms: C2_2  and  C3_3 
REMARK    2  A    between atoms: C3_3  and  C4_4 
REMARK    3  A    between atoms: C4_4  and  N1_5 
REMARK    4  A    between atoms: C10_14  and  S2_15 
REMARK    5  A    between atoms: S2_15  and  C11_16 
REMARK    6  A    between atoms: C11_16  and  C13_18 
REMARK       I    between atoms: C13_18  and  N3_20 
REMARK       I    between atoms: N3_20  and  C14_21 
REMARK       I    between atoms: C14_21  and  N4_23 
ROOT
ATOM      1  N1  <0> d          -0.698   1.558   1.213  0.00  0.00    -0.292 N 
ATOM      2  C5  <0> d          -0.340   2.735   1.758  0.00  0.00     0.263 A 
ATOM      3  O1  <0> d           0.547   3.403   1.256  0.00  0.00    -0.267 OA
ATOM      4  C6  <0> d          -1.016   3.194   2.932  0.00  0.00     0.075 A 
ATOM      5  C7  <0> d          -0.814   4.416   3.692  0.00  0.00    -0.031 A 
ATOM      6  C8  <0> d          -1.567   4.645   4.777  0.00  0.00    -0.012 A 
ATOM      7  S1  <0> d          -2.621   3.209   4.860  0.00  0.00    -0.074 SA
ATOM      8  C9  <0> d          -2.020   2.343   3.433  0.00  0.00     0.117 A 
ATOM      9  N2  <0> d          -2.321   1.190   2.849  0.00  0.00    -0.216 NA
ATOM     10  C10 <0> d          -1.685   0.794   1.765  0.00  0.00     0.173 A 
ATOM     11  C15 <0> d          -1.532   5.832   5.706  0.00  0.00     0.057 C 
ATOM     12  C16 <0> d           0.230   5.415   3.264  0.00  0.00     0.050 C 
ENDROOT
BRANCH  10  13
ATOM     13  S2  <0> d          -2.114  -0.744   1.019  0.00  0.00    -0.078 SA
BRANCH  13  14
ATOM     14  C11 <0> d          -3.426  -1.284   2.143  0.00  0.00     0.143 C 
ATOM     15  C12 <0> d          -2.836  -1.536   3.532  0.00  0.00     0.031 C 
BRANCH  14  16
ATOM     16  C13 <0> d          -4.043  -2.555   1.621  0.00  0.00     0.239 C 
ATOM     17  O2  <0> d          -3.402  -3.288   0.898  0.00  0.00    -0.272 OA
ATOM     18  N3  <0> d          -5.307  -2.879   1.957  0.00  0.00    -0.279 N 
ATOM     19  C14 <0> d          -5.859  -4.016   1.490  0.00  0.00     0.320 C 
ATOM     20  H14 <0> d          -5.820  -2.293   2.535  0.00  0.00     0.173 HD
ATOM     21  O3  <0> d          -5.216  -4.751   0.765  0.00  0.00    -0.247 OA
ATOM     22  N4  <0> d          -7.123  -4.340   1.827  0.00  0.00    -0.352 N 
ATOM     23  H15 <0> d          -7.636  -3.754   2.405  0.00  0.00     0.160 HD
ATOM     24  H16 <0> d          -7.520  -5.159   1.490  0.00  0.00     0.160 HD
ENDBRANCH  14  16
ENDBRANCH  13  14
ENDBRANCH  10  13
BRANCH   1  25
ATOM     25  C4  <0> d          -0.013   1.086   0.008  0.00  0.00     0.134 C 
BRANCH  25  26
ATOM     26  C3  <0> d          -0.753   1.593  -1.232  0.00  0.00     0.020 C 
BRANCH  26  27
ATOM     27  C2  <0> d          -0.037   1.099  -2.490  0.00  0.00    -0.003 C 
ATOM     28  C1  <0> d          -0.777   1.606  -3.730  0.00  0.00     0.005 C 
ENDBRANCH  26  27
ENDBRANCH  25  26
ENDBRANCH   1  25
TORSDOF 6
