REMARK  4 active torsions:
REMARK  status: ('A' for Active; 'I' for Inactive)
REMARK    1  A    between atoms: C7_7  and  N1_11 
REMARK       I    between atoms: N1_11  and  C10_12 
REMARK    2  A    between atoms: C10_12  and  C11_14 
REMARK    3  A    between atoms: C11_14  and  S2_15 
REMARK    4  A    between atoms: S2_15  and  C12_16 
ROOT
ATOM      1  N1  <0> d          -0.692  -5.269  -0.020  0.00  0.00    -0.352 N 
ATOM      2  C10 <0> d           0.371  -4.440  -0.026  0.00  0.00     0.227 C 
ATOM      3  O1  <0> d           1.495  -4.896  -0.040  0.00  0.00    -0.273 OA
ATOM      4  H10 <0> d          -1.712  -4.856  -0.008  0.00  0.00     0.163 HD
ENDROOT
BRANCH   1   5
ATOM      5  C7  <0> d          -0.490  -6.720  -0.030  0.00  0.00     0.119 C 
ATOM      6  C5  <0> d          -0.212  -7.155  -1.439  0.00  0.00    -0.019 A 
ATOM      7  C4  <0> d          -0.639  -8.347  -1.992  0.00  0.00     0.008 A 
ATOM      8  C6  <0> d           0.535  -6.280  -2.225  0.00  0.00     0.010 A 
ATOM      9  C3  <0> d          -0.309  -8.664  -3.311  0.00  0.00     0.019 A 
ATOM     10  S1  <0> d          -1.607  -9.508  -1.081  0.00  0.00    -0.129 SA
ATOM     11  C2  <0> d           0.435  -7.792  -4.076  0.00  0.00     0.001 A 
ATOM     12  C1  <0> d           0.855  -6.593  -3.528  0.00  0.00     0.001 A 
ATOM     13  C9  <0> d          -1.485  -8.902   0.629  0.00  0.00     0.082 C 
ATOM     14  C8  <0> d          -1.709  -7.383   0.586  0.00  0.00     0.040 C 
ENDBRANCH   1   5
BRANCH   2  15
ATOM     15  C11 <0> d           0.163  -2.948  -0.016  0.00  0.00     0.185 C 
BRANCH  15  16
ATOM     16  S2  <0> d           1.770  -2.114  -0.027  0.00  0.00    -0.081 SA
BRANCH  16  17
ATOM     17  C12 <0> d           1.243  -0.433  -0.012  0.00  0.00     0.184 A 
ATOM     18  N2  <0> d           2.047   0.670  -0.014  0.00  0.00    -0.215 NA
ATOM     19  C13 <0> d           1.202   1.745  -0.000  0.00  0.00     0.257 A 
ATOM     20  N3  <0> d          -0.015   1.281   0.010  0.00  0.00    -0.166 NA
ATOM     21  N4  <0> d           0.002  -0.004   0.003  0.00  0.00    -0.254 N 
ATOM     22  H14 <0> d          -0.943  -0.567   0.009  0.00  0.00     0.191 HD
ENDBRANCH  16  17
ENDBRANCH  15  16
ENDBRANCH   2  15
TORSDOF 4
