REMARK  4 active torsions:
REMARK  status: ('A' for Active; 'I' for Inactive)
REMARK    1  A    between atoms: C4_4  and  C5_7 
REMARK       I    between atoms: C5_7  and  N2_9 
REMARK    2  A    between atoms: N2_9  and  C6_10 
REMARK    3  A    between atoms: C7_11  and  C12_17 
REMARK    4  A    between atoms: C12_17  and  O4_19 
ROOT
ATOM      1  C6  <0> d           3.885  -3.097  -0.052  0.00  0.00     0.094 A 
ATOM      2  C7  <0> d           5.231  -3.448  -0.066  0.00  0.00     0.080 A 
ATOM      3  C8  <0> d           5.533  -4.859  -0.076  0.00  0.00    -0.030 A 
ATOM      4  C9  <0> d           4.491  -5.710  -0.070  0.00  0.00    -0.012 A 
ATOM      5  S1  <0> d           3.077  -4.628  -0.044  0.00  0.00    -0.076 SA
ATOM      6  C10 <0> d           4.515  -7.217  -0.077  0.00  0.00     0.057 C 
ATOM      7  C11 <0> d           6.955  -5.358  -0.093  0.00  0.00     0.050 C 
ENDROOT
BRANCH   1   8
ATOM      8  N2  <0> d           3.326  -1.830  -0.040  0.00  0.00    -0.315 N 
ATOM      9  C5  <0> d           1.986  -1.684  -0.026  0.00  0.00     0.277 C 
ATOM     10  O2  <0> d           1.268  -2.665  -0.024  0.00  0.00    -0.266 OA
ATOM     11  H5  <0> d           3.899  -1.047  -0.041  0.00  0.00     0.170 HD
BRANCH   9  12
ATOM     12  C4  <0> d           1.388  -0.328  -0.013  0.00  0.00     0.154 A 
ATOM     13  C3  <0> d           0.002  -0.004   0.002  0.00  0.00     0.074 A 
ATOM     14  C2  <0> d          -0.016   1.349   0.009  0.00  0.00     0.077 A 
ATOM     15  C1  <0> d          -1.237   2.232   0.020  0.00  0.00     0.079 C 
ATOM     16  O1  <0> d           1.262   1.751  -0.001  0.00  0.00    -0.218 OA
ATOM     17  N1  <0> d           2.028   0.815  -0.013  0.00  0.00    -0.123 NA
ENDBRANCH   9  12
ENDBRANCH   1   8
BRANCH   2  18
ATOM     18  C12 <0> d           6.289  -2.435  -0.072  0.00  0.00     0.296 C 
ATOM     19  O3  <0> d           6.739  -2.020   0.979  0.00  0.00    -0.259 OA
BRANCH  18  20
ATOM     20  O4  <0> d           6.764  -1.964  -1.243  0.00  0.00    -0.322 OA
ATOM     21  C13 <0> d           7.813  -0.962  -1.173  0.00  0.00     0.213 C 
ENDBRANCH  18  20
ENDBRANCH   2  18
TORSDOF 4
