REMARK  3 active torsions:
REMARK  status: ('A' for Active; 'I' for Inactive)
REMARK    1  A    between atoms: C8_8  and  O4_24 
REMARK    2  A    between atoms: C13_15  and  C14_16 
REMARK    3  A    between atoms: C14_16  and  N1_27 
ROOT
ATOM      1  C1  <0> d          -3.591   4.264   4.099  0.00  0.00     0.011 C 
ATOM      2  C2  <0> d          -2.125   4.670   3.928  0.00  0.00    -0.003 C 
ATOM      3  C3  <0> d          -1.466   4.691   5.306  0.00  0.00     0.009 C 
ATOM      4  C4  <0> d          -0.018   5.162   5.151  0.00  0.00     0.028 C 
ATOM      5  C5  <0> d           0.675   4.255   4.174  0.00  0.00    -0.023 C 
ATOM      6  C6  <0> d           0.045   3.612   3.237  0.00  0.00    -0.070 C 
ATOM      7  C7  <0> d          -1.436   3.678   2.995  0.00  0.00     0.009 C 
ATOM      8  C8  <0> d          -1.679   4.088   1.547  0.00  0.00     0.138 C 
ATOM      9  C9  <0> d          -0.796   3.459   0.514  0.00  0.00     0.060 C 
ATOM     10  C10 <0> d           0.682   3.262   0.870  0.00  0.00     0.143 C 
ATOM     11  C11 <0> d           0.853   2.738   2.300  0.00  0.00     0.068 C 
ATOM     12  O1  <0> d           1.078   2.149  -0.017  0.00  0.00    -0.315 OA
ATOM     13  C12 <0> d           0.049   1.274  -0.027  0.00  0.00     0.265 C 
ATOM     14  O2  <0> d           0.136   0.072  -0.065  0.00  0.00    -0.265 OA
ATOM     15  C13 <0> d          -1.242   2.077   0.012  0.00  0.00     0.120 C 
ATOM     16  C21 <0> d          -2.048   2.298   3.252  0.00  0.00     0.023 C 
ENDROOT
BRANCH  15  17
ATOM     17  C14 <0> d          -1.837   2.182  -1.397  0.00  0.00     0.250 C 
BRANCH  17  18
ATOM     18  N1  <0> d          -2.209   0.827  -1.859  0.00  0.00    -0.066 N 
ATOM     19  C15 <0> d          -2.367   0.819  -3.328  0.00  0.00     0.266 C 
ATOM     20  C16 <0> d          -2.716  -0.602  -3.777  0.00  0.00     0.143 C 
ATOM     21  O3  <0> d          -3.909  -1.027  -3.112  0.00  0.00    -0.378 OA
ATOM     22  C20 <0> d          -1.568  -1.548  -3.420  0.00  0.00     0.041 C 
ATOM     23  C17 <0> d          -3.809  -1.014  -1.685  0.00  0.00     0.143 C 
ATOM     24  C18 <0> d          -3.471   0.403  -1.216  0.00  0.00     0.266 C 
ATOM     25  C19 <0> d          -5.142  -1.450  -1.074  0.00  0.00     0.041 C 
ATOM     26  H34 <0> d          -1.465   0.170  -1.599  0.00  0.00     0.280 HD
ENDBRANCH  17  18
ENDBRANCH  15  17
BRANCH   8  27
ATOM     27  O4  <0> d          -3.043   3.810   1.203  0.00  0.00    -0.394 OA
ATOM     28  H30 <0> d          -3.275   4.044   0.294  0.00  0.00     0.210 HD
ENDBRANCH   8  27
TORSDOF 3
