REMARK  3 active torsions:
REMARK  status: ('A' for Active; 'I' for Inactive)
REMARK    1  A    between atoms: N1_2  and  C3_4 
REMARK    2  A    between atoms: C6_7  and  C9_10 
REMARK    3  A    between atoms: C11_12  and  N5_26 
ROOT
ATOM      1  C9  <0> d          -0.006  -2.813  -4.924  0.00  0.00     0.098 C 
ATOM      2  C10 <0> d          -1.253  -2.468  -5.685  0.00  0.00     0.045 A 
ATOM      3  C11 <0> d          -2.481  -3.047  -5.330  0.00  0.00     0.135 A 
ATOM      4  N2  <0> d          -3.578  -2.731  -6.010  0.00  0.00    -0.203 NA
ATOM      5  C12 <0> d          -3.532  -1.872  -7.024  0.00  0.00     0.201 A 
ATOM      6  S1  <0> d          -4.971  -1.493  -7.871  0.00  0.00    -0.038 SA
ATOM      7  N3  <0> d          -2.374  -1.296  -7.396  0.00  0.00    -0.317 N 
ATOM      8  C13 <0> d          -1.216  -1.591  -6.729  0.00  0.00     0.118 A 
ATOM      9  N4  <0> d          -0.028  -1.016  -7.106  0.00  0.00    -0.345 N 
ATOM     10  C14 <0> d           1.166  -1.574  -6.736  0.00  0.00     0.021 C 
ATOM     11  C15 <0> d           1.229  -2.442  -5.706  0.00  0.00     0.023 C 
ATOM     12  C16 <0> d           2.449  -3.031  -5.330  0.00  0.00     0.158 C 
ATOM     13  O1  <0> d           2.474  -3.806  -4.394  0.00  0.00    -0.293 OA
ATOM     14  C17 <0> d           3.724  -2.721  -6.065  0.00  0.00     0.084 C 
ATOM     15  C18 <0> d           3.389  -2.356  -7.515  0.00  0.00     0.014 C 
ATOM     16  C19 <0> d           2.406  -1.188  -7.504  0.00  0.00     0.058 C 
ATOM     17  H12 <0> d          -0.034  -0.206  -7.640  0.00  0.00     0.167 HD
ATOM     18  H21 <0> d          -2.360  -0.670  -8.138  0.00  0.00     0.170 HD
ENDROOT
BRANCH   1  19
ATOM     19  C6  <0> d          -0.005  -2.066  -3.615  0.00  0.00    -0.045 A 
ATOM     20  C5  <0> d           0.010  -2.766  -2.422  0.00  0.00     0.010 A 
ATOM     21  C4  <0> d           0.013  -2.085  -1.221  0.00  0.00     0.030 A 
ATOM     22  C3  <0> d          -0.000  -0.696  -1.211  0.00  0.00     0.029 A 
ATOM     23  C8  <0> d          -0.021   0.004  -2.411  0.00  0.00     0.030 A 
ATOM     24  C7  <0> d          -0.018  -0.684  -3.609  0.00  0.00     0.010 A 
BRANCH  22  25
ATOM     25  N1  <0> d           0.002  -0.004   0.002  0.00  0.00    -0.390 N 
ATOM     26  C1  <0> d          -0.018   1.461   0.010  0.00  0.00     0.149 C 
ATOM     27  C2  <0> d           0.024  -0.743   1.267  0.00  0.00     0.149 C 
ENDBRANCH  22  25
ENDBRANCH   1  19
BRANCH   3  28
ATOM     28  N5  <0> d          -2.548  -3.940  -4.281  0.00  0.00    -0.383 N 
ATOM     29  H20 <0> d          -1.746  -4.169  -3.787  0.00  0.00     0.157 HD
ATOM     30  H19 <0> d          -3.398  -4.338  -4.038  0.00  0.00     0.157 HD
ENDBRANCH   3  28
TORSDOF 3
