REMARK  4 active torsions:
REMARK  status: ('A' for Active; 'I' for Inactive)
REMARK    1  A    between atoms: C7_7  and  N3_32 
REMARK    2  A    between atoms: C8_8  and  O2_23 
REMARK       I    between atoms: N1_12  and  C14_15 
REMARK    3  A    between atoms: C14_15  and  C15_17 
REMARK    4  A    between atoms: C15_17  and  C16_18 
ROOT
ATOM      1  C1  <0> d          -1.277   3.529  -0.090  0.00  0.00     0.001 A 
ATOM      2  C2  <0> d          -1.401   2.152  -0.063  0.00  0.00     0.001 A 
ATOM      3  C3  <0> d          -0.272   1.359  -0.010  0.00  0.00     0.009 A 
ATOM      4  C4  <0> d           0.987   1.938   0.005  0.00  0.00    -0.038 A 
ATOM      5  C5  <0> d           1.111   3.315  -0.030  0.00  0.00    -0.018 A 
ATOM      6  C6  <0> d          -0.024   4.108  -0.076  0.00  0.00     0.010 A 
ATOM      7  C7  <0> d           2.575   3.698  -0.006  0.00  0.00     0.252 C 
ATOM      8  C8  <0> d           3.336   2.411  -0.389  0.00  0.00     0.166 C 
ATOM      9  C9  <0> d           2.358   1.307   0.055  0.00  0.00     0.019 C 
ATOM     10  C10 <0> d           2.435   0.125  -0.907  0.00  0.00     0.037 C 
ATOM     11  C11 <0> d           3.852  -0.458  -0.886  0.00  0.00     0.127 C 
ATOM     12  N1  <0> d           4.214  -0.769   0.504  0.00  0.00    -0.352 N 
ATOM     13  C12 <0> d           4.105   0.289   1.518  0.00  0.00     0.127 C 
ATOM     14  C13 <0> d           2.685   0.865   1.478  0.00  0.00     0.037 C 
ATOM     15  C14 <0> d           4.638  -2.002   0.843  0.00  0.00     0.220 C 
ATOM     16  O1  <0> d           4.934  -2.247   1.993  0.00  0.00    -0.273 OA
ENDROOT
BRANCH   8  17
ATOM     17  O2  <0> d           3.561   2.353  -1.799  0.00  0.00    -0.392 OA
ATOM     18  H26 <0> d           4.170   3.029  -2.128  0.00  0.00     0.210 HD
ENDBRANCH   8  17
BRANCH   7  19
ATOM     19  N3  <0> d           2.963   4.126   1.357  0.00  0.00    -0.051 N 
ATOM     20  C21 <0> d           2.174   5.307   1.762  0.00  0.00     0.256 C 
ATOM     21  C22 <0> d           2.394   5.532   3.259  0.00  0.00     0.150 C 
ATOM     22  N2  <0> d           3.823   5.550   3.558  0.00  0.00    -0.358 N 
ATOM     23  C23 <0> d           4.745   5.051   2.729  0.00  0.00     0.243 C 
ATOM     24  H31 <0> d           4.117   5.942   4.396  0.00  0.00     0.162 HD
ATOM     25  O3  <0> d           5.909   5.078   3.070  0.00  0.00    -0.272 OA
ATOM     26  C24 <0> d           4.400   4.456   1.393  0.00  0.00     0.338 C 
ATOM     27  H34 <0> d           2.779   3.358   2.014  0.00  0.00     0.281 HD
ENDBRANCH   7  19
BRANCH  15  28
ATOM     28  C15 <0> d           4.745  -3.077  -0.208  0.00  0.00     0.107 C 
BRANCH  28  29
ATOM     29  C16 <0> d           5.246  -4.372   0.435  0.00  0.00    -0.006 C 
ATOM     30  C20 <0> d           5.241  -5.511  -0.599  0.00  0.00     0.005 C 
ATOM     31  C19 <0> d           6.700  -5.993  -0.731  0.00  0.00     0.000 C 
ATOM     32  C18 <0> d           7.361  -5.576   0.606  0.00  0.00     0.000 C 
ATOM     33  C17 <0> d           6.708  -4.201   0.895  0.00  0.00     0.005 C 
ENDBRANCH  28  29
ENDBRANCH  15  28
TORSDOF 4
