REMARK  7 active torsions:
REMARK  status: ('A' for Active; 'I' for Inactive)
REMARK    1  A    between atoms: C3_3  and  C7_10 
REMARK    2  A    between atoms: C7_10  and  N3_11 
REMARK    3  A    between atoms: N4_14  and  C14_20 
REMARK    4  A    between atoms: C10_15  and  C12_17 
REMARK    5  A    between atoms: C12_17  and  C13_18 
REMARK    6  A    between atoms: C13_18  and  O1_19 
REMARK    7  A    between atoms: C14_20  and  C15_21 
ROOT
ATOM      1  N3  <0> d           1.270   1.752   0.543  0.00  0.00    -0.062 N 
ATOM      2  C8  <0> d          -0.142   1.347   0.529  0.00  0.00     0.265 C 
ATOM      3  C9  <0> d          -0.234  -0.166   0.316  0.00  0.00     0.301 C 
ATOM      4  N4  <0> d           0.426  -0.521  -0.948  0.00  0.00     0.100 N 
ATOM      5  C10 <0> d           1.839  -0.116  -0.933  0.00  0.00     0.251 C 
ATOM      6  C11 <0> d           1.931   1.397  -0.721  0.00  0.00     0.271 C 
ATOM      7  H26 <0> d           1.772   1.204   1.355  0.00  0.00     0.280 HD
ENDROOT
BRANCH   1   8
ATOM      8  C7  <0> d           1.403   3.188   0.821  0.00  0.00     0.294 C 
BRANCH   8   9
ATOM      9  C3  <0> d           0.934   3.474   2.224  0.00  0.00     0.068 A 
ATOM     10  C2  <0> d          -0.318   3.795   2.591  0.00  0.00     0.058 A 
ATOM     11  C1  <0> d          -1.500   3.932   1.665  0.00  0.00     0.072 C 
ATOM     12  N2  <0> d          -0.339   3.970   3.921  0.00  0.00    -0.227 NA
ATOM     13  C6  <0> d           0.861   3.778   4.390  0.00  0.00     0.177 A 
ATOM     14  N1  <0> d           1.721   3.460   3.373  0.00  0.00    -0.301 N 
ATOM     15  S1  <0> d           1.915   3.743   5.820  0.00  0.00    -0.062 SA
ATOM     16  C4  <0> d           3.034   3.226   3.716  0.00  0.00     0.106 A 
ATOM     17  C5  <0> d           3.433   3.309   4.984  0.00  0.00     0.071 A 
ENDBRANCH   8   9
ENDBRANCH   1   8
BRANCH   5  18
ATOM     18  C12 <0> d           2.489  -0.485  -2.268  0.00  0.00     0.063 C 
BRANCH  18  19
ATOM     19  C13 <0> d           3.988  -0.185  -2.205  0.00  0.00     0.166 C 
BRANCH  19  20
ATOM     20  O1  <0> d           4.614  -0.631  -3.409  0.00  0.00    -0.401 OA
ATOM     21  H19 <0> d           5.698  -0.499  -3.547  0.00  0.00     0.209 HD
ENDBRANCH  19  20
ENDBRANCH  18  19
ENDBRANCH   5  18
BRANCH   4  22
ATOM     22  C14 <0> d           0.293  -1.958  -1.225  0.00  0.00     0.311 C 
BRANCH  22  23
ATOM     23  C15 <0> d           1.028  -2.743  -0.170  0.00  0.00    -0.030 A 
ATOM     24  C20 <0> d           0.399  -3.059   1.020  0.00  0.00     0.012 A 
ATOM     25  C19 <0> d           1.072  -3.780   1.988  0.00  0.00     0.043 A 
ATOM     26  C18 <0> d           2.377  -4.186   1.765  0.00  0.00     0.116 A 
ATOM     27  C17 <0> d           3.006  -3.869   0.573  0.00  0.00     0.043 A 
ATOM     28  F1  <0> d           3.036  -4.890   2.711  0.00  0.00    -0.206 F 
ATOM     29  C16 <0> d           2.329  -3.153  -0.396  0.00  0.00     0.012 A 
ENDBRANCH  22  23
ENDBRANCH   4  22
TORSDOF 7
