REMARK  4 active torsions:
REMARK  status: ('A' for Active; 'I' for Inactive)
REMARK    1  A    between atoms: N1_4  and  C7_9 
REMARK    2  A    between atoms: C7_9  and  C8_10 
REMARK    3  A    between atoms: C11_13  and  C12_15 
REMARK    4  A    between atoms: C12_15  and  N2_16 
ROOT
ATOM      1  C8  <0> d           4.197   0.234  -2.490  0.00  0.00     0.150 C 
ATOM      2  C9  <0> d           4.942  -0.121  -3.802  0.00  0.00     0.036 C 
ATOM      3  C10 <0> d           6.422   0.090  -3.401  0.00  0.00     0.036 C 
ATOM      4  C11 <0> d           6.414   0.002  -1.863  0.00  0.00     0.147 C 
ATOM      5  O2  <0> d           5.063  -0.282  -1.457  0.00  0.00    -0.377 OA
ENDROOT
BRANCH   1   6
ATOM      6  C7  <0> d           2.832  -0.456  -2.443  0.00  0.00     0.304 C 
BRANCH   6   7
ATOM      7  N1  <0> d           2.120  -0.050  -1.224  0.00  0.00     0.095 N 
ATOM      8  C3  <0> d           0.720  -0.499  -1.256  0.00  0.00     0.303 C 
ATOM      9  C2  <0> d           0.002  -0.004   0.002  0.00  0.00     0.146 C 
ATOM     10  C1  <0> d          -0.019   1.526   0.010  0.00  0.00     0.041 C 
ATOM     11  O1  <0> d           0.695  -0.479   1.159  0.00  0.00    -0.378 OA
ATOM     12  C5  <0> d           2.062  -0.059   1.223  0.00  0.00     0.146 C 
ATOM     13  C4  <0> d           2.801  -0.554  -0.023  0.00  0.00     0.303 C 
ATOM     14  C6  <0> d           2.719  -0.646   2.474  0.00  0.00     0.041 C 
ENDBRANCH   6   7
ENDBRANCH   1   6
BRANCH   4  15
ATOM     15  C12 <0> d           7.347  -1.119  -1.401  0.00  0.00     0.261 C 
BRANCH  15  16
ATOM     16  N2  <0> d           7.332  -1.196   0.066  0.00  0.00    -0.077 N 
ATOM     17  H23 <0> d           7.644  -0.318   0.452  0.00  0.00     0.274 HD
ATOM     18  H24 <0> d           6.393  -1.388   0.383  0.00  0.00     0.274 HD
ATOM     19  H25 <0> d           7.947  -1.936   0.370  0.00  0.00     0.274 HD
ENDBRANCH  15  16
ENDBRANCH   4  15
TORSDOF 4
