REMARK  4 active torsions:
REMARK  status: ('A' for Active; 'I' for Inactive)
REMARK    1  A    between atoms: C2_2  and  C3_3 
REMARK    2  A    between atoms: C3_3  and  C5_5 
REMARK    3  A    between atoms: C3_3  and  N2_18 
REMARK    4  A    between atoms: C6_7  and  C9_11 
ROOT
ATOM      1  C5  <0> d          -1.414  -2.036   0.129  0.00  0.00     0.111 A 
ATOM      2  N1  <0> d          -2.429  -2.859   0.165  0.00  0.00    -0.242 NA
ATOM      3  C6  <0> d          -2.253  -4.168   0.270  0.00  0.00     0.081 A 
ATOM      4  C7  <0> d          -0.958  -4.606   0.337  0.00  0.00     0.010 A 
ATOM      5  S1  <0> d          -0.079  -3.055   0.234  0.00  0.00    -0.075 SA
ATOM      6  C8  <0> d          -0.421  -6.010   0.459  0.00  0.00     0.059 C 
ENDROOT
BRANCH   1   7
ATOM      7  C3  <0> d          -1.433  -0.534   0.013  0.00  0.00     0.170 C 
ATOM      8  C4  <0> d          -2.135  -0.131  -1.286  0.00  0.00     0.054 C 
BRANCH   7   9
ATOM      9  C2  <0> d           0.002  -0.004   0.002  0.00  0.00     0.041 C 
ATOM     10  C1  <0> d          -0.019   1.526   0.010  0.00  0.00     0.008 C 
ENDBRANCH   7   9
BRANCH   7  11
ATOM     11  N2  <0> d          -2.157   0.036   1.157  0.00  0.00    -0.065 N 
ATOM     12  H16 <0> d          -2.170   1.042   1.080  0.00  0.00     0.275 HD
ATOM     13  H17 <0> d          -3.103  -0.313   1.165  0.00  0.00     0.275 HD
ATOM     14  H18 <0> d          -1.694  -0.229   2.014  0.00  0.00     0.275 HD
ENDBRANCH   7  11
ENDBRANCH   1   7
BRANCH   3  15
ATOM     15  C9  <0> d          -3.399  -5.109   0.313  0.00  0.00    -0.006 A 
ATOM     16  C14 <0> d          -4.583  -4.740   0.948  0.00  0.00     0.015 A 
ATOM     17  C13 <0> d          -5.648  -5.617   0.980  0.00  0.00     0.020 A 
ATOM     18  C12 <0> d          -5.538  -6.866   0.393  0.00  0.00     0.011 A 
ATOM     19  C11 <0> d          -4.362  -7.239  -0.234  0.00  0.00     0.020 A 
ATOM     20 Br1  <0> d          -6.999  -8.065   0.447  0.00  0.00    -0.051 Br
ATOM     21  C10 <0> d          -3.293  -6.368  -0.277  0.00  0.00     0.015 A 
ENDBRANCH   3  15
TORSDOF 4
