REMARK  4 active torsions:
REMARK  status: ('A' for Active; 'I' for Inactive)
REMARK       I    between atoms: C2_2  and  N1_4 
REMARK    1  A    between atoms: N1_4  and  C3_5 
REMARK    2  A    between atoms: C3_5  and  C4_6 
REMARK    3  A    between atoms: N2_10  and  C9_12 
REMARK    4  A    between atoms: C9_12  and  N3_13 
ROOT
ATOM      1  C4  <0> d          -2.571  -2.688   0.012  0.00  0.00     0.029 C 
ATOM      2  C5  <0> d          -3.274  -2.288  -1.288  0.00  0.00     0.009 C 
ATOM      3  C6  <0> d          -4.683  -2.888  -1.302  0.00  0.00     0.028 C 
ATOM      4  C7  <0> d          -4.585  -4.407  -1.139  0.00  0.00     0.237 C 
ATOM      5  N2  <0> d          -3.928  -4.725   0.134  0.00  0.00    -0.054 N 
ATOM      6  C8  <0> d          -2.552  -4.214   0.127  0.00  0.00     0.243 C 
ATOM      7  H21 <0> d          -4.440  -4.298   0.892  0.00  0.00     0.281 HD
ENDROOT
BRANCH   5   8
ATOM      8  C9  <0> d          -3.907  -6.182   0.322  0.00  0.00     0.367 C 
BRANCH   8   9
ATOM      9  N3  <0> d          -5.279  -6.677   0.459  0.00  0.00    -0.285 N 
ATOM     10  C17 <0> d          -6.047  -7.075  -0.570  0.00  0.00     0.300 A 
ATOM     11  C16 <0> d          -7.368  -7.506  -0.007  0.00  0.00     0.253 A 
ATOM     12  O3  <0> d          -5.728  -7.085  -1.741  0.00  0.00    -0.263 OA
ATOM     13  C15 <0> d          -7.247  -7.294   1.446  0.00  0.00     0.064 A 
ATOM     14  O2  <0> d          -8.328  -7.932  -0.616  0.00  0.00    -0.281 OA
ATOM     15  C10 <0> d          -5.955  -6.789   1.671  0.00  0.00     0.055 A 
ATOM     16  C14 <0> d          -8.121  -7.497   2.515  0.00  0.00     0.027 A 
ATOM     17  C11 <0> d          -5.565  -6.495   2.971  0.00  0.00     0.031 A 
ATOM     18  C12 <0> d          -6.439  -6.699   4.023  0.00  0.00     0.004 A 
ATOM     19  C13 <0> d          -7.711  -7.197   3.800  0.00  0.00     0.020 A 
ATOM     20 Br1  <0> d          -9.857  -8.179   2.207  0.00  0.00    -0.050 Br
ENDBRANCH   8   9
ENDBRANCH   5   8
BRANCH   1  21
ATOM     21  C3  <0> d          -1.136  -2.159   0.001  0.00  0.00     0.128 C 
BRANCH  21  22
ATOM     22  N1  <0> d          -1.156  -0.694   0.009  0.00  0.00    -0.361 N 
ATOM     23  C2  <0> d           0.002  -0.004   0.002  0.00  0.00     0.213 C 
ATOM     24  C1  <0> d          -0.018   1.503   0.010  0.00  0.00     0.117 C 
ATOM     25  O1  <0> d           1.060  -0.596  -0.011  0.00  0.00    -0.274 OA
ATOM     26  H5  <0> d          -2.002  -0.220   0.020  0.00  0.00     0.162 HD
ENDBRANCH  21  22
ENDBRANCH   1  21
TORSDOF 4
