REMARK  7 active torsions:
REMARK  status: ('A' for Active; 'I' for Inactive)
REMARK    1  A    between atoms: C2_2  and  C3_3 
REMARK    2  A    between atoms: C2_2  and  C4_5 
REMARK    3  A    between atoms: C2_2  and  O7_21 
REMARK    4  A    between atoms: C3_3  and  O1_4 
REMARK    5  A    between atoms: C4_5  and  C5_6 
REMARK    6  A    between atoms: C4_5  and  O6_20 
REMARK    7  A    between atoms: C7_10  and  O5_19 
ROOT
ATOM      1  C5  <0> d           1.846   2.033   3.030  0.00  0.00     0.249 C 
ATOM      2  C6  <0> d           0.738   1.940   4.032  0.00  0.00     0.279 C 
ATOM      3  O2  <0> d           0.742   2.678   4.994  0.00  0.00    -0.268 OA
ATOM      4  N1  <0> d          -0.267   1.049   3.884  0.00  0.00    -0.314 N 
ATOM      5  C7  <0> d          -0.293   0.234   2.656  0.00  0.00     0.242 C 
ATOM      6  C8  <0> d          -1.110   0.978   1.622  0.00  0.00    -0.023 C 
ATOM      7  C9  <0> d          -2.118   0.406   1.011  0.00  0.00     0.020 C 
ATOM      8  C10 <0> d          -0.714   2.422   1.317  0.00  0.00     0.065 C 
ATOM      9  C11 <0> d           0.751   2.475   0.891  0.00  0.00     0.176 C 
ATOM     10  O3  <0> d           1.554   2.886   1.957  0.00  0.00    -0.350 OA
ATOM     11  C12 <0> d           1.086  -0.094   2.200  0.00  0.00     0.281 C 
ATOM     12  O4  <0> d           1.281  -1.109   1.565  0.00  0.00    -0.267 OA
ATOM     13  N2  <0> d           2.123   0.701   2.467  0.00  0.00    -0.315 N 
ATOM     14  H8  <0> d          -0.950   0.948   4.565  0.00  0.00     0.166 HD
ATOM     15  H15 <0> d           3.034   0.413   2.297  0.00  0.00     0.166 HD
ENDROOT
BRANCH   1  16
ATOM     16  C4  <0> d           3.106   2.541   3.734  0.00  0.00     0.219 C 
BRANCH  16  17
ATOM     17  C2  <0> d           4.207   2.778   2.699  0.00  0.00     0.106 C 
ATOM     18  C1  <0> d           3.786   3.905   1.754  0.00  0.00     0.051 C 
BRANCH  17  19
ATOM     19  C3  <0> d           5.503   3.169   3.414  0.00  0.00     0.204 C 
BRANCH  19  20
ATOM     20  O1  <0> d           6.499   3.503   2.445  0.00  0.00    -0.398 OA
ATOM     21  H7  <0> d           7.348   3.761   2.828  0.00  0.00     0.209 HD
ENDBRANCH  19  20
ENDBRANCH  17  19
BRANCH  17  22
ATOM     22  O7  <0> d           4.420   1.581   1.948  0.00  0.00    -0.385 OA
ATOM     23  H18 <0> d           4.691   0.823   2.483  0.00  0.00     0.210 HD
ENDBRANCH  17  22
ENDBRANCH  16  17
BRANCH  16  24
ATOM     24  O6  <0> d           2.813   3.767   4.407  0.00  0.00    -0.387 OA
ATOM     25  H17 <0> d           2.508   4.474   3.823  0.00  0.00     0.210 HD
ENDBRANCH  16  24
ENDBRANCH   1  16
BRANCH   5  26
ATOM     26  O5  <0> d          -0.966  -0.992   2.953  0.00  0.00    -0.359 OA
ATOM     27  H16 <0> d          -0.514  -1.539   3.610  0.00  0.00     0.213 HD
ENDBRANCH   5  26
TORSDOF 7
