REMARK  4 active torsions:
REMARK  status: ('A' for Active; 'I' for Inactive)
REMARK    1  A    between atoms: C6_6  and  C7_7 
REMARK    2  A    between atoms: C7_7  and  C8_8 
REMARK    3  A    between atoms: C7_7  and  N1_15 
REMARK    4  A    between atoms: C8_8  and  C9_9 
ROOT
ATOM      1  C1  <0> d          -0.017   1.378   0.010  0.00  0.00     0.012 A 
ATOM      2  C2  <0> d           1.169   2.091   0.002  0.00  0.00     0.040 A 
ATOM      3  C3  <0> d           2.378   1.419  -0.013  0.00  0.00     0.096 A 
ATOM      4  C4  <0> d           2.397   0.025  -0.021  0.00  0.00     0.069 A 
ATOM      5  C5  <0> d           1.207  -0.684  -0.013  0.00  0.00     0.042 A 
ATOM      6  C6  <0> d           0.002  -0.004   0.002  0.00  0.00    -0.017 A 
ATOM      7  N2  <0> d           3.629  -0.644  -0.038  0.00  0.00    -0.323 N 
ATOM      8  C10 <0> d           4.751   0.043   0.269  0.00  0.00     0.246 C 
ATOM      9  O1  <0> d           5.831  -0.507   0.231  0.00  0.00    -0.271 OA
ATOM     10  C11 <0> d           4.655   1.496   0.659  0.00  0.00     0.278 C 
ATOM     11  O2  <0> d           3.552   2.104  -0.020  0.00  0.00    -0.340 OA
ATOM     12  H7  <0> d           3.675  -1.586  -0.267  0.00  0.00     0.169 HD
ENDROOT
BRANCH   6  13
ATOM     13  C7  <0> d          -1.294  -0.773   0.011  0.00  0.00     0.332 C 
BRANCH  13  14
ATOM     14  C8  <0> d          -1.846  -0.825   1.437  0.00  0.00     0.373 C 
ATOM     15  F4  <0> d          -0.921  -1.461   2.272  0.00  0.00    -0.193 F 
ATOM     16  F5  <0> d          -2.073   0.476   1.897  0.00  0.00    -0.193 F 
BRANCH  14  17
ATOM     17  C9  <0> d          -3.162  -1.606   1.446  0.00  0.00     0.457 C 
ATOM     18  F1  <0> d          -2.935  -2.908   0.986  0.00  0.00    -0.165 F 
ATOM     19  F2  <0> d          -3.667  -1.654   2.750  0.00  0.00    -0.165 F 
ATOM     20  F3  <0> d          -4.087  -0.971   0.611  0.00  0.00    -0.165 F 
ENDBRANCH  14  17
ENDBRANCH  13  14
BRANCH  13  21
ATOM     21  N1  <0> d          -2.265  -0.106  -0.866  0.00  0.00     0.093 N 
ATOM     22  H5  <0> d          -3.121  -0.636  -0.928  0.00  0.00     0.314 HD
ATOM     23  H6  <0> d          -2.446   0.837  -0.554  0.00  0.00     0.314 HD
ENDBRANCH  13  21
ENDBRANCH   6  13
TORSDOF 4
