REMARK  5 active torsions:
REMARK  status: ('A' for Active; 'I' for Inactive)
REMARK    1  A    between atoms: C4_4  and  C9_10 
REMARK    2  A    between atoms: C5_5  and  O1_9 
REMARK    3  A    between atoms: C9_10  and  N1_11 
REMARK    4  A    between atoms: C12_14  and  C15_17 
REMARK    5  A    between atoms: C15_17  and  N2_18 
ROOT
ATOM      1  N1  <0> d           1.589  -2.859  -3.192  0.00  0.00    -0.067 N 
ATOM      2  C10 <0> d           1.875  -3.841  -2.139  0.00  0.00     0.235 C 
ATOM      3  C11 <0> d           3.293  -4.389  -2.319  0.00  0.00     0.034 C 
ATOM      4  C12 <0> d           3.404  -5.062  -3.690  0.00  0.00     0.015 C 
ATOM      5  C13 <0> d           3.031  -4.049  -4.776  0.00  0.00     0.034 C 
ATOM      6  C14 <0> d           1.623  -3.513  -4.505  0.00  0.00     0.235 C 
ATOM      7  H36 <0> d           2.283  -2.127  -3.164  0.00  0.00     0.280 HD
ENDROOT
BRANCH   1   8
ATOM      8  C9  <0> d           0.258  -2.279  -2.970  0.00  0.00     0.276 C 
BRANCH   8   9
ATOM      9  C4  <0> d           0.263  -1.485  -1.689  0.00  0.00     0.001 A 
ATOM     10  C3  <0> d          -0.346  -1.993  -0.558  0.00  0.00     0.019 A 
ATOM     11  C2  <0> d          -0.341  -1.265   0.618  0.00  0.00    -0.055 A 
ATOM     12  C1  <0> d          -1.006  -1.822   1.850  0.00  0.00     0.049 C 
ATOM     13  C7  <0> d           0.269  -0.025   0.663  0.00  0.00    -0.053 A 
ATOM     14  C6  <0> d           0.884   0.485  -0.464  0.00  0.00     0.044 A 
ATOM     15  C8  <0> d           0.267   0.768   1.944  0.00  0.00     0.049 C 
ATOM     16  C5  <0> d           0.880  -0.243  -1.644  0.00  0.00     0.074 A 
BRANCH  16  17
ATOM     17  O1  <0> d           1.481   0.258  -2.756  0.00  0.00    -0.360 OA
ATOM     18  H9  <0> d           0.919   0.851  -3.273  0.00  0.00     0.217 HD
ENDBRANCH  16  17
ENDBRANCH   8   9
ENDBRANCH   1   8
BRANCH   4  19
ATOM     19  C15 <0> d           4.840  -5.542  -3.909  0.00  0.00     0.239 C 
BRANCH  19  20
ATOM     20  N2  <0> d           4.927  -6.256  -5.191  0.00  0.00    -0.071 N 
ATOM     21  C21 <0> d           6.267  -6.544  -5.452  0.00  0.00     0.235 C 
ATOM     22  C20 <0> d           6.457  -7.212  -6.830  0.00  0.00     0.028 C 
ATOM     23  C19 <0> d           6.080  -8.668  -6.726  0.00  0.00     0.002 C 
ATOM     24  C18 <0> d           4.606  -8.922  -7.101  0.00  0.00     0.002 C 
ATOM     25  C17 <0> d           3.676  -7.837  -6.527  0.00  0.00     0.028 C 
ATOM     26  C16 <0> d           4.072  -7.457  -5.122  0.00  0.00     0.235 C 
ATOM     27  H35 <0> d           4.577  -5.653  -5.920  0.00  0.00     0.279 HD
ENDBRANCH  19  20
ENDBRANCH   4  19
TORSDOF 5
