REMARK  6 active torsions:
REMARK  status: ('A' for Active; 'I' for Inactive)
REMARK    1  A    between atoms: C3_3  and  C10_12 
REMARK    2  A    between atoms: C10_12  and  N4_35 
REMARK    3  A    between atoms: C13_15  and  C16_18 
REMARK    4  A    between atoms: C16_18  and  C19_25 
REMARK    5  A    between atoms: C19_25  and  C20_26 
REMARK    6  A    between atoms: C20_26  and  C21_27 
ROOT
ATOM      1  C11 <0> d          -5.270   4.493   4.339  0.00  0.00     0.235 C 
ATOM      2  C12 <0> d          -4.876   4.142   2.903  0.00  0.00     0.035 C 
ATOM      3  C13 <0> d          -3.480   3.511   2.902  0.00  0.00     0.026 C 
ATOM      4  C14 <0> d          -3.485   2.275   3.805  0.00  0.00     0.035 C 
ATOM      5  C15 <0> d          -3.921   2.680   5.215  0.00  0.00     0.235 C 
ATOM      6  N4  <0> d          -5.281   3.257   5.150  0.00  0.00    -0.067 N 
ATOM      7  H31 <0> d          -5.911   2.576   4.711  0.00  0.00     0.280 HD
ENDROOT
BRANCH   3   8
ATOM      8  C16 <0> d          -3.105   3.102   1.476  0.00  0.00     0.119 A 
ATOM      9  N3  <0> d          -3.047   4.280   0.594  0.00  0.00    -0.324 N 
ATOM     10  C18 <0> d          -3.975   4.091  -0.362  0.00  0.00     0.323 A 
ATOM     11  H21 <0> d          -2.455   5.043   0.684  0.00  0.00     0.165 HD
ATOM     12  N2  <0> d          -4.634   2.936  -0.213  0.00  0.00    -0.277 N 
ATOM     13  O2  <0> d          -4.192   4.882  -1.259  0.00  0.00    -0.247 OA
ATOM     14  C17 <0> d          -4.198   2.250   0.861  0.00  0.00     0.254 A 
ATOM     15  H20 <0> d          -5.338   2.630  -0.806  0.00  0.00     0.173 HD
ATOM     16  O1  <0> d          -4.597   1.175   1.255  0.00  0.00    -0.270 OA
BRANCH   8  17
ATOM     17  C19 <0> d          -1.770   2.355   1.466  0.00  0.00     0.046 C 
BRANCH  17  18
ATOM     18  C20 <0> d          -1.332   2.114   0.020  0.00  0.00     0.041 C 
BRANCH  18  19
ATOM     19  C21 <0> d          -0.017   1.378   0.010  0.00  0.00    -0.058 A 
ATOM     20  C26 <0> d           0.002  -0.004   0.002  0.00  0.00     0.007 A 
ATOM     21  C25 <0> d           1.208  -0.679  -0.014  0.00  0.00     0.001 A 
ATOM     22  C24 <0> d           2.396   0.029  -0.022  0.00  0.00     0.000 A 
ATOM     23  C23 <0> d           2.377   1.411  -0.014  0.00  0.00     0.001 A 
ATOM     24  C22 <0> d           1.171   2.086   0.002  0.00  0.00     0.007 A 
ENDBRANCH  18  19
ENDBRANCH  17  18
ENDBRANCH   8  17
ENDBRANCH   3   8
BRANCH   6  25
ATOM     25  C10 <0> d          -5.769   3.552   6.513  0.00  0.00     0.276 C 
BRANCH  25  26
ATOM     26  C3  <0> d          -5.519   2.357   7.397  0.00  0.00     0.002 A 
ATOM     27  C2  <0> d          -6.351   1.321   7.591  0.00  0.00     0.014 A 
ATOM     28  C1  <0> d          -7.705   1.166   6.950  0.00  0.00     0.068 C 
ATOM     29  N1  <0> d          -5.784   0.424   8.456  0.00  0.00    -0.359 N 
ATOM     30  C9  <0> d          -4.547   0.878   8.856  0.00  0.00     0.043 A 
ATOM     31  H1  <0> d          -6.194  -0.405   8.746  0.00  0.00     0.166 HD
ATOM     32  C4  <0> d          -4.327   2.108   8.210  0.00  0.00     0.000 A 
ATOM     33  C8  <0> d          -3.572   0.373   9.710  0.00  0.00     0.030 A 
ATOM     34  C5  <0> d          -3.139   2.808   8.431  0.00  0.00     0.014 A 
ATOM     35  C6  <0> d          -2.195   2.294   9.274  0.00  0.00     0.001 A 
ATOM     36  C7  <0> d          -2.407   1.080   9.913  0.00  0.00     0.002 A 
ENDBRANCH  25  26
ENDBRANCH   6  25
TORSDOF 6
