REMARK  7 active torsions:
REMARK  status: ('A' for Active; 'I' for Inactive)
REMARK    1  A    between atoms: C6_6  and  C7_7 
REMARK    2  A    between atoms: C7_7  and  C8_8 
REMARK    3  A    between atoms: C8_8  and  C9_9 
REMARK    4  A    between atoms: C9_9  and  N1_10 
REMARK    5  A    between atoms: N2_13  and  C14_16 
REMARK    6  A    between atoms: C14_16  and  C15_17 
REMARK    7  A    between atoms: C15_17  and  O1_18 
ROOT
ATOM      1  C8  <0> d          -1.744  -1.028  -1.431  0.00  0.00     0.032 C 
ENDROOT
BRANCH   1   2
ATOM      2  C7  <0> d          -1.293  -0.775   0.009  0.00  0.00     0.040 C 
BRANCH   2   3
ATOM      3  C6  <0> d           0.002  -0.004   0.002  0.00  0.00    -0.056 A 
ATOM      4  C1  <0> d          -0.017   1.378   0.010  0.00  0.00     0.010 A 
ATOM      5  C2  <0> d           1.168   2.092   0.002  0.00  0.00     0.039 A 
ATOM      6  C3  <0> d           2.381   1.422  -0.012  0.00  0.00     0.095 A 
ATOM      7  O2  <0> d           3.541   2.132  -0.024  0.00  0.00    -0.347 OA
ATOM      8  C4  <0> d           2.398   0.030  -0.017  0.00  0.00     0.062 A 
ATOM      9  C17 <0> d           4.734   1.466   0.397  0.00  0.00     0.195 C 
ATOM     10  C16 <0> d           4.837   0.123  -0.339  0.00  0.00     0.146 C 
ATOM     11  N3  <0> d           3.625  -0.652  -0.024  0.00  0.00    -0.386 N 
ATOM     12  H23 <0> d           3.673  -1.601   0.171  0.00  0.00     0.159 HD
ATOM     13  C5  <0> d           1.208  -0.681  -0.011  0.00  0.00     0.039 A 
ENDBRANCH   2   3
ENDBRANCH   1   2
BRANCH   1  14
ATOM     14  C9  <0> d          -3.059  -1.810  -1.424  0.00  0.00     0.235 C 
BRANCH  14  15
ATOM     15  N1  <0> d          -3.492  -2.053  -2.806  0.00  0.00    -0.068 N 
ATOM     16  C13 <0> d          -4.688  -2.905  -2.802  0.00  0.00     0.265 C 
ATOM     17  C12 <0> d          -5.128  -3.174  -4.242  0.00  0.00     0.300 C 
ATOM     18  N2  <0> d          -5.418  -1.897  -4.910  0.00  0.00     0.093 N 
ATOM     19  C11 <0> d          -4.236  -1.023  -4.900  0.00  0.00     0.300 C 
ATOM     20  C10 <0> d          -3.803  -0.772  -3.454  0.00  0.00     0.265 C 
ATOM     21  H28 <0> d          -2.752  -2.514  -3.314  0.00  0.00     0.280 HD
BRANCH  18  22
ATOM     22  C14 <0> d          -5.899  -2.116  -6.280  0.00  0.00     0.298 C 
BRANCH  22  23
ATOM     23  C15 <0> d          -7.260  -2.814  -6.237  0.00  0.00     0.194 C 
BRANCH  23  24
ATOM     24  O1  <0> d          -8.222  -1.948  -5.633  0.00  0.00    -0.399 OA
ATOM     25  H22 <0> d          -9.109  -2.326  -5.573  0.00  0.00     0.209 HD
ENDBRANCH  23  24
ENDBRANCH  22  23
ENDBRANCH  18  22
ENDBRANCH  14  15
ENDBRANCH   1  14
TORSDOF 7
