REMARK  5 active torsions:
REMARK  status: ('A' for Active; 'I' for Inactive)
REMARK    1  A    between atoms: C4_4  and  S1_25 
REMARK    2  A    between atoms: C6_6  and  N1_9 
REMARK       I    between atoms: N1_9  and  C9_10 
REMARK    3  A    between atoms: C9_10  and  C10_12 
REMARK    4  A    between atoms: C10_12  and  C11_13 
REMARK    5  A    between atoms: S1_25  and  N3_28 
ROOT
ATOM      1  N1  <0> d           0.052  -2.797   2.393  0.00  0.00    -0.326 N 
ATOM      2  C9  <0> d          -0.031  -4.143   2.385  0.00  0.00     0.226 C 
ATOM      3  O1  <0> d          -0.028  -4.745   1.333  0.00  0.00    -0.273 OA
ATOM      4  H9  <0> d           0.130  -2.321   3.234  0.00  0.00     0.169 HD
ENDROOT
BRANCH   1   5
ATOM      5  C6  <0> d           0.026  -2.088   1.187  0.00  0.00     0.042 A 
ATOM      6  C5  <0> d          -0.580  -2.642   0.067  0.00  0.00     0.055 A 
ATOM      7  C4  <0> d          -0.605  -1.940  -1.122  0.00  0.00     0.082 A 
ATOM      8  C3  <0> d          -0.027  -0.686  -1.198  0.00  0.00     0.032 A 
ATOM      9  C2  <0> d           0.577  -0.131  -0.084  0.00  0.00    -0.052 A 
ATOM     10  C1  <0> d           1.206   1.236  -0.172  0.00  0.00     0.049 C 
ATOM     11  C7  <0> d           0.610  -0.831   1.106  0.00  0.00    -0.029 A 
ATOM     12  C8  <0> d           1.274  -0.228   2.317  0.00  0.00     0.051 C 
BRANCH   7  13
ATOM     13  S1  <0> d          -1.374  -2.642  -2.544  0.00  0.00     0.256 S 
ATOM     14  O2  <0> d          -2.317  -3.591  -2.067  0.00  0.00    -0.201 OA
ATOM     15  O3  <0> d          -1.743  -1.556  -3.383  0.00  0.00    -0.201 OA
BRANCH  13  16
ATOM     16  N3  <0> d          -0.212  -3.496  -3.357  0.00  0.00    -0.324 N 
ATOM     17  H22 <0> d           0.695  -3.530  -3.014  0.00  0.00     0.169 HD
ATOM     18  H23 <0> d          -0.438  -3.962  -4.177  0.00  0.00     0.169 HD
ENDBRANCH  13  16
ENDBRANCH   7  13
ENDBRANCH   1   5
BRANCH   2  19
ATOM     19  C10 <0> d          -0.129  -4.898   3.686  0.00  0.00     0.144 C 
BRANCH  19  20
ATOM     20  C11 <0> d          -0.210  -6.376   3.402  0.00  0.00    -0.020 A 
ATOM     21  C19 <0> d           0.955  -7.135   3.318  0.00  0.00     0.013 A 
ATOM     22  N2  <0> d           0.924  -8.423   3.078  0.00  0.00    -0.359 N 
ATOM     23  C20 <0> d           2.287  -6.458   3.513  0.00  0.00     0.068 C 
ATOM     24  C18 <0> d          -0.233  -9.068   2.893  0.00  0.00     0.043 A 
ATOM     25  H24 <0> d           1.756  -8.919   3.030  0.00  0.00     0.166 HD
ATOM     26  C13 <0> d          -1.455  -8.355   2.960  0.00  0.00    -0.003 A 
ATOM     27  C17 <0> d          -0.260 -10.449   2.631  0.00  0.00     0.030 A 
ATOM     28  C12 <0> d          -1.426  -6.972   3.223  0.00  0.00    -0.041 A 
ATOM     29  C14 <0> d          -2.668  -9.036   2.764  0.00  0.00     0.014 A 
ATOM     30  C21 <0> d          -2.700  -6.172   3.304  0.00  0.00     0.050 C 
ATOM     31  C15 <0> d          -2.654 -10.374   2.512  0.00  0.00     0.001 A 
ATOM     32  C16 <0> d          -1.453 -11.077   2.446  0.00  0.00     0.002 A 
ENDBRANCH  19  20
ENDBRANCH   2  19
TORSDOF 5
