REMARK  5 active torsions:
REMARK  status: ('A' for Active; 'I' for Inactive)
REMARK    1  A    between atoms: C3_3  and  C11_13 
REMARK    2  A    between atoms: N1_5  and  C5_7 
REMARK       I    between atoms: C11_13  and  N3_15 
REMARK    3  A    between atoms: N3_15  and  C12_16 
REMARK    4  A    between atoms: C12_16  and  C13_17 
REMARK    5  A    between atoms: C13_17  and  O2_27 
ROOT
ATOM      1  C11 <0> d          -0.225  -0.395  -2.555  0.00  0.00     0.255 C 
ATOM      2  O1  <0> d          -0.109   0.793  -2.788  0.00  0.00    -0.268 OA
ATOM      3  N3  <0> d          -0.189  -1.287  -3.564  0.00  0.00    -0.354 N 
ATOM      4  H10 <0> d          -0.281  -2.235  -3.378  0.00  0.00     0.162 HD
ENDROOT
BRANCH   3   5
ATOM      5  C12 <0> d          -0.009  -0.826  -4.943  0.00  0.00     0.165 C 
BRANCH   5   6
ATOM      6  C13 <0> d           0.129  -2.034  -5.872  0.00  0.00     0.101 C 
ATOM      7  C18 <0> d           0.362  -1.554  -7.280  0.00  0.00    -0.016 A 
ATOM      8  C17 <0> d           1.282  -2.140  -8.120  0.00  0.00    -0.049 A 
ATOM      9  C19 <0> d          -0.391  -0.477  -7.730  0.00  0.00     0.011 A 
ATOM     10  C16 <0> d           2.138  -3.306  -7.698  0.00  0.00     0.039 C 
ATOM     11  C22 <0> d           1.444  -1.653  -9.411  0.00  0.00     0.007 A 
ATOM     12  C15 <0> d           1.554  -3.980  -6.458  0.00  0.00     0.008 C 
ATOM     13  C14 <0> d           1.294  -2.901  -5.400  0.00  0.00     0.045 C 
ATOM     14  C21 <0> d           0.693  -0.585  -9.856  0.00  0.00     0.001 A 
ATOM     15  C20 <0> d          -0.228   0.006  -9.011  0.00  0.00     0.001 A 
BRANCH   6  16
ATOM     16  O2  <0> d          -1.076  -2.801  -5.829  0.00  0.00    -0.383 OA
ATOM     17  H23 <0> d          -1.863  -2.313  -6.107  0.00  0.00     0.211 HD
ENDBRANCH   6  16
ENDBRANCH   5   6
ENDBRANCH   3   5
BRANCH   1  18
ATOM     18  C3  <0> d          -0.406  -0.860  -1.167  0.00  0.00     0.075 A 
ATOM     19  C2  <0> d          -0.464  -0.048  -0.012  0.00  0.00     0.068 A 
ATOM     20  C1  <0> d          -0.351   1.455   0.021  0.00  0.00     0.073 C 
ATOM     21  N2  <0> d          -0.626  -0.827   1.022  0.00  0.00    -0.172 NA
ATOM     22  N1  <0> d          -0.688  -2.155   0.585  0.00  0.00    -0.244 N 
ATOM     23  C4  <0> d          -0.550  -2.169  -0.753  0.00  0.00     0.138 A 
BRANCH  22  24
ATOM     24  C5  <0> d          -0.860  -3.280   1.403  0.00  0.00     0.058 A 
ATOM     25  C10 <0> d          -0.992  -3.127   2.776  0.00  0.00     0.031 A 
ATOM     26  C9  <0> d          -1.167  -4.237   3.579  0.00  0.00     0.002 A 
ATOM     27  C8  <0> d          -1.199  -5.501   3.017  0.00  0.00     0.000 A 
ATOM     28  C7  <0> d          -1.063  -5.656   1.650  0.00  0.00     0.002 A 
ATOM     29  C6  <0> d          -0.894  -4.549   0.841  0.00  0.00     0.031 A 
ENDBRANCH  22  24
ENDBRANCH   1  18
TORSDOF 5
