REMARK  6 active torsions:
REMARK  status: ('A' for Active; 'I' for Inactive)
REMARK    1  A    between atoms: C4_4  and  N5_27 
REMARK    2  A    between atoms: C7_7  and  N1_8 
REMARK       I    between atoms: N1_8  and  C8_9 
REMARK    3  A    between atoms: C8_9  and  C9_11 
REMARK       I    between atoms: C9_11  and  N2_13 
REMARK    4  A    between atoms: N2_13  and  C10_14 
REMARK    5  A    between atoms: C10_14  and  C11_15 
REMARK    6  A    between atoms: C15_20  and  N4_21 
ROOT
ATOM      1  C9  <0> d           0.013   0.238   4.840  0.00  0.00     0.309 C 
ATOM      2  O2  <0> d          -0.182   1.435   4.801  0.00  0.00    -0.262 OA
ATOM      3  N2  <0> d           0.116  -0.390   6.027  0.00  0.00    -0.349 N 
ATOM      4  H8  <0> d           0.272  -1.347   6.058  0.00  0.00     0.163 HD
ENDROOT
BRANCH   1   5
ATOM      5  C8  <0> d           0.139  -0.539   3.571  0.00  0.00     0.314 C 
ATOM      6  N1  <0> d           0.037   0.090   2.383  0.00  0.00    -0.319 N 
ATOM      7  H7  <0> d          -0.064   1.054   2.351  0.00  0.00     0.169 HD
ATOM      8  O1  <0> d           0.334  -1.736   3.609  0.00  0.00    -0.262 OA
BRANCH   6   9
ATOM      9  C7  <0> d           0.074  -0.648   1.195  0.00  0.00     0.041 A 
ATOM     10  C2  <0> d          -0.542  -0.157   0.052  0.00  0.00    -0.033 A 
ATOM     11  C1  <0> d          -1.252   1.172   0.090  0.00  0.00     0.050 C 
ATOM     12  C3  <0> d          -0.500  -0.883  -1.122  0.00  0.00     0.038 A 
ATOM     13  C4  <0> d           0.154  -2.107  -1.157  0.00  0.00     0.030 A 
ATOM     14  C5  <0> d           0.766  -2.602  -0.012  0.00  0.00     0.031 A 
ATOM     15  C6  <0> d           0.724  -1.876   1.161  0.00  0.00     0.032 A 
BRANCH  13  16
ATOM     16  N5  <0> d           0.197  -2.843  -2.346  0.00  0.00    -0.390 N 
ATOM     17  C20 <0> d          -0.548  -2.381  -3.520  0.00  0.00     0.149 C 
ATOM     18  C21 <0> d           0.986  -4.075  -2.417  0.00  0.00     0.149 C 
ENDBRANCH  13  16
ENDBRANCH   6   9
ENDBRANCH   1   5
BRANCH   3  19
ATOM     19  C10 <0> d          -0.008   0.372   7.272  0.00  0.00     0.165 C 
BRANCH  19  20
ATOM     20  C11 <0> d           0.144  -0.559   8.448  0.00  0.00     0.004 A 
ATOM     21  C15 <0> d           1.398  -1.042   8.807  0.00  0.00     0.111 A 
ATOM     22  N3  <0> d           1.535  -1.855   9.844  0.00  0.00    -0.352 N 
ATOM     23  C14 <0> d           0.498  -2.244  10.560  0.00  0.00     0.089 A 
ATOM     24  H28 <0> d           2.420  -2.177  10.079  0.00  0.00     0.166 HD
ATOM     25  C13 <0> d          -0.776  -1.807  10.257  0.00  0.00     0.018 A 
ATOM     26  C12 <0> d          -0.963  -0.948   9.182  0.00  0.00     0.014 A 
BRANCH  21  27
ATOM     27  N4  <0> d           2.517  -0.664   8.075  0.00  0.00    -0.363 N 
ATOM     28  C19 <0> d           2.904  -1.387   6.853  0.00  0.00     0.150 C 
ATOM     29  C18 <0> d           4.384  -1.754   6.951  0.00  0.00     0.187 C 
ATOM     30  O3  <0> d           5.142  -0.583   7.262  0.00  0.00    -0.388 OA
ATOM     31  C17 <0> d           4.817   0.006   8.524  0.00  0.00     0.187 C 
ATOM     32  C16 <0> d           3.355   0.468   8.504  0.00  0.00     0.150 C 
ENDBRANCH  21  27
ENDBRANCH  19  20
ENDBRANCH   3  19
TORSDOF 6
