REMARK  8 active torsions:
REMARK  status: ('A' for Active; 'I' for Inactive)
REMARK    1  A    between atoms: C10_11  and  N1_14 
REMARK    2  A    between atoms: C11_12  and  O2_13 
REMARK    3  A    between atoms: N1_14  and  C12_15 
REMARK    4  A    between atoms: N1_14  and  C14_18 
REMARK    5  A    between atoms: C12_15  and  C13_16 
REMARK    6  A    between atoms: C13_16  and  O3_17 
REMARK    7  A    between atoms: C14_18  and  C15_19 
REMARK    8  A    between atoms: C15_19  and  O4_20 
ROOT
ATOM      1  C1  <0> d           0.751   1.088   0.946  0.00  0.00     0.049 C 
ATOM      2  C2  <0> d           0.569  -0.377   0.643  0.00  0.00    -0.055 A 
ATOM      3  C3  <0> d           0.570  -0.817  -0.667  0.00  0.00     0.020 A 
ATOM      4  C4  <0> d           0.404  -2.162  -0.953  0.00  0.00     0.006 A 
ATOM      5  C5  <0> d           0.240  -3.070   0.079  0.00  0.00     0.079 A 
ATOM      6  C6  <0> d           0.238  -2.623   1.396  0.00  0.00     0.044 A 
ATOM      7  C7  <0> d           0.408  -1.282   1.675  0.00  0.00    -0.053 A 
ATOM      8  C8  <0> d           0.412  -0.804   3.104  0.00  0.00     0.049 C 
ATOM      9  O1  <0> d           0.086  -4.399  -0.155  0.00  0.00    -0.338 OA
ATOM     10  C9  <0> d          -0.278  -4.806  -1.475  0.00  0.00     0.092 C 
ATOM     11  C10 <0> d           0.656  -4.110  -2.472  0.00  0.00     0.255 C 
ATOM     12  C11 <0> d           0.405  -2.602  -2.395  0.00  0.00     0.188 C 
ATOM     13  C16 <0> d          -0.132  -6.324  -1.605  0.00  0.00     0.048 C 
ATOM     14  C17 <0> d          -1.727  -4.402  -1.758  0.00  0.00     0.048 C 
ENDROOT
BRANCH  11  15
ATOM     15  N1  <0> d           2.054  -4.399  -2.125  0.00  0.00    -0.057 N 
ATOM     16  H28 <0> d           2.178  -5.395  -2.028  0.00  0.00     0.280 HD
BRANCH  15  17
ATOM     17  C12 <0> d           2.937  -3.896  -3.186  0.00  0.00     0.261 C 
BRANCH  17  18
ATOM     18  C13 <0> d           2.660  -4.660  -4.483  0.00  0.00     0.192 C 
BRANCH  18  19
ATOM     19  O3  <0> d           1.405  -4.241  -5.024  0.00  0.00    -0.399 OA
ATOM     20  H16 <0> d           1.165  -4.685  -5.849  0.00  0.00     0.209 HD
ENDBRANCH  18  19
ENDBRANCH  17  18
ENDBRANCH  15  17
BRANCH  15  21
ATOM     21  C14 <0> d           2.390  -3.738  -0.856  0.00  0.00     0.261 C 
BRANCH  21  22
ATOM     22  C15 <0> d           3.865  -3.979  -0.530  0.00  0.00     0.192 C 
BRANCH  22  23
ATOM     23  O4  <0> d           4.681  -3.210  -1.416  0.00  0.00    -0.399 OA
ATOM     24  H21 <0> d           5.629  -3.371  -1.317  0.00  0.00     0.209 HD
ENDBRANCH  22  23
ENDBRANCH  21  22
ENDBRANCH  15  21
ENDBRANCH  11  15
BRANCH  12  25
ATOM     25  O2  <0> d          -0.861  -2.300  -2.985  0.00  0.00    -0.389 OA
ATOM     26  H11 <0> d          -1.085  -1.360  -2.974  0.00  0.00     0.210 HD
ENDBRANCH  12  25
TORSDOF 8
