REMARK  3 active torsions:
REMARK  status: ('A' for Active; 'I' for Inactive)
REMARK    1  A    between atoms: C7_7  and  N1_8 
REMARK       I    between atoms: N1_8  and  C8_9 
REMARK    2  A    between atoms: C8_9  and  C9_11 
REMARK    3  A    between atoms: C9_11  and  N2_12 
ROOT
ATOM      1  N2  <0> d          -0.241  -0.905   5.988  0.00  0.00    -0.345 N 
ATOM      2  C10 <0> d          -1.442  -1.435   6.325  0.00  0.00     0.096 A 
ATOM      3  C11 <0> d          -1.587  -2.321   7.332  0.00  0.00     0.073 A 
ATOM      4  C12 <0> d          -0.461  -2.733   8.083  0.00  0.00     0.185 A 
ATOM      5  O2  <0> d          -0.571  -3.534   8.997  0.00  0.00    -0.287 OA
ATOM      6  C13 <0> d           0.850  -2.163   7.724  0.00  0.00     0.044 A 
ATOM      7  C14 <0> d           0.913  -1.249   6.657  0.00  0.00     0.088 A 
ATOM      8  C15 <0> d           2.144  -0.703   6.299  0.00  0.00     0.144 A 
ATOM      9  C16 <0> d           3.280  -1.069   6.991  0.00  0.00     0.045 A 
ATOM     10  C17 <0> d           3.210  -1.976   8.039  0.00  0.00     0.004 A 
ATOM     11  C18 <0> d           2.010  -2.515   8.413  0.00  0.00     0.018 A 
ATOM     12  F1  <0> d           2.224   0.181   5.281  0.00  0.00    -0.204 F 
ENDROOT
BRANCH   1  13
ATOM     13  C9  <0> d          -0.168   0.052   4.882  0.00  0.00     0.231 C 
BRANCH  13  14
ATOM     14  C8  <0> d           0.233  -0.667   3.620  0.00  0.00     0.240 C 
ATOM     15  N1  <0> d           0.365   0.017   2.467  0.00  0.00    -0.325 N 
ATOM     16  H8  <0> d           0.268   0.982   2.462  0.00  0.00     0.169 HD
ATOM     17  O1  <0> d           0.438  -1.863   3.643  0.00  0.00    -0.271 OA
BRANCH  15  18
ATOM     18  C7  <0> d           0.643  -0.665   1.277  0.00  0.00     0.040 A 
ATOM     19  C2  <0> d           0.115  -0.210   0.076  0.00  0.00    -0.035 A 
ATOM     20  C1  <0> d          -0.758   1.018   0.052  0.00  0.00     0.050 C 
ATOM     21  C3  <0> d           0.396  -0.882  -1.098  0.00  0.00     0.009 A 
ATOM     22  C4  <0> d           1.196  -2.009  -1.077  0.00  0.00     0.001 A 
ATOM     23  C5  <0> d           1.720  -2.467   0.118  0.00  0.00     0.002 A 
ATOM     24  C6  <0> d           1.443  -1.800   1.295  0.00  0.00     0.030 A 
ENDBRANCH  15  18
ENDBRANCH  13  14
ENDBRANCH   1  13
TORSDOF 3
