REMARK  6 active torsions:
REMARK  status: ('A' for Active; 'I' for Inactive)
REMARK    1  A    between atoms: C3_3  and  C11_14 
REMARK    2  A    between atoms: N2_6  and  C5_7 
REMARK    3  A    between atoms: C11_14  and  N3_26 
REMARK    4  A    between atoms: C13_16  and  C14_17 
REMARK    5  A    between atoms: C13_16  and  N3_26 
REMARK    6  A    between atoms: C17_20  and  O1_24 
ROOT
ATOM      1  C11 <0> d           1.331   1.423  -0.129  0.00  0.00     0.218 C 
ATOM      2  C12 <0> d           1.390   2.853   0.413  0.00  0.00     0.045 C 
ENDROOT
BRANCH   1   3
ATOM      3  C3  <0> d           2.268   0.547   0.662  0.00  0.00     0.015 A 
ATOM      4  C2  <0> d           3.608   0.459   0.493  0.00  0.00     0.042 A 
ATOM      5  C1  <0> d           4.429   1.218  -0.518  0.00  0.00     0.071 C 
ATOM      6  N2  <0> d           4.079  -0.430   1.397  0.00  0.00    -0.238 N 
ATOM      7  N1  <0> d           2.990  -0.909   2.137  0.00  0.00    -0.179 NA
ATOM      8  C4  <0> d           1.906  -0.323   1.696  0.00  0.00     0.150 A 
BRANCH   6   9
ATOM      9  C5  <0> d           5.418  -0.810   1.560  0.00  0.00     0.061 A 
ATOM     10  C10 <0> d           6.423   0.146   1.512  0.00  0.00     0.073 A 
ATOM     11  C9  <0> d           7.744  -0.232   1.674  0.00  0.00     0.118 A 
ATOM     12  C8  <0> d           8.062  -1.563   1.884  0.00  0.00     0.042 A 
ATOM     13  F1  <0> d           8.723   0.698   1.628  0.00  0.00    -0.206 F 
ATOM     14  C7  <0> d           7.062  -2.516   1.932  0.00  0.00     0.005 A 
ATOM     15  C6  <0> d           5.742  -2.143   1.776  0.00  0.00     0.032 A 
ENDBRANCH   6   9
ENDBRANCH   1   3
BRANCH   1  16
ATOM     16  N3  <0> d          -0.043   0.903   0.001  0.00  0.00    -0.063 N 
ATOM     17  H19 <0> d          -0.466   1.275   0.859  0.00  0.00     0.278 HD
ATOM     18  H20 <0> d          -0.014  -0.122   0.049  0.00  0.00     0.278 HD
BRANCH  16  19
ATOM     19  C13 <0> d          -0.857   1.313  -1.159  0.00  0.00     0.271 C 
BRANCH  19  20
ATOM     20  C14 <0> d          -2.253   0.768  -1.000  0.00  0.00    -0.031 A 
ATOM     21  C19 <0> d          -3.215   1.517  -0.348  0.00  0.00     0.035 A 
ATOM     22  C18 <0> d          -4.497   1.019  -0.201  0.00  0.00     0.067 A 
ATOM     23  C17 <0> d          -4.816  -0.233  -0.708  0.00  0.00     0.087 A 
ATOM     24 Cl1  <0> d          -5.705   1.960   0.618  0.00  0.00    -0.081 Cl
ATOM     25  C16 <0> d          -3.848  -0.981  -1.361  0.00  0.00     0.039 A 
ATOM     26  C15 <0> d          -2.571  -0.477  -1.511  0.00  0.00     0.012 A 
BRANCH  23  27
ATOM     27  O1  <0> d          -6.075  -0.725  -0.564  0.00  0.00    -0.359 OA
ATOM     28  H18 <0> d          -6.671  -0.497  -1.291  0.00  0.00     0.217 HD
ENDBRANCH  23  27
ENDBRANCH  19  20
ENDBRANCH  16  19
ENDBRANCH   1  16
TORSDOF 6
