REMARK  8 active torsions:
REMARK  status: ('A' for Active; 'I' for Inactive)
REMARK    1  A    between atoms: N1_2  and  C2_3 
REMARK       I    between atoms: N1_2  and  C16_18 
REMARK    2  A    between atoms: C2_3  and  C3_4 
REMARK    3  A    between atoms: C8_9  and  C9_10 
REMARK    4  A    between atoms: C8_9  and  N4_31 
REMARK    5  A    between atoms: C9_10  and  C10_11 
REMARK    6  A    between atoms: C16_18  and  C17_20 
REMARK    7  A    between atoms: C17_20  and  C18_21 
REMARK    8  A    between atoms: C18_21  and  C19_22 
ROOT
ATOM      1  C3  <0> d           1.210   1.339  -5.022  0.00  0.00     0.007 C 
ATOM      2  C4  <0> d          -0.193   0.748  -4.858  0.00  0.00     0.034 C 
ATOM      3  C5  <0> d          -0.870   1.381  -3.640  0.00  0.00     0.235 C 
ATOM      4  C6  <0> d           1.271   1.718  -2.555  0.00  0.00     0.235 C 
ATOM      5  C7  <0> d           2.011   1.095  -3.740  0.00  0.00     0.034 C 
ATOM      6  N4  <0> d          -0.062   1.089  -2.437  0.00  0.00    -0.071 N 
ATOM      7  H30 <0> d           0.055   0.073  -2.353  0.00  0.00     0.279 HD
ENDROOT
BRANCH   1   8
ATOM      8  C2  <0> d           1.914   0.665  -6.201  0.00  0.00     0.130 C 
BRANCH   8   9
ATOM      9  N1  <0> d           3.208   1.313  -6.432  0.00  0.00    -0.356 N 
ATOM     10  C1  <0> d           3.303   2.455  -7.344  0.00  0.00     0.152 C 
ATOM     11  C16 <0> d           4.310   0.858  -5.805  0.00  0.00     0.219 C 
ATOM     12  O1  <0> d           4.232  -0.088  -5.050  0.00  0.00    -0.273 OA
BRANCH  11  13
ATOM     13  C17 <0> d           5.641   1.524  -6.043  0.00  0.00     0.105 C 
BRANCH  13  14
ATOM     14  C18 <0> d           6.719   0.819  -5.217  0.00  0.00     0.044 C 
BRANCH  14  15
ATOM     15  C19 <0> d           8.070   1.495  -5.458  0.00  0.00     0.179 A 
ATOM     16  N3  <0> d           8.560   1.205  -6.816  0.00  0.00    -0.330 N 
ATOM     17  C21 <0> d           9.723   0.543  -6.673  0.00  0.00     0.323 A 
ATOM     18  H29 <0> d           8.128   1.444  -7.652  0.00  0.00     0.165 HD
ATOM     19  N2  <0> d          10.054   0.365  -5.389  0.00  0.00    -0.278 N 
ATOM     20  O3  <0> d          10.396   0.151  -7.605  0.00  0.00    -0.247 OA
ATOM     21  C20 <0> d           9.134   0.896  -4.560  0.00  0.00     0.248 A 
ATOM     22  H28 <0> d          10.857  -0.091  -5.092  0.00  0.00     0.173 HD
ATOM     23  O2  <0> d           9.153   0.894  -3.348  0.00  0.00    -0.271 OA
ENDBRANCH  14  15
ENDBRANCH  13  14
ENDBRANCH  11  13
ENDBRANCH   8   9
ENDBRANCH   1   8
BRANCH   6  24
ATOM     24  C8  <0> d          -0.753   1.593  -1.232  0.00  0.00     0.239 C 
BRANCH  24  25
ATOM     25  C9  <0> d          -0.013   1.086   0.008  0.00  0.00     0.066 C 
BRANCH  25  26
ATOM     26  C10 <0> d          -0.718   1.572   1.248  0.00  0.00    -0.057 A 
ATOM     27  C15 <0> d          -1.719   0.808   1.817  0.00  0.00     0.009 A 
ATOM     28  C14 <0> d          -2.367   1.253   2.955  0.00  0.00     0.024 A 
ATOM     29  C13 <0> d          -2.012   2.464   3.523  0.00  0.00     0.034 A 
ATOM     30  C12 <0> d          -1.010   3.228   2.952  0.00  0.00     0.024 A 
ATOM     31 Cl1  <0> d          -2.825   3.024   4.951  0.00  0.00    -0.084 Cl
ATOM     32  C11 <0> d          -0.360   2.779   1.818  0.00  0.00     0.009 A 
ENDBRANCH  25  26
ENDBRANCH  24  25
ENDBRANCH   6  24
TORSDOF 8
