REMARK  5 active torsions:
REMARK  status: ('A' for Active; 'I' for Inactive)
REMARK    1  A    between atoms: C3_3  and  C12_17 
REMARK    2  A    between atoms: N3_6  and  C4_7 
REMARK       I    between atoms: C12_17  and  N4_19 
REMARK    3  A    between atoms: N4_19  and  C13_20 
REMARK    4  A    between atoms: C13_20  and  C14_21 
REMARK    5  A    between atoms: C14_21  and  N5_23 
ROOT
ATOM      1  C1  <0> d          -0.533   0.592   0.531  0.00  0.00     0.073 C 
ATOM      2  C2  <0> d          -0.396  -0.897   0.344  0.00  0.00     0.070 A 
ATOM      3  C3  <0> d          -0.312  -1.565  -0.845  0.00  0.00     0.172 A 
ATOM      4  N1  <0> d          -0.200  -2.879  -0.588  0.00  0.00    -0.124 NA
ATOM      5  N2  <0> d          -0.208  -3.072   0.685  0.00  0.00    -0.060 NA
ATOM      6  N3  <0> d          -0.328  -1.828   1.320  0.00  0.00    -0.218 N 
ENDROOT
BRANCH   3   7
ATOM      7  C12 <0> d          -0.341  -0.947  -2.184  0.00  0.00     0.274 C 
ATOM      8  O3  <0> d          -0.448   0.259  -2.295  0.00  0.00    -0.266 OA
ATOM      9  N4  <0> d          -0.249  -1.720  -3.284  0.00  0.00    -0.353 N 
ATOM     10  H12 <0> d          -0.165  -2.682  -3.196  0.00  0.00     0.162 HD
BRANCH   9  11
ATOM     11  C13 <0> d          -0.278  -1.107  -4.615  0.00  0.00     0.155 C 
BRANCH  11  12
ATOM     12  C14 <0> d          -0.013  -2.177  -5.675  0.00  0.00     0.201 C 
ATOM     13  C15 <0> d           0.047  -1.522  -7.057  0.00  0.00     0.042 C 
BRANCH  12  14
ATOM     14  N5  <0> d           1.267  -2.841  -5.392  0.00  0.00    -0.073 N 
ATOM     15  C16 <0> d           1.474  -3.934  -6.351  0.00  0.00     0.269 C 
ATOM     16  C17 <0> d           2.361  -1.868  -5.514  0.00  0.00     0.269 C 
ATOM     17  H24 <0> d           1.252  -3.214  -4.455  0.00  0.00     0.279 HD
ENDBRANCH  12  14
ENDBRANCH  11  12
ENDBRANCH   9  11
ENDBRANCH   3   7
BRANCH   6  18
ATOM     18  C4  <0> d          -0.370  -1.595   2.703  0.00  0.00     0.063 A 
ATOM     19  C9  <0> d          -0.993  -2.509   3.542  0.00  0.00     0.071 A 
ATOM     20  C8  <0> d          -1.031  -2.281   4.909  0.00  0.00     0.104 A 
ATOM     21  C7  <0> d          -0.451  -1.133   5.436  0.00  0.00     0.102 A 
ATOM     22  O1  <0> d          -1.647  -3.186   5.719  0.00  0.00    -0.346 OA
ATOM     23  C6  <0> d           0.165  -0.220   4.594  0.00  0.00     0.042 A 
ATOM     24  O2  <0> d          -0.477  -0.893   6.776  0.00  0.00    -0.346 OA
ATOM     25  C5  <0> d           0.206  -0.449   3.233  0.00  0.00     0.034 A 
ATOM     26  C11 <0> d          -1.428  -1.638   7.545  0.00  0.00     0.202 C 
ATOM     27  C10 <0> d          -1.345  -3.109   7.116  0.00  0.00     0.202 C 
ENDBRANCH   6  18
TORSDOF 5
