REMARK  3 active torsions:
REMARK  status: ('A' for Active; 'I' for Inactive)
REMARK    1  A    between atoms: N2_9  and  C8_13 
REMARK    2  A    between atoms: C8_13  and  C9_14 
REMARK    3  A    between atoms: C12_17  and  N3_20 
ROOT
ATOM      1  C1  <0> d          -0.017   1.375   0.010  0.00  0.00     0.002 A 
ATOM      2  C2  <0> d           1.164   2.096   0.002  0.00  0.00     0.002 A 
ATOM      3  C3  <0> d           2.381   1.433  -0.013  0.00  0.00     0.028 A 
ATOM      4  C4  <0> d           2.407   0.063  -0.021  0.00  0.00     0.108 A 
ATOM      5  C5  <0> d           1.223  -0.684  -0.013  0.00  0.00     0.081 A 
ATOM      6  C6  <0> d           0.002  -0.004   0.002  0.00  0.00     0.033 A 
ATOM      7  N1  <0> d           1.257  -2.046  -0.018  0.00  0.00    -0.242 NA
ATOM      8  C7  <0> d           2.264  -2.801   0.244  0.00  0.00     0.221 C 
ATOM      9  N2  <0> d           3.509  -2.328   0.577  0.00  0.00    -0.262 N 
ATOM     10  S1  <0> d           3.931  -0.834  -0.042  0.00  0.00     0.268 S 
ATOM     11  O1  <0> d           4.795  -0.217   0.902  0.00  0.00    -0.200 OA
ATOM     12  O2  <0> d           4.286  -1.029  -1.405  0.00  0.00    -0.200 OA
ENDROOT
BRANCH   9  13
ATOM     13  C8  <0> d           4.420  -3.092   1.433  0.00  0.00     0.181 C 
BRANCH  13  14
ATOM     14  C9  <0> d           5.194  -4.074   0.591  0.00  0.00    -0.039 A 
ATOM     15  C14 <0> d           6.402  -3.701   0.031  0.00  0.00     0.011 A 
ATOM     16  C13 <0> d           7.117  -4.600  -0.736  0.00  0.00     0.029 A 
ATOM     17  C12 <0> d           6.615  -5.877  -0.955  0.00  0.00     0.025 A 
ATOM     18  C11 <0> d           5.398  -6.247  -0.396  0.00  0.00     0.029 A 
ATOM     19  C10 <0> d           4.692  -5.344   0.375  0.00  0.00     0.011 A 
BRANCH  17  20
ATOM     20  N3  <0> d           7.332  -6.787  -1.734  0.00  0.00    -0.399 N 
ATOM     21  H12 <0> d           6.981  -7.678  -1.886  0.00  0.00     0.156 HD
ATOM     22  H13 <0> d           8.182  -6.527  -2.124  0.00  0.00     0.156 HD
ENDBRANCH  17  20
ENDBRANCH  13  14
ENDBRANCH   9  13
TORSDOF 3
