REMARK  3 active torsions:
REMARK  status: ('A' for Active; 'I' for Inactive)
REMARK    1  A    between atoms: C9_12  and  N5_14 
REMARK    2  A    between atoms: N5_14  and  N6_15 
REMARK    3  A    between atoms: C10_16  and  C11_17 
ROOT
ATOM      1  C1  <0> d          -0.016   1.348   0.009  0.00  0.00     0.001 A 
ATOM      2  C2  <0> d           1.156   2.116   0.002  0.00  0.00     0.002 A 
ATOM      3  C3  <0> d           2.382   1.544  -0.019  0.00  0.00     0.030 A 
ATOM      4  C4  <0> d           2.490   0.081  -0.034  0.00  0.00     0.042 A 
ATOM      5  N1  <0> d           3.530  -0.719  -0.024  0.00  0.00    -0.361 N 
ATOM      6  C5  <0> d           3.070  -2.089  -0.174  0.00  0.00     0.281 C 
ATOM      7  C6  <0> d           1.561  -2.038  -0.014  0.00  0.00     0.112 C 
ATOM      8  C7  <0> d           1.230  -0.705  -0.014  0.00  0.00     0.021 A 
ATOM      9  C8  <0> d           0.002  -0.004   0.002  0.00  0.00     0.016 A 
ATOM     10  N2  <0> d           0.842  -3.139   0.220  0.00  0.00    -0.160 NA
ATOM     11  N3  <0> d           1.473  -4.102   0.821  0.00  0.00    -0.106 N 
ATOM     12  C9  <0> d           2.754  -3.971   1.242  0.00  0.00     0.734 C 
ATOM     13  N4  <0> d           3.565  -3.019   0.839  0.00  0.00    -0.072 NA
ATOM     14  H12 <0> d           1.013  -4.942   0.974  0.00  0.00     0.208 HD
ATOM     15  H13 <0> d           4.455  -0.441   0.070  0.00  0.00     0.162 HD
ENDROOT
BRANCH  12  16
ATOM     16  N5  <0> d           3.239  -4.895   2.146  0.00  0.00    -0.106 N 
ATOM     17  H6  <0> d           2.666  -5.611   2.461  0.00  0.00     0.208 HD
BRANCH  16  18
ATOM     18  N6  <0> d           4.558  -4.798   2.608  0.00  0.00    -0.172 NA
ATOM     19  C10 <0> d           5.013  -5.667   3.459  0.00  0.00     0.150 C 
BRANCH  19  20
ATOM     20  C11 <0> d           6.401  -5.564   3.945  0.00  0.00    -0.016 A 
ATOM     21  C16 <0> d           6.894  -6.498   4.860  0.00  0.00     0.031 A 
ATOM     22  C15 <0> d           8.197  -6.399   5.306  0.00  0.00     0.007 A 
ATOM     23  C14 <0> d           9.009  -5.372   4.859  0.00  0.00     0.018 A 
ATOM     24  I1  <0> d           8.943  -7.803   6.671  0.00  0.00    -0.045 I 
ATOM     25  C13 <0> d           8.525  -4.441   3.957  0.00  0.00     0.002 A 
ATOM     26  C12 <0> d           7.228  -4.530   3.498  0.00  0.00     0.013 A 
ENDBRANCH  19  20
ENDBRANCH  16  18
ENDBRANCH  12  16
TORSDOF 3
