REMARK  5 active torsions:
REMARK  status: ('A' for Active; 'I' for Inactive)
REMARK    1  A    between atoms: C2_2  and  C3_3 
REMARK       I    between atoms: C3_3  and  N1_5 
REMARK    2  A    between atoms: N1_5  and  C4_6 
REMARK    3  A    between atoms: N2_10  and  C9_12 
REMARK    4  A    between atoms: C9_12  and  N3_13 
REMARK    5  A    between atoms: C11_17  and  N5_19 
ROOT
ATOM      1  C4  <0> d          -3.014  -2.361   0.018  0.00  0.00     0.113 C 
ATOM      2  C5  <0> d          -3.523  -2.430   1.461  0.00  0.00     0.029 C 
ATOM      3  C6  <0> d          -4.937  -3.017   1.468  0.00  0.00     0.032 C 
ATOM      4  C7  <0> d          -4.914  -4.399   0.811  0.00  0.00     0.275 C 
ATOM      5  N2  <0> d          -4.421  -4.280  -0.567  0.00  0.00     0.109 N 
ATOM      6  C8  <0> d          -3.047  -3.762  -0.597  0.00  0.00     0.299 C 
ENDROOT
BRANCH   5   7
ATOM      7  C9  <0> d          -4.515  -5.564  -1.272  0.00  0.00     0.424 C 
BRANCH   7   8
ATOM      8  N3  <0> d          -5.885  -5.759  -1.752  0.00  0.00    -0.222 N 
ATOM      9  N4  <0> d          -6.353  -5.062  -2.843  0.00  0.00    -0.143 NA
ATOM     10  C11 <0> d          -7.575  -5.242  -3.272  0.00  0.00     0.190 A 
ATOM     11  S2  <0> d          -8.200  -6.451  -2.115  0.00  0.00    -0.019 SA
ATOM     12  C10 <0> d          -6.721  -6.625  -1.127  0.00  0.00     0.166 A 
ATOM     13  S1  <0> d          -6.437  -7.617   0.239  0.00  0.00    -0.051 SA
BRANCH  10  14
ATOM     14  N5  <0> d          -8.222  -4.644  -4.344  0.00  0.00    -0.367 N 
ATOM     15  C12 <0> d          -7.513  -3.666  -5.174  0.00  0.00     0.151 C 
ATOM     16  C13 <0> d          -9.613  -4.990  -4.646  0.00  0.00     0.151 C 
ENDBRANCH  10  14
ENDBRANCH   7   8
ENDBRANCH   5   7
BRANCH   1  17
ATOM     17  N1  <0> d          -1.640  -1.854   0.008  0.00  0.00    -0.355 N 
ATOM     18  C3  <0> d          -1.412  -0.526   0.013  0.00  0.00     0.217 C 
ATOM     19  O1  <0> d          -2.344   0.250   0.026  0.00  0.00    -0.274 OA
ATOM     20  H7  <0> d          -0.894  -2.474  -0.003  0.00  0.00     0.162 HD
BRANCH  18  21
ATOM     21  C2  <0> d           0.002  -0.004   0.002  0.00  0.00     0.098 C 
ATOM     22  C1  <0> d          -0.019   1.526   0.010  0.00  0.00     0.014 C 
ENDBRANCH  18  21
ENDBRANCH   1  17
TORSDOF 5
