REMARK  7 active torsions:
REMARK  status: ('A' for Active; 'I' for Inactive)
REMARK    1  A    between atoms: C2_2  and  C3_3 
REMARK    2  A    between atoms: C2_2  and  C18_22 
REMARK       I    between atoms: N1_6  and  C8_9 
REMARK    3  A    between atoms: C8_9  and  C9_11 
REMARK    4  A    between atoms: C14_16  and  O2_20 
REMARK       I    between atoms: C18_22  and  N3_24 
REMARK    5  A    between atoms: N3_24  and  C19_25 
REMARK    6  A    between atoms: C19_25  and  C20_26 
REMARK    7  A    between atoms: C20_26  and  N4_27 
ROOT
ATOM      1  C3  <0> d          -1.433  -0.534   0.013  0.00  0.00     0.001 C 
ATOM      2  C4  <0> d          -2.174  -0.025  -1.226  0.00  0.00     0.025 C 
ATOM      3  C5  <0> d          -3.620  -0.529  -1.194  0.00  0.00     0.126 C 
ATOM      4  N1  <0> d          -3.609  -1.992  -1.056  0.00  0.00    -0.350 N 
ATOM      5  C6  <0> d          -2.850  -2.591   0.050  0.00  0.00     0.126 C 
ATOM      6  C7  <0> d          -1.412  -2.064   0.004  0.00  0.00     0.025 C 
ATOM      7  C8  <0> d          -4.282  -2.769  -1.927  0.00  0.00     0.246 C 
ATOM      8  O1  <0> d          -4.904  -2.262  -2.837  0.00  0.00    -0.271 OA
ENDROOT
BRANCH   1   9
ATOM      9  C2  <0> d           0.002  -0.004   0.002  0.00  0.00     0.078 C 
ATOM     10  C1  <0> d          -0.019   1.526   0.010  0.00  0.00     0.020 C 
BRANCH   9  11
ATOM     11  C18 <0> d           0.731  -0.503   1.223  0.00  0.00     0.221 C 
ATOM     12  O3  <0> d           0.159  -1.213   2.023  0.00  0.00    -0.273 OA
ATOM     13  N3  <0> d           2.019  -0.161   1.426  0.00  0.00    -0.359 N 
ATOM     14  H22 <0> d           2.476   0.406   0.786  0.00  0.00     0.162 HD
BRANCH  13  15
ATOM     15  C19 <0> d           2.727  -0.647   2.613  0.00  0.00     0.152 C 
BRANCH  15  16
ATOM     16  C20 <0> d           4.163  -0.117   2.602  0.00  0.00     0.292 C 
BRANCH  16  17
ATOM     17  N4  <0> d           4.873  -0.604   3.792  0.00  0.00     0.093 N 
ATOM     18  C24 <0> d           6.312  -0.317   3.700  0.00  0.00     0.300 C 
ATOM     19  C23 <0> d           7.022  -0.891   4.928  0.00  0.00     0.264 C 
ATOM     20  N5  <0> d           6.462  -0.288   6.145  0.00  0.00    -0.072 N 
ATOM     21  C22 <0> d           5.030  -0.604   6.235  0.00  0.00     0.264 C 
ATOM     22  C25 <0> d           7.156  -0.826   7.322  0.00  0.00     0.269 C 
ATOM     23  H39 <0> d           6.583   0.713   6.111  0.00  0.00     0.279 HD
ATOM     24  C21 <0> d           4.303  -0.028   5.018  0.00  0.00     0.300 C 
ENDBRANCH  16  17
ENDBRANCH  15  16
ENDBRANCH  13  15
ENDBRANCH   9  11
ENDBRANCH   1   9
BRANCH   7  25
ATOM     25  C9  <0> d          -4.260  -4.268  -1.772  0.00  0.00     0.198 A 
ATOM     26  N2  <0> d          -5.078  -4.896  -2.816  0.00  0.00    -0.373 N 
ATOM     27  C16 <0> d          -6.049  -5.566  -2.237  0.00  0.00     0.041 A 
ATOM     28  H38 <0> d          -4.927  -4.827  -3.772  0.00  0.00     0.161 HD
ATOM     29  C11 <0> d          -5.952  -5.438  -0.764  0.00  0.00    -0.011 A 
ATOM     30  C15 <0> d          -7.106  -6.345  -2.771  0.00  0.00     0.066 A 
ATOM     31  C10 <0> d          -4.889  -4.664  -0.456  0.00  0.00     0.021 A 
ATOM     32  C12 <0> d          -6.955  -6.123   0.062  0.00  0.00     0.016 A 
ATOM     33  C13 <0> d          -7.925  -6.842  -0.544  0.00  0.00     0.037 A 
ATOM     34  C14 <0> d          -7.997  -6.950  -1.946  0.00  0.00     0.070 A 
BRANCH  34  35
ATOM     35  O2  <0> d          -8.996  -7.687  -2.492  0.00  0.00    -0.356 OA
ATOM     36  C17 <0> d          -9.913  -8.308  -1.589  0.00  0.00     0.210 C 
ENDBRANCH  34  35
ENDBRANCH   7  25
TORSDOF 7
