REMARK  8 active torsions:
REMARK  status: ('A' for Active; 'I' for Inactive)
REMARK    1  A    between atoms: C6_6  and  C11_11 
REMARK    2  A    between atoms: C11_11  and  C12_12 
REMARK    3  A    between atoms: C11_11  and  O3_29 
REMARK    4  A    between atoms: C12_12  and  N1_13 
REMARK       I    between atoms: N1_13  and  C13_14 
REMARK       I    between atoms: C13_14  and  N2_16 
REMARK    5  A    between atoms: N2_16  and  C14_17 
REMARK    6  A    between atoms: C14_17  and  C15_18 
REMARK    7  A    between atoms: C15_18  and  C16_19 
REMARK    8  A    between atoms: C15_18  and  N3_24 
ROOT
ATOM      1  N1  <0> d           6.719  -3.776   1.299  0.00  0.00    -0.340 N 
ATOM      2  C13 <0> d           7.176  -4.346   2.431  0.00  0.00     0.316 C 
ATOM      3  O1  <0> d           6.457  -4.419   3.409  0.00  0.00    -0.247 OA
ATOM      4  N2  <0> d           8.431  -4.835   2.480  0.00  0.00    -0.341 N 
ATOM      5  H12 <0> d           7.292  -3.718   0.519  0.00  0.00     0.164 HD
ATOM      6  H13 <0> d           9.005  -4.777   1.700  0.00  0.00     0.164 HD
ENDROOT
BRANCH   1   7
ATOM      7  C12 <0> d           5.354  -3.245   1.246  0.00  0.00     0.161 C 
BRANCH   7   8
ATOM      8  C11 <0> d           5.089  -2.658  -0.142  0.00  0.00     0.169 C 
BRANCH   8   9
ATOM      9  C6  <0> d           3.732  -2.002  -0.159  0.00  0.00    -0.027 A 
ATOM     10  C5  <0> d           3.639  -0.651  -0.029  0.00  0.00     0.022 A 
ATOM     11  C4  <0> d           2.375  -0.036  -0.045  0.00  0.00    -0.025 A 
ATOM     12  C3  <0> d           2.239   1.356   0.086  0.00  0.00     0.012 A 
ATOM     13  C9  <0> d           1.216  -0.836  -0.197  0.00  0.00    -0.026 A 
ATOM     14  C2  <0> d           0.999   1.917   0.067  0.00  0.00     0.001 A 
ATOM     15  C1  <0> d          -0.142   1.129  -0.083  0.00  0.00     0.001 A 
ATOM     16  C10 <0> d          -0.048  -0.222  -0.213  0.00  0.00     0.012 A 
ATOM     17  C8  <0> d           1.352  -2.229  -0.328  0.00  0.00     0.013 A 
ATOM     18  C7  <0> d           2.592  -2.789  -0.308  0.00  0.00     0.011 A 
ENDBRANCH   8   9
BRANCH   8  19
ATOM     19  O3  <0> d           5.126  -3.702  -1.116  0.00  0.00    -0.389 OA
ATOM     20  H27 <0> d           4.471  -4.399  -0.971  0.00  0.00     0.210 HD
ENDBRANCH   8  19
ENDBRANCH   7   8
ENDBRANCH   1   7
BRANCH   4  21
ATOM     21  C14 <0> d           8.929  -5.455   3.710  0.00  0.00     0.164 C 
BRANCH  21  22
ATOM     22  C15 <0> d          10.332  -6.014   3.468  0.00  0.00     0.262 C 
BRANCH  22  23
ATOM     23  C16 <0> d          11.285  -4.880   3.194  0.00  0.00     0.085 A 
ATOM     24  O2  <0> d          11.851  -4.088   4.119  0.00  0.00    -0.325 OA
ATOM     25  C19 <0> d          12.645  -3.189   3.514  0.00  0.00     0.142 A 
ATOM     26  C18 <0> d          12.585  -3.395   2.187  0.00  0.00     0.027 A 
ATOM     27  C17 <0> d          11.709  -4.484   1.980  0.00  0.00     0.037 A 
ENDBRANCH  22  23
BRANCH  22  28
ATOM     28  N3  <0> d          10.778  -6.751   4.659  0.00  0.00    -0.059 N 
ATOM     29  C23 <0> d          12.129  -7.309   4.437  0.00  0.00     0.236 C 
ATOM     30  C22 <0> d          12.179  -8.671   5.155  0.00  0.00     0.029 C 
ATOM     31  C21 <0> d          10.771  -8.857   5.764  0.00  0.00     0.029 C 
ATOM     32  C20 <0> d           9.892  -7.918   4.900  0.00  0.00     0.236 C 
ATOM     33  H28 <0> d          10.780  -6.143   5.464  0.00  0.00     0.280 HD
ENDBRANCH  22  28
ENDBRANCH  21  22
ENDBRANCH   4  21
TORSDOF 8
