REMARK  8 active torsions:
REMARK  status: ('A' for Active; 'I' for Inactive)
REMARK    1  A    between atoms: C2_2  and  S1_4 
REMARK    2  A    between atoms: S1_4  and  C4_7 
REMARK    3  A    between atoms: C7_10  and  C10_13 
REMARK    4  A    between atoms: C10_13  and  C11_14 
REMARK    5  A    between atoms: C10_13  and  N2_17 
REMARK    6  A    between atoms: C11_14  and  N1_15 
REMARK    7  A    between atoms: N1_15  and  O3_16 
REMARK    8  A    between atoms: C14_21  and  S2_23 
ROOT
ATOM      1  C10 <0> d          -1.163  -6.594   0.476  0.00  0.00     0.236 C 
ENDROOT
BRANCH   1   2
ATOM      2  C7  <0> d          -1.379  -5.151   0.101  0.00  0.00    -0.026 A 
ATOM      3  C6  <0> d          -1.442  -4.784  -1.231  0.00  0.00     0.011 A 
ATOM      4  C5  <0> d          -1.641  -3.461  -1.575  0.00  0.00     0.024 A 
ATOM      5  C4  <0> d          -1.780  -2.503  -0.587  0.00  0.00     0.059 A 
ATOM      6  C9  <0> d          -1.712  -2.869   0.744  0.00  0.00     0.024 A 
ATOM      7  C8  <0> d          -1.517  -4.193   1.088  0.00  0.00     0.011 A 
BRANCH   5   8
ATOM      8  S1  <0> d          -2.034  -0.816  -1.026  0.00  0.00     0.178 S 
ATOM      9  O1  <0> d          -2.717  -0.251   0.086  0.00  0.00    -0.222 OA
ATOM     10  O2  <0> d          -2.649  -0.863  -2.306  0.00  0.00    -0.222 OA
BRANCH   8  11
ATOM     11  C2  <0> d          -0.368  -0.112  -1.159  0.00  0.00     0.105 C 
ATOM     12  C1  <0> d          -0.469   1.393  -1.417  0.00  0.00     0.026 C 
ATOM     13  C3  <0> d           0.395  -0.356   0.145  0.00  0.00     0.026 C 
ENDBRANCH   8  11
ENDBRANCH   5   8
ENDBRANCH   1   2
BRANCH   1  14
ATOM     14  C11 <0> d           0.308  -6.811   0.838  0.00  0.00     0.155 C 
BRANCH  14  15
ATOM     15  N1  <0> d           1.146  -6.544  -0.339  0.00  0.00    -0.206 NA
ATOM     16  H16 <0> d           0.820  -7.062  -1.141  0.00  0.00     0.153 HD
BRANCH  15  17
ATOM     17  O3  <0> d           2.551  -6.841  -0.060  0.00  0.00    -0.316 OA
ATOM     18  H17 <0> d           3.143  -6.679  -0.807  0.00  0.00     0.236 HD
ENDBRANCH  15  17
ENDBRANCH  14  15
ENDBRANCH   1  14
BRANCH   1  19
ATOM     19  N2  <0> d          -2.006  -6.932   1.631  0.00  0.00    -0.057 N 
ATOM     20  C15 <0> d          -3.415  -6.686   1.296  0.00  0.00     0.282 C 
ATOM     21  C14 <0> d          -4.292  -7.020   2.505  0.00  0.00     0.307 C 
ATOM     22  N3  <0> d          -4.097  -8.429   2.873  0.00  0.00     0.100 N 
ATOM     23  C13 <0> d          -2.686  -8.696   3.187  0.00  0.00     0.298 C 
ATOM     24  H22 <0> d          -4.428  -9.043   2.144  0.00  0.00     0.317 HD
ATOM     25  C12 <0> d          -1.822  -8.348   1.973  0.00  0.00     0.265 C 
ATOM     26  H28 <0> d          -1.742  -6.359   2.418  0.00  0.00     0.281 HD
BRANCH  21  27
ATOM     27  S2  <0> d          -6.034  -6.740   2.085  0.00  0.00    -0.137 SA
ATOM     28  C16 <0> d          -6.883  -8.207   2.731  0.00  0.00     0.092 C 
ENDBRANCH  21  27
ENDBRANCH   1  19
TORSDOF 8
