REMARK  3 active torsions:
REMARK  status: ('A' for Active; 'I' for Inactive)
REMARK       I    between atoms: C2_2  and  N1_4 
REMARK    1  A    between atoms: N1_4  and  C4_6 
REMARK    2  A    between atoms: C4_6  and  C5_7 
REMARK       I    between atoms: C5_7  and  N2_9 
REMARK    3  A    between atoms: N2_9  and  C6_10 
ROOT
ATOM      1  C5  <0> d          -0.787  -5.085  -0.741  0.00  0.00     0.241 C 
ATOM      2  O2  <0> d          -0.981  -6.180  -0.257  0.00  0.00    -0.271 OA
ATOM      3  N2  <0> d          -1.778  -4.455  -1.401  0.00  0.00    -0.310 N 
ATOM      4  H9  <0> d          -1.649  -3.548  -1.720  0.00  0.00     0.170 HD
ENDROOT
BRANCH   3   5
ATOM      5  C6  <0> d          -2.990  -5.107  -1.627  0.00  0.00     0.134 A 
ATOM      6  N4  <0> d          -4.196  -4.517  -1.790  0.00  0.00    -0.257 N 
ATOM      7  N3  <0> d          -5.145  -5.526  -1.996  0.00  0.00    -0.175 NA
ATOM      8  C9  <0> d          -4.463  -3.077  -1.759  0.00  0.00     0.182 C 
ATOM      9  C8  <0> d          -4.534  -6.685  -1.949  0.00  0.00     0.065 A 
ATOM     10  C7  <0> d          -3.175  -6.453  -1.719  0.00  0.00     0.014 A 
ATOM     11  C10 <0> d          -4.782  -8.174  -2.057  0.00  0.00     0.062 C 
ATOM     12  C12 <0> d          -2.438  -7.773  -1.660  0.00  0.00     0.045 C 
ATOM     13  C11 <0> d          -3.393  -8.799  -2.308  0.00  0.00     0.011 C 
ENDBRANCH   3   5
BRANCH   1  14
ATOM     14  C4  <0> d           0.563  -4.429  -0.603  0.00  0.00     0.228 C 
BRANCH  14  15
ATOM     15  N1  <0> d           1.459  -5.310   0.150  0.00  0.00    -0.348 N 
ATOM     16  C2  <0> d           2.216  -6.216  -0.499  0.00  0.00     0.215 C 
ATOM     17  C1  <0> d           3.048  -7.201   0.281  0.00  0.00     0.117 C 
ATOM     18  O1  <0> d           2.228  -6.239  -1.712  0.00  0.00    -0.274 OA
ATOM     19  C3  <0> d           1.532  -5.205   1.609  0.00  0.00     0.153 C 
ENDBRANCH  14  15
ENDBRANCH   1  14
TORSDOF 3
