REMARK  5 active torsions:
REMARK  status: ('A' for Active; 'I' for Inactive)
REMARK    1  A    between atoms: C7_7  and  N1_8 
REMARK       I    between atoms: N1_8  and  C8_9 
REMARK    2  A    between atoms: C8_9  and  C9_11 
REMARK       I    between atoms: C9_11  and  N2_13 
REMARK    3  A    between atoms: N2_13  and  C10_14 
REMARK    4  A    between atoms: C10_14  and  C11_15 
REMARK    5  A    between atoms: C10_14  and  C17_22 
ROOT
ATOM      1  C9  <0> d          -0.140   0.151   4.846  0.00  0.00     0.310 C 
ATOM      2  O2  <0> d          -0.071   1.363   4.832  0.00  0.00    -0.262 OA
ATOM      3  N2  <0> d          -0.287  -0.503   6.015  0.00  0.00    -0.337 N 
ATOM      4  H9  <0> d          -0.342  -1.471   6.025  0.00  0.00     0.164 HD
ENDROOT
BRANCH   3   5
ATOM      5  C10 <0> d          -0.364   0.249   7.270  0.00  0.00     0.188 C 
BRANCH   5   6
ATOM      6  C11 <0> d          -1.111  -0.563   8.296  0.00  0.00    -0.028 A 
ATOM      7  C16 <0> d          -2.006   0.056   9.149  0.00  0.00     0.012 A 
ATOM      8  C15 <0> d          -2.695  -0.688  10.088  0.00  0.00     0.043 A 
ATOM      9  C14 <0> d          -2.481  -2.053  10.181  0.00  0.00     0.116 A 
ATOM     10  C13 <0> d          -1.580  -2.671   9.331  0.00  0.00     0.043 A 
ATOM     11  F1  <0> d          -3.150  -2.781  11.102  0.00  0.00    -0.206 F 
ATOM     12  C12 <0> d          -0.896  -1.925   8.389  0.00  0.00     0.012 A 
ENDBRANCH   5   6
BRANCH   5  13
ATOM     13  C17 <0> d           1.028   0.535   7.771  0.00  0.00     0.133 A 
ATOM     14  N4  <0> d           1.465   1.720   8.248  0.00  0.00    -0.346 N 
ATOM     15  C19 <0> d           2.778   1.557   8.597  0.00  0.00     0.111 A 
ATOM     16  C20 <0> d           0.679   2.950   8.371  0.00  0.00     0.157 C 
ATOM     17  C18 <0> d           3.101   0.280   8.314  0.00  0.00     0.136 A 
ATOM     18  N3  <0> d           2.012  -0.321   7.810  0.00  0.00    -0.243 NA
ENDBRANCH   5  13
ENDBRANCH   3   5
BRANCH   1  19
ATOM     19  C8  <0> d          -0.061  -0.615   3.566  0.00  0.00     0.314 C 
ATOM     20  N1  <0> d           0.086   0.039   2.397  0.00  0.00    -0.318 N 
ATOM     21  H8  <0> d           0.204   1.002   2.391  0.00  0.00     0.169 HD
ATOM     22  O1  <0> d          -0.129  -1.827   3.579  0.00  0.00    -0.262 OA
BRANCH  20  23
ATOM     23  C7  <0> d           0.069  -0.670   1.193  0.00  0.00     0.047 A 
ATOM     24  C2  <0> d           1.252  -0.891   0.498  0.00  0.00    -0.035 A 
ATOM     25  C1  <0> d           2.556  -0.366   1.042  0.00  0.00     0.050 C 
ATOM     26  C3  <0> d           1.232  -1.597  -0.689  0.00  0.00     0.009 A 
ATOM     27  C4  <0> d           0.036  -2.079  -1.188  0.00  0.00     0.001 A 
ATOM     28  C5  <0> d          -1.143  -1.856  -0.503  0.00  0.00     0.009 A 
ATOM     29  C6  <0> d          -1.131  -1.150   0.684  0.00  0.00    -0.035 A 
ATOM     30  C21 <0> d          -2.418  -0.906   1.431  0.00  0.00     0.050 C 
ENDBRANCH  20  23
ENDBRANCH   1  19
TORSDOF 5
