REMARK  6 active torsions:
REMARK  status: ('A' for Active; 'I' for Inactive)
REMARK    1  A    between atoms: C4_4  and  O1_5 
REMARK       I    between atoms: N1_13  and  C11_14 
REMARK       I    between atoms: C11_14  and  N2_16 
REMARK    2  A    between atoms: N2_16  and  C12_17 
REMARK    3  A    between atoms: N2_16  and  C19_25 
REMARK    4  A    between atoms: C12_17  and  C13_18 
REMARK    5  A    between atoms: C18_23  and  O4_24 
REMARK    6  A    between atoms: C19_25  and  C20_26 
ROOT
ATOM      1  C1  <0> d          -1.542   1.371   0.171  0.00  0.00     0.049 C 
ATOM      2  C2  <0> d          -1.010  -0.038   0.109  0.00  0.00    -0.044 A 
ATOM      3  C3  <0> d          -0.776  -0.651  -1.107  0.00  0.00     0.071 A 
ATOM      4  C4  <0> d          -0.286  -1.948  -1.145  0.00  0.00     0.183 A 
ATOM      5  O2  <0> d          -0.031  -2.629  -0.022  0.00  0.00    -0.287 OA
ATOM      6  C5  <0> d          -0.241  -2.078   1.192  0.00  0.00     0.091 A 
ATOM      7  C6  <0> d          -0.734  -0.757   1.290  0.00  0.00     0.004 A 
ATOM      8  C7  <0> d          -0.949  -0.177   2.553  0.00  0.00     0.017 A 
ATOM      9  C8  <0> d          -0.678  -0.885   3.680  0.00  0.00     0.030 A 
ATOM     10  C9  <0> d          -0.182  -2.199   3.592  0.00  0.00     0.039 A 
ATOM     11  C10 <0> d           0.027  -2.793   2.344  0.00  0.00     0.067 A 
ATOM     12  N1  <0> d           0.086  -2.898   4.726  0.00  0.00    -0.309 N 
ATOM     13  C11 <0> d           0.188  -2.264   5.888  0.00  0.00     0.323 C 
ATOM     14  O3  <0> d           0.172  -1.044   5.921  0.00  0.00    -0.247 OA
ATOM     15  N2  <0> d           0.310  -2.967   7.031  0.00  0.00    -0.327 N 
ATOM     16  H9  <0> d           0.203  -3.860   4.686  0.00  0.00     0.170 HD
ENDROOT
BRANCH  15  17
ATOM     17  C12 <0> d           0.423  -2.267   8.313  0.00  0.00     0.169 C 
BRANCH  17  18
ATOM     18  C13 <0> d          -0.953  -2.050   8.889  0.00  0.00    -0.007 A 
ATOM     19  C18 <0> d          -1.600  -3.084   9.550  0.00  0.00     0.073 A 
ATOM     20  C17 <0> d          -2.864  -2.879  10.085  0.00  0.00     0.037 A 
ATOM     21  C16 <0> d          -3.479  -1.650   9.948  0.00  0.00     0.003 A 
ATOM     22  C15 <0> d          -2.834  -0.623   9.284  0.00  0.00     0.001 A 
ATOM     23  C14 <0> d          -1.573  -0.823   8.755  0.00  0.00     0.011 A 
BRANCH  19  24
ATOM     24  O4  <0> d          -0.994  -4.294   9.679  0.00  0.00    -0.360 OA
ATOM     25  H16 <0> d          -0.458  -4.383  10.478  0.00  0.00     0.217 HD
ENDBRANCH  19  24
ENDBRANCH  17  18
ENDBRANCH  15  17
BRANCH  15  26
ATOM     26  C19 <0> d           0.330  -4.431   6.992  0.00  0.00     0.159 C 
BRANCH  26  27
ATOM     27  C20 <0> d           1.772  -4.918   6.839  0.00  0.00     0.139 C 
ATOM     28  O5  <0> d           2.521  -4.596   8.017  0.00  0.00    -0.384 OA
ATOM     29  C23 <0> d           2.985  -5.804   8.646  0.00  0.00     0.168 C 
ATOM     30  C22 <0> d           3.038  -6.857   7.511  0.00  0.00     0.029 C 
ATOM     31  C21 <0> d           1.793  -6.453   6.675  0.00  0.00     0.035 C 
ENDBRANCH  26  27
ENDBRANCH  15  26
BRANCH   4  32
ATOM     32  O1  <0> d          -0.063  -2.534  -2.337  0.00  0.00    -0.341 OA
ATOM     33  H25 <0> d           0.278  -3.436  -2.273  0.00  0.00     0.220 HD
ENDBRANCH   4  32
TORSDOF 6
