REMARK  7 active torsions:
REMARK  status: ('A' for Active; 'I' for Inactive)
REMARK    1  A    between atoms: O1_2  and  C2_3 
REMARK    2  A    between atoms: C6_7  and  N1_9 
REMARK       I    between atoms: N1_9  and  C8_10 
REMARK    3  A    between atoms: C8_10  and  C9_12 
REMARK    4  A    between atoms: C17_21  and  N2_22 
REMARK    5  A    between atoms: N2_22  and  C18_23 
REMARK    6  A    between atoms: C21_26  and  S1_29 
REMARK    7  A    between atoms: S1_29  and  N3_32 
ROOT
ATOM      1  C9  <0> d           2.288  -6.065   3.152  0.00  0.00     0.084 C 
ATOM      2  C10 <0> d           2.913  -6.708   4.212  0.00  0.00     0.035 C 
ATOM      3  C11 <0> d           2.985  -8.171   4.164  0.00  0.00    -0.001 A 
ATOM      4  C12 <0> d           3.350  -8.908   5.296  0.00  0.00     0.014 A 
ATOM      5  C13 <0> d           3.408 -10.272   5.227  0.00  0.00     0.001 A 
ATOM      6  C14 <0> d           3.108 -10.931   4.044  0.00  0.00     0.003 A 
ATOM      7  C15 <0> d           2.746 -10.223   2.916  0.00  0.00     0.038 A 
ATOM      8  C16 <0> d           2.683  -8.838   2.962  0.00  0.00     0.088 A 
ATOM      9  O3  <0> d           2.337  -8.124   1.863  0.00  0.00    -0.292 OA
ATOM     10  C17 <0> d           1.748  -6.917   2.073  0.00  0.00     0.164 C 
ENDROOT
BRANCH  10  11
ATOM     11  N2  <0> d           0.734  -6.516   1.337  0.00  0.00    -0.336 N 
ATOM     12  H20 <0> d           0.260  -5.702   1.567  0.00  0.00     0.168 HD
BRANCH  11  13
ATOM     13  C18 <0> d           0.348  -7.248   0.248  0.00  0.00     0.034 A 
ATOM     14  C23 <0> d          -1.006  -7.510   0.022  0.00  0.00     0.031 A 
ATOM     15  C22 <0> d          -1.388  -8.243  -1.082  0.00  0.00     0.027 A 
ATOM     16  C21 <0> d          -0.433  -8.730  -1.957  0.00  0.00     0.079 A 
ATOM     17  C20 <0> d           0.910  -8.480  -1.736  0.00  0.00     0.027 A 
ATOM     18  C19 <0> d           1.306  -7.743  -0.640  0.00  0.00     0.031 A 
BRANCH  16  19
ATOM     19  S1  <0> d          -0.930  -9.672  -3.361  0.00  0.00     0.256 S 
ATOM     20  O4  <0> d          -2.274  -9.304  -3.642  0.00  0.00    -0.201 OA
ATOM     21  O5  <0> d           0.110  -9.550  -4.321  0.00  0.00    -0.201 OA
BRANCH  19  22
ATOM     22  N3  <0> d          -0.962 -11.262  -2.897  0.00  0.00    -0.324 N 
ATOM     23  H18 <0> d          -1.584 -11.877  -3.317  0.00  0.00     0.169 HD
ATOM     24  H19 <0> d          -0.359 -11.578  -2.207  0.00  0.00     0.169 HD
ENDBRANCH  19  22
ENDBRANCH  16  19
ENDBRANCH  11  13
ENDBRANCH  10  11
BRANCH   1  25
ATOM     25  C8  <0> d           2.164  -4.599   3.108  0.00  0.00     0.260 C 
ATOM     26  N1  <0> d           1.677  -3.996   2.005  0.00  0.00    -0.323 N 
ATOM     27  H8  <0> d           1.359  -4.531   1.261  0.00  0.00     0.169 HD
ATOM     28  O2  <0> d           2.501  -3.931   4.067  0.00  0.00    -0.267 OA
BRANCH  26  29
ATOM     29  C6  <0> d           1.632  -2.600   1.933  0.00  0.00     0.037 A 
ATOM     30  C5  <0> d           1.370  -1.853   3.075  0.00  0.00     0.029 A 
ATOM     31  C4  <0> d           1.325  -0.474   3.004  0.00  0.00     0.005 A 
ATOM     32  C3  <0> d           1.540   0.165   1.798  0.00  0.00     0.037 A 
ATOM     33  C2  <0> d           1.802  -0.576   0.654  0.00  0.00     0.070 A 
ATOM     34  C7  <0> d           1.842  -1.959   0.720  0.00  0.00     0.066 A 
BRANCH  33  35
ATOM     35  O1  <0> d           2.013   0.055  -0.531  0.00  0.00    -0.356 OA
ATOM     36  C1  <0> d           1.957   1.483  -0.525  0.00  0.00     0.210 C 
ENDBRANCH  33  35
ENDBRANCH  26  29
ENDBRANCH   1  25
TORSDOF 7
