REMARK  2 active torsions:
REMARK  status: ('A' for Active; 'I' for Inactive)
REMARK    1  A    between atoms: C2_2  and  C5_5 
REMARK    2  A    between atoms: C8_8  and  N1_11 
ROOT
ATOM      1  C5  <0> d           6.229   0.782  -0.050  0.00  0.00    -0.051 A 
ATOM      2  C6  <0> d           5.522   1.967  -0.143  0.00  0.00     0.010 A 
ATOM      3  C7  <0> d           4.141   1.952  -0.131  0.00  0.00     0.031 A 
ATOM      4  C8  <0> d           3.463   0.745  -0.026  0.00  0.00     0.046 A 
ATOM      5  C9  <0> d           4.176  -0.443   0.072  0.00  0.00     0.031 A 
ATOM      6  C10 <0> d           5.556  -0.421   0.055  0.00  0.00     0.010 A 
ENDROOT
BRANCH   4   7
ATOM      7  N1  <0> d           2.061   0.726  -0.014  0.00  0.00    -0.238 N 
ATOM      8  C12 <0> d           1.280   0.209  -0.980  0.00  0.00     0.202 A 
ATOM      9  N3  <0> d          -0.009   0.374  -0.618  0.00  0.00    -0.272 N 
ATOM     10  S1  <0> d           1.828  -0.532  -2.423  0.00  0.00    -0.038 SA
ATOM     11  N2  <0> d          -0.006   1.022   0.627  0.00  0.00    -0.249 N 
ATOM     12  H2  <0> d          -0.962   0.108  -1.098  0.00  0.00     0.189 HD
ATOM     13  C11 <0> d           1.284   1.222   0.966  0.00  0.00     0.348 A 
ATOM     14  H1  <0> d          -0.810   1.358   1.299  0.00  0.00     0.192 HD
ATOM     15  O1  <0> d           1.677   1.758   1.984  0.00  0.00    -0.245 OA
ENDBRANCH   4   7
BRANCH   1  16
ATOM     16  C2  <0> d           7.736   0.803  -0.063  0.00  0.00    -0.024 C 
ATOM     17  C1  <0> d           8.245   1.632   1.118  0.00  0.00     0.019 C 
ATOM     18  C3  <0> d           8.267  -0.627   0.051  0.00  0.00     0.019 C 
ATOM     19  C4  <0> d           8.226   1.426  -1.372  0.00  0.00     0.019 C 
ENDBRANCH   1  16
TORSDOF 2
