REMARK  5 active torsions:
REMARK  status: ('A' for Active; 'I' for Inactive)
REMARK    1  A    between atoms: C5_5  and  C8_8 
REMARK    2  A    between atoms: C8_8  and  C9_9 
REMARK    3  A    between atoms: C8_8  and  N3_26 
REMARK    4  A    between atoms: C9_9  and  N1_10 
REMARK       I    between atoms: N1_10  and  C10_11 
REMARK    5  A    between atoms: C10_11  and  C11_13 
ROOT
ATOM      1  N1  <0> d           2.136  -4.881  -0.712  0.00  0.00    -0.354 N 
ATOM      2  C10 <0> d           3.344  -5.473  -0.623  0.00  0.00     0.257 C 
ATOM      3  O1  <0> d           3.684  -6.006   0.416  0.00  0.00    -0.267 OA
ATOM      4  H12 <0> d           1.891  -4.397  -1.516  0.00  0.00     0.162 HD
ENDROOT
BRANCH   1   5
ATOM      5  C9  <0> d           1.194  -4.966   0.406  0.00  0.00     0.161 C 
BRANCH   5   6
ATOM      6  C8  <0> d          -0.134  -4.320   0.005  0.00  0.00     0.237 C 
BRANCH   6   7
ATOM      7  C5  <0> d           0.082  -2.852  -0.260  0.00  0.00    -0.026 A 
ATOM      8  C4  <0> d           0.205  -2.395  -1.558  0.00  0.00     0.010 A 
ATOM      9  C3  <0> d           0.402  -1.049  -1.801  0.00  0.00     0.007 A 
ATOM     10  C2  <0> d           0.475  -0.159  -0.746  0.00  0.00    -0.062 A 
ATOM     11  C1  <0> d           0.690   1.309  -1.010  0.00  0.00     0.048 C 
ATOM     12  C7  <0> d           0.357  -0.617   0.553  0.00  0.00     0.007 A 
ATOM     13  C6  <0> d           0.156  -1.963   0.796  0.00  0.00     0.010 A 
ENDBRANCH   6   7
BRANCH   6  14
ATOM     14  N3  <0> d          -1.106  -4.484   1.094  0.00  0.00    -0.069 N 
ATOM     15  C20 <0> d          -2.405  -3.938   0.676  0.00  0.00     0.270 C 
ATOM     16  C21 <0> d          -1.254  -5.911   1.409  0.00  0.00     0.270 C 
ATOM     17  H23 <0> d          -0.781  -3.990   1.912  0.00  0.00     0.279 HD
ENDBRANCH   6  14
ENDBRANCH   5   6
ENDBRANCH   1   5
BRANCH   2  18
ATOM     18  C11 <0> d           4.249  -5.476  -1.783  0.00  0.00     0.100 A 
ATOM     19  C19 <0> d           3.900  -4.735  -2.999  0.00  0.00     0.261 A 
ATOM     20  N2  <0> d           4.734  -4.737  -4.056  0.00  0.00    -0.322 N 
ATOM     21  O2  <0> d           2.855  -4.112  -3.052  0.00  0.00    -0.267 OA
ATOM     22  C18 <0> d           5.920  -5.440  -4.021  0.00  0.00     0.048 A 
ATOM     23  H2  <0> d           4.495  -4.241  -4.854  0.00  0.00     0.169 HD
ATOM     24  C13 <0> d           6.287  -6.168  -2.872  0.00  0.00    -0.008 A 
ATOM     25  C17 <0> d           6.766  -5.434  -5.125  0.00  0.00     0.072 A 
ATOM     26  C12 <0> d           5.438  -6.184  -1.742  0.00  0.00     0.036 A 
ATOM     27  C14 <0> d           7.500  -6.878  -2.856  0.00  0.00     0.017 A 
ATOM     28  C15 <0> d           8.313  -6.859  -3.950  0.00  0.00     0.043 A 
ATOM     29  C16 <0> d           7.953  -6.139  -5.086  0.00  0.00     0.118 A 
ATOM     30  F1  <0> d           8.772  -6.131  -6.161  0.00  0.00    -0.206 F 
ENDBRANCH   2  18
TORSDOF 5
