REMARK  8 active torsions:
REMARK  status: ('A' for Active; 'I' for Inactive)
REMARK    1  A    between atoms: C2_2  and  O1_3 
REMARK    2  A    between atoms: O1_3  and  C3_4 
REMARK    3  A    between atoms: C3_4  and  C4_6 
REMARK    4  A    between atoms: C5_7  and  C18_26 
REMARK    5  A    between atoms: C7_10  and  N1_11 
REMARK       I    between atoms: N1_11  and  C8_12 
REMARK    6  A    between atoms: C8_12  and  C9_14 
REMARK    7  A    between atoms: C9_14  and  N4_36 
REMARK    8  A    between atoms: C14_20  and  N3_24 
ROOT
ATOM      1  C10 <0> d          -1.423  -3.400   7.245  0.00  0.00     0.240 C 
ATOM      2  C11 <0> d          -1.825  -4.579   8.137  0.00  0.00     0.069 C 
ATOM      3  C12 <0> d          -0.818  -5.702   7.922  0.00  0.00    -0.018 A 
ATOM      4  C13 <0> d          -0.020  -5.698   6.831  0.00  0.00     0.018 A 
ATOM      5  S2  <0> d           0.969  -7.156   6.990  0.00  0.00    -0.074 SA
ATOM      6  C14 <0> d           0.332  -7.766   8.482  0.00  0.00     0.089 A 
ATOM      7  C15 <0> d          -0.632  -6.825   8.823  0.00  0.00     0.085 A 
ATOM      8  C16 <0> d          -1.411  -6.958  10.017  0.00  0.00     0.103 C 
ATOM      9  N2  <0> d          -2.029  -7.063  10.964  0.00  0.00    -0.191 NA
ATOM     10  C17 <0> d          -0.004  -4.668   5.746  0.00  0.00     0.282 C 
ATOM     11  N4  <0> d          -1.251  -3.873   5.856  0.00  0.00    -0.058 N 
ATOM     12  H25 <0> d          -2.050  -4.468   5.605  0.00  0.00     0.280 HD
ENDROOT
BRANCH   6  13
ATOM     13  N3  <0> d           0.695  -8.911   9.167  0.00  0.00    -0.392 N 
ATOM     14  H14 <0> d           0.254  -9.139  10.001  0.00  0.00     0.156 HD
ATOM     15  H15 <0> d           1.392  -9.487   8.815  0.00  0.00     0.156 HD
ENDBRANCH   6  13
BRANCH  11  16
ATOM     16  C9  <0> d          -1.200  -2.720   4.932  0.00  0.00     0.337 C 
BRANCH  16  17
ATOM     17  C8  <0> d          -1.241  -3.230   3.514  0.00  0.00     0.248 C 
ATOM     18  N1  <0> d          -1.222  -2.360   2.485  0.00  0.00    -0.319 N 
ATOM     19  H7  <0> d          -1.183  -1.406   2.656  0.00  0.00     0.169 HD
ATOM     20  O3  <0> d          -1.290  -4.423   3.300  0.00  0.00    -0.271 OA
BRANCH  18  21
ATOM     21  C7  <0> d          -1.259  -2.829   1.181  0.00  0.00     0.093 A 
ATOM     22  C4  <0> d          -1.248  -2.095   0.003  0.00  0.00     0.085 A 
ATOM     23  C5  <0> d          -1.290  -2.848  -1.236  0.00  0.00    -0.000 A 
ATOM     24  C6  <0> d          -1.340  -4.200  -1.127  0.00  0.00     0.065 A 
ATOM     25  S1  <0> d          -1.333  -4.469   0.633  0.00  0.00    -0.082 SA
BRANCH  22  26
ATOM     26  C3  <0> d          -1.191  -0.633   0.010  0.00  0.00     0.297 C 
ATOM     27  O2  <0> d          -2.220   0.016   0.023  0.00  0.00    -0.259 OA
BRANCH  26  28
ATOM     28  O1  <0> d           0.002  -0.004   0.002  0.00  0.00    -0.318 OA
BRANCH  28  29
ATOM     29  C2  <0> d          -0.018   1.448   0.010  0.00  0.00     0.174 C 
ATOM     30  C1  <0> d           1.418   1.977  -0.001  0.00  0.00     0.034 C 
ENDBRANCH  28  29
ENDBRANCH  26  28
ENDBRANCH  22  26
BRANCH  23  31
ATOM     31  C18 <0> d          -1.277  -2.175  -2.557  0.00  0.00    -0.024 A 
ATOM     32  C23 <0> d          -0.378  -2.582  -3.542  0.00  0.00     0.013 A 
ATOM     33  C22 <0> d          -0.372  -1.952  -4.769  0.00  0.00     0.007 A 
ATOM     34  C21 <0> d          -1.255  -0.918  -5.024  0.00  0.00    -0.062 A 
ATOM     35  C20 <0> d          -2.150  -0.510  -4.051  0.00  0.00     0.007 A 
ATOM     36  C24 <0> d          -1.244  -0.235  -6.367  0.00  0.00     0.048 C 
ATOM     37  C19 <0> d          -2.168  -1.136  -2.821  0.00  0.00     0.013 A 
ENDBRANCH  23  31
ENDBRANCH  18  21
ENDBRANCH  16  17
ENDBRANCH  11  16
TORSDOF 8
