REMARK  4 active torsions:
REMARK  status: ('A' for Active; 'I' for Inactive)
REMARK    1  A    between atoms: C4_4  and  C7_7 
REMARK    2  A    between atoms: C9_9  and  C10_10 
REMARK       I    between atoms: C10_10  and  N1_12 
REMARK    3  A    between atoms: N1_12  and  C11_13 
REMARK    4  A    between atoms: C14_16  and  N2_19 
ROOT
ATOM      1  C10 <0> d           8.337  -0.328   0.028  0.00  0.00     0.227 C 
ATOM      2  O1  <0> d           7.756  -1.392   0.027  0.00  0.00    -0.273 OA
ATOM      3  N1  <0> d           7.638   0.821  -0.062  0.00  0.00    -0.327 N 
ATOM      4  H10 <0> d           8.168   1.782  -0.149  0.00  0.00     0.169 HD
ENDROOT
BRANCH   3   5
ATOM      5  C11 <0> d           6.239   0.793  -0.045  0.00  0.00     0.034 A 
ATOM      6  C16 <0> d           5.573  -0.166   0.707  0.00  0.00     0.032 A 
ATOM      7  C15 <0> d           4.193  -0.191   0.729  0.00  0.00     0.034 A 
ATOM      8  C14 <0> d           3.471   0.737  -0.010  0.00  0.00     0.058 A 
ATOM      9  C13 <0> d           4.136   1.696  -0.762  0.00  0.00     0.034 A 
ATOM     10  C12 <0> d           5.516   1.724  -0.779  0.00  0.00     0.032 A 
BRANCH   8  11
ATOM     11  N2  <0> d           2.068   0.710   0.009  0.00  0.00    -0.245 N 
ATOM     12  N3  <0> d           1.217   1.584  -0.680  0.00  0.00    -0.180 NA
ATOM     13  C19 <0> d          -0.019   1.244  -0.416  0.00  0.00     0.140 A 
ATOM     14  C18 <0> d           0.004   0.145   0.448  0.00  0.00     0.040 A 
ATOM     15  C17 <0> d           1.299  -0.165   0.694  0.00  0.00     0.120 A 
ENDBRANCH   8  11
ENDBRANCH   3   5
BRANCH   1  16
ATOM     16  C9  <0> d           9.840  -0.290   0.129  0.00  0.00     0.087 A 
ATOM     17  C7  <0> d          10.575  -1.628   0.226  0.00  0.00     0.032 A 
ATOM     18  C8  <0> d          10.642  -0.810  -1.066  0.00  0.00     0.025 A 
BRANCH  17  19
ATOM     19  C4  <0> d           9.741  -2.883   0.213  0.00  0.00    -0.053 A 
ATOM     20  C3  <0> d           9.785  -3.753   1.287  0.00  0.00     0.007 A 
ATOM     21  C2  <0> d           9.020  -4.904   1.275  0.00  0.00     0.001 A 
ATOM     22  C1  <0> d           8.211  -5.185   0.190  0.00  0.00     0.000 A 
ATOM     23  C6  <0> d           8.166  -4.314  -0.883  0.00  0.00     0.001 A 
ATOM     24  C5  <0> d           8.928  -3.161  -0.869  0.00  0.00     0.007 A 
ENDBRANCH  17  19
ENDBRANCH   1  16
TORSDOF 4
