REMARK  4 active torsions:
REMARK  status: ('A' for Active; 'I' for Inactive)
REMARK    1  A    between atoms: C5_6  and  C6_7 
REMARK    2  A    between atoms: C6_7  and  C7_8 
REMARK    3  A    between atoms: C6_7  and  N2_18 
REMARK    4  A    between atoms: C7_8  and  C8_9 
ROOT
ATOM      1  C6  <0> d           0.002  -0.004   0.002  0.00  0.00     0.248 C 
ENDROOT
BRANCH   1   2
ATOM      2  C5  <0> d          -0.018   1.503   0.010  0.00  0.00     0.089 A 
ATOM      3  C2  <0> d          -1.120   2.275   0.019  0.00  0.00    -0.028 A 
ATOM      4  C1  <0> d          -2.550   1.799   0.023  0.00  0.00     0.050 C 
ATOM      5  C3  <0> d          -0.679   3.618   0.027  0.00  0.00     0.034 A 
ATOM      6  C4  <0> d           0.666   3.587   0.015  0.00  0.00     0.142 A 
ATOM      7  O1  <0> d           1.060   2.303   0.004  0.00  0.00    -0.324 OA
ENDBRANCH   1   2
BRANCH   1   8
ATOM      8  C7  <0> d           0.395  -0.516   1.389  0.00  0.00     0.126 C 
BRANCH   8   9
ATOM      9  C8  <0> d           0.296  -2.020   1.416  0.00  0.00     0.149 A 
ATOM     10  O2  <0> d          -0.802  -2.711   1.760  0.00  0.00    -0.293 OA
ATOM     11  C14 <0> d          -0.518  -4.028   1.664  0.00  0.00     0.106 A 
ATOM     12  C9  <0> d           0.820  -4.112   1.249  0.00  0.00     0.093 A 
ATOM     13  C13 <0> d          -1.244  -5.188   1.887  0.00  0.00     0.040 A 
ATOM     14  N1  <0> d           1.264  -2.833   1.114  0.00  0.00    -0.226 NA
ATOM     15  C10 <0> d           1.410  -5.364   1.065  0.00  0.00     0.034 A 
ATOM     16  C11 <0> d           0.673  -6.505   1.291  0.00  0.00     0.002 A 
ATOM     17  C12 <0> d          -0.649  -6.418   1.700  0.00  0.00     0.003 A 
ENDBRANCH   8   9
ENDBRANCH   1   8
BRANCH   1  18
ATOM     18  N2  <0> d           0.979  -0.475  -0.989  0.00  0.00    -0.069 N 
ATOM     19  H13 <0> d           0.994  -1.575  -0.995  0.00  0.00     0.275 HD
ATOM     20  H14 <0> d           1.978  -0.096  -0.727  0.00  0.00     0.275 HD
ATOM     21  H15 <0> d           0.697  -0.107  -1.986  0.00  0.00     0.275 HD
ENDBRANCH   1  18
TORSDOF 4
