REMARK  3 active torsions:
REMARK  status: ('A' for Active; 'I' for Inactive)
REMARK    1  A    between atoms: C5_6  and  C9_12 
REMARK    2  A    between atoms: C9_12  and  C10_13 
REMARK    3  A    between atoms: C9_12  and  N2_18 
ROOT
ATOM      1  C1  <0> d          -0.018   1.461   0.010  0.00  0.00     0.162 C 
ATOM      2  N1  <0> d           0.002  -0.004   0.002  0.00  0.00    -0.295 N 
ATOM      3  C2  <0> d          -1.111  -0.844   0.003  0.00  0.00     0.073 A 
ATOM      4  C3  <0> d          -2.478  -0.613   0.010  0.00  0.00     0.033 A 
ATOM      5  C4  <0> d          -3.355  -1.680   0.009  0.00  0.00     0.012 A 
ATOM      6  C5  <0> d          -2.873  -2.977   0.000  0.00  0.00    -0.021 A 
ATOM      7  C6  <0> d          -1.513  -3.215  -0.008  0.00  0.00     0.049 A 
ATOM      8  C7  <0> d          -0.625  -2.151  -0.007  0.00  0.00     0.108 A 
ATOM      9  O1  <0> d           0.729  -2.076  -0.013  0.00  0.00    -0.259 OA
ATOM     10  C8  <0> d           1.100  -0.786  -0.013  0.00  0.00     0.372 A 
ATOM     11  O2  <0> d           2.248  -0.385  -0.022  0.00  0.00    -0.238 OA
ENDROOT
BRANCH   6  12
ATOM     12  C9  <0> d          -3.837  -4.135  -0.000  0.00  0.00     0.250 C 
BRANCH  12  13
ATOM     13  C10 <0> d          -4.356  -4.357  -1.398  0.00  0.00    -0.017 A 
ATOM     14  C13 <0> d          -5.349  -3.580  -1.894  0.00  0.00     0.059 A 
ATOM     15  S1  <0> d          -5.561  -4.254  -3.534  0.00  0.00    -0.113 SA
ATOM     16  C12 <0> d          -4.318  -5.532  -3.443  0.00  0.00     0.050 A 
ATOM     17  C11 <0> d          -3.829  -5.359  -2.191  0.00  0.00     0.017 A 
ENDBRANCH  12  13
BRANCH  12  18
ATOM     18  N2  <0> d          -4.961  -3.837   0.897  0.00  0.00    -0.067 N 
ATOM     19  H11 <0> d          -5.607  -4.613   0.897  0.00  0.00     0.275 HD
ATOM     20  H12 <0> d          -4.614  -3.689   1.833  0.00  0.00     0.275 HD
ATOM     21  H13 <0> d          -5.435  -3.005   0.579  0.00  0.00     0.275 HD
ENDBRANCH  12  18
ENDBRANCH   6  12
TORSDOF 3
