REMARK  8 active torsions:
REMARK  status: ('A' for Active; 'I' for Inactive)
REMARK    1  A    between atoms: C5_5  and  C8_8 
REMARK    2  A    between atoms: C9_9  and  S1_10 
REMARK    3  A    between atoms: S1_10  and  N1_13 
REMARK    4  A    between atoms: N1_13  and  N2_14 
REMARK       I    between atoms: N2_14  and  C10_15 
REMARK       I    between atoms: C10_15  and  N3_17 
REMARK    5  A    between atoms: N3_17  and  C11_18 
REMARK    6  A    between atoms: C11_18  and  C12_19 
REMARK    7  A    between atoms: C12_19  and  C13_20 
REMARK    8  A    between atoms: C13_20  and  N4_21 
ROOT
ATOM      1  N2  <0> d           1.869  -6.786   3.083  0.00  0.00    -0.242 N 
ATOM      2  C10 <0> d           2.198  -7.730   3.987  0.00  0.00     0.335 C 
ATOM      3  O3  <0> d           2.482  -7.409   5.125  0.00  0.00    -0.246 OA
ATOM      4  N3  <0> d           2.212  -9.030   3.629  0.00  0.00    -0.342 N 
ATOM      5  H11 <0> d           1.858  -5.851   3.340  0.00  0.00     0.192 HD
ATOM      6  H12 <0> d           1.986  -9.285   2.721  0.00  0.00     0.164 HD
ENDROOT
BRANCH   1   7
ATOM      7  N1  <0> d           1.542  -7.156   1.772  0.00  0.00    -0.220 N 
ATOM      8  H10 <0> d           2.161  -7.689   1.249  0.00  0.00     0.200 HD
BRANCH   7   9
ATOM      9  S1  <0> d           0.098  -6.682   1.113  0.00  0.00     0.266 S 
ATOM     10  O1  <0> d          -0.917  -7.106   2.012  0.00  0.00    -0.200 OA
ATOM     11  O2  <0> d           0.123  -7.080  -0.251  0.00  0.00    -0.200 OA
BRANCH   9  12
ATOM     12  C9  <0> d           0.074  -4.920   1.123  0.00  0.00     0.134 C 
ATOM     13  C8  <0> d           0.060  -4.251  -0.021  0.00  0.00     0.025 C 
BRANCH  13  14
ATOM     14  C5  <0> d           0.040  -2.773  -0.013  0.00  0.00    -0.036 A 
ATOM     15  C4  <0> d           0.024  -2.066  -1.216  0.00  0.00     0.012 A 
ATOM     16  C3  <0> d           0.006  -0.686  -1.202  0.00  0.00     0.007 A 
ATOM     17  C2  <0> d           0.002  -0.004   0.002  0.00  0.00    -0.062 A 
ATOM     18  C1  <0> d          -0.018   1.503   0.010  0.00  0.00     0.048 C 
ATOM     19  C7  <0> d           0.023  -0.699   1.198  0.00  0.00     0.007 A 
ATOM     20  C6  <0> d           0.037  -2.079   1.197  0.00  0.00     0.012 A 
ENDBRANCH  13  14
ENDBRANCH   9  12
ENDBRANCH   7   9
ENDBRANCH   1   7
BRANCH   4  21
ATOM     21  C11 <0> d           2.571 -10.056   4.612  0.00  0.00     0.126 C 
BRANCH  21  22
ATOM     22  C12 <0> d           2.510 -11.435   3.954  0.00  0.00     0.040 C 
BRANCH  22  23
ATOM     23  C13 <0> d           2.884 -12.507   4.980  0.00  0.00     0.130 C 
BRANCH  23  24
ATOM     24  N4  <0> d           2.826 -13.828   4.349  0.00  0.00    -0.352 N 
ATOM     25  C16 <0> d           3.839 -14.460   3.719  0.00  0.00     0.182 A 
ATOM     26  N5  <0> d           3.409 -15.616   3.290  0.00  0.00    -0.361 N 
ATOM     27  C15 <0> d           2.117 -15.757   3.621  0.00  0.00     0.106 A 
ATOM     28  H22 <0> d           3.939 -16.267   2.805  0.00  0.00     0.166 HD
ATOM     29  C14 <0> d           1.733 -14.650   4.285  0.00  0.00     0.108 A 
ENDBRANCH  23  24
ENDBRANCH  22  23
ENDBRANCH  21  22
ENDBRANCH   4  21
TORSDOF 8
