REMARK  5 active torsions:
REMARK  status: ('A' for Active; 'I' for Inactive)
REMARK    1  A    between atoms: C2_2  and  N1_3 
REMARK    2  A    between atoms: N1_3  and  C3_4 
REMARK    3  A    between atoms: N1_3  and  C7_10 
REMARK    4  A    between atoms: C3_4  and  C4_5 
REMARK    5  A    between atoms: C4_5  and  C6_7 
ROOT
ATOM      1  C7  <0> d          -1.971  -0.854   1.205  0.00  0.00     0.150 A 
ATOM      2  N3  <0> d          -3.149  -1.392   1.216  0.00  0.00    -0.141 NA
ATOM      3  S2  <0> d          -3.518  -1.654   2.827  0.00  0.00     0.286 S 
ATOM      4  O1  <0> d          -4.587  -0.785   3.173  0.00  0.00    -0.198 OA
ATOM      5  O2  <0> d          -3.549  -3.059   3.041  0.00  0.00    -0.198 OA
ATOM      6  C8  <0> d          -2.044  -1.024   3.582  0.00  0.00     0.095 A 
ATOM      7  C9  <0> d          -1.278  -0.617   2.481  0.00  0.00     0.034 A 
ATOM      8  C10 <0> d          -0.016  -0.062   2.742  0.00  0.00     0.017 A 
ATOM      9  C11 <0> d           0.433   0.064   4.037  0.00  0.00     0.001 A 
ATOM     10  C12 <0> d          -0.343  -0.352   5.104  0.00  0.00     0.002 A 
ATOM     11  C13 <0> d          -1.598  -0.895   4.865  0.00  0.00     0.026 A 
ENDROOT
BRANCH   1  12
ATOM     12  N1  <0> d          -1.372  -0.511   0.012  0.00  0.00    -0.364 N 
BRANCH  12  13
ATOM     13  C2  <0> d           0.013  -0.035  -0.001  0.00  0.00     0.120 C 
ATOM     14  C1  <0> d           0.041   1.462   0.311  0.00  0.00     0.026 C 
ENDBRANCH  12  13
BRANCH  12  15
ATOM     15  C3  <0> d          -2.121  -0.623  -1.242  0.00  0.00     0.135 C 
BRANCH  15  16
ATOM     16  C4  <0> d          -1.917  -2.018  -1.835  0.00  0.00     0.060 C 
ATOM     17  C5  <0> d          -2.532  -3.064  -0.902  0.00  0.00     0.019 C 
BRANCH  16  18
ATOM     18  C6  <0> d          -2.586  -2.094  -3.183  0.00  0.00     0.076 C 
ATOM     19  S1  <0> d          -3.353  -0.818  -3.768  0.00  0.00    -0.065 SA
ATOM     20  N2  <0> d          -2.537  -3.236  -3.897  0.00  0.00    -0.393 N 
ATOM     21  H12 <0> d          -2.071  -4.010  -3.543  0.00  0.00     0.156 HD
ATOM     22  H13 <0> d          -2.967  -3.284  -4.765  0.00  0.00     0.156 HD
ENDBRANCH  16  18
ENDBRANCH  15  16
ENDBRANCH  12  15
ENDBRANCH   1  12
TORSDOF 5
