REMARK  7 active torsions:
REMARK  status: ('A' for Active; 'I' for Inactive)
REMARK    1  A    between atoms: C8_10  and  C9_12 
REMARK    2  A    between atoms: C9_12  and  C10_13 
REMARK    3  A    between atoms: C10_13  and  O3_15 
REMARK    4  A    between atoms: O3_15  and  C11_16 
REMARK    5  A    between atoms: C11_16  and  C12_17 
REMARK       I    between atoms: C12_17  and  N2_19 
REMARK    6  A    between atoms: N2_19  and  C13_20 
REMARK    7  A    between atoms: C13_20  and  C14_21 
ROOT
ATOM      1  C14 <0> d          -7.584   3.006  -8.636  0.00  0.00     0.143 C 
ATOM      2  C15 <0> d          -7.559   2.740 -10.084  0.00  0.00     0.060 C 
ATOM      3  N3  <0> d          -7.541   2.535 -11.201  0.00  0.00    -0.197 NA
ENDROOT
BRANCH   1   4
ATOM      4  C13 <0> d          -6.179   3.386  -8.164  0.00  0.00     0.136 C 
BRANCH   4   5
ATOM      5  N2  <0> d          -6.204   3.651  -6.723  0.00  0.00    -0.358 N 
ATOM      6  C12 <0> d          -5.072   4.005  -6.084  0.00  0.00     0.241 C 
ATOM      7  O4  <0> d          -4.032   4.106  -6.701  0.00  0.00    -0.271 OA
ATOM      8  H11 <0> d          -7.035   3.570  -6.229  0.00  0.00     0.162 HD
BRANCH   6   9
ATOM      9  C11 <0> d          -5.096   4.277  -4.602  0.00  0.00     0.281 C 
BRANCH   9  10
ATOM     10  O3  <0> d          -3.764   4.638  -4.153  0.00  0.00    -0.312 OA
BRANCH  10  11
ATOM     11  C10 <0> d          -3.613   4.914  -2.848  0.00  0.00     0.260 C 
ATOM     12  O2  <0> d          -4.564   4.855  -2.105  0.00  0.00    -0.265 OA
BRANCH  11  13
ATOM     13  C9  <0> d          -2.259   5.296  -2.310  0.00  0.00     0.136 C 
BRANCH  13  14
ATOM     14  C8  <0> d          -2.363   5.556  -0.805  0.00  0.00     0.154 C 
ATOM     15  C7  <0> d          -1.040   6.056  -0.285  0.00  0.00     0.236 C 
ATOM     16  N1  <0> d          -0.026   5.251   0.015  0.00  0.00    -0.325 N 
ATOM     17  O1  <0> d          -0.894   7.251  -0.131  0.00  0.00    -0.272 OA
ATOM     18  C5  <0> d          -0.040   3.860   0.010  0.00  0.00     0.051 A 
ATOM     19  H6  <0> d           0.809   5.677   0.262  0.00  0.00     0.169 HD
ATOM     20  C4  <0> d          -1.234   3.137   0.028  0.00  0.00     0.028 A 
ATOM     21  C6  <0> d           1.165   3.166   0.004  0.00  0.00     0.031 A 
ATOM     22  C3  <0> d          -1.218   1.752   0.017  0.00  0.00     0.021 A 
ATOM     23  S1  <0> d          -2.770   4.007   0.057  0.00  0.00    -0.113 SA
ATOM     24  C2  <0> d          -0.013   1.076   0.008  0.00  0.00     0.002 A 
ATOM     25  C1  <0> d           1.175   1.785   0.000  0.00  0.00     0.002 A 
ENDBRANCH  13  14
ENDBRANCH  11  13
ENDBRANCH  10  11
ENDBRANCH   9  10
ENDBRANCH   6   9
ENDBRANCH   4   5
ENDBRANCH   1   4
TORSDOF 7
