REMARK  4 active torsions:
REMARK  status: ('A' for Active; 'I' for Inactive)
REMARK    1  A    between atoms: C2_2  and  N1_5 
REMARK    2  A    between atoms: C6_7  and  C9_11 
REMARK       I    between atoms: C9_11  and  N2_13 
REMARK    3  A    between atoms: N2_13  and  C10_14 
REMARK    4  A    between atoms: C15_19  and  C16_20 
REMARK       I    between atoms: C16_20  and  N3_22 
ROOT
ATOM      1  C10 <0> d           5.532  -0.757   1.829  0.00  0.00     0.050 A 
ATOM      2  C11 <0> d           6.705  -0.238   1.299  0.00  0.00     0.030 A 
ATOM      3  C12 <0> d           6.854   1.127   1.152  0.00  0.00     0.002 A 
ATOM      4  C13 <0> d           5.836   1.987   1.532  0.00  0.00     0.001 A 
ATOM      5  C14 <0> d           4.663   1.490   2.054  0.00  0.00     0.019 A 
ATOM      6  C15 <0> d           4.500   0.111   2.214  0.00  0.00     0.059 A 
ENDROOT
BRANCH   1   7
ATOM      7  N2  <0> d           5.380  -2.134   1.977  0.00  0.00    -0.326 N 
ATOM      8  C9  <0> d           6.452  -2.905   2.245  0.00  0.00     0.228 C 
ATOM      9  O2  <0> d           7.559  -2.411   2.290  0.00  0.00    -0.273 OA
ATOM     10  H15 <0> d           4.503  -2.537   1.887  0.00  0.00     0.169 HD
BRANCH   8  11
ATOM     11  C6  <0> d           6.276  -4.381   2.491  0.00  0.00     0.105 C 
ATOM     12  C5  <0> d           7.607  -5.032   2.927  0.00  0.00     0.141 C 
ATOM     13  N1  <0> d           7.599  -4.994   4.394  0.00  0.00    -0.343 N 
ATOM     14  C8  <0> d           6.361  -4.778   4.870  0.00  0.00     0.221 C 
ATOM     15  C7  <0> d           5.381  -4.634   3.726  0.00  0.00     0.118 C 
ATOM     16  O1  <0> d           6.071  -4.707   6.046  0.00  0.00    -0.273 OA
BRANCH  13  17
ATOM     17  C2  <0> d           8.788  -5.169   5.232  0.00  0.00     0.024 C 
ATOM     18  C1  <0> d           8.392  -5.066   6.707  0.00  0.00     0.037 C 
ATOM     19  C3  <0> d           9.402  -6.544   4.965  0.00  0.00     0.037 C 
ATOM     20  C4  <0> d           9.810  -4.080   4.901  0.00  0.00     0.037 C 
ENDBRANCH  13  17
ENDBRANCH   8  11
ENDBRANCH   1   7
BRANCH   6  21
ATOM     21  C16 <0> d           3.248  -0.428   2.777  0.00  0.00     0.256 C 
ATOM     22  O3  <0> d           3.287  -1.203   3.714  0.00  0.00    -0.267 OA
ATOM     23  N3  <0> d           2.061  -0.062   2.255  0.00  0.00    -0.344 N 
ATOM     24  C20 <0> d           1.984   0.934   1.175  0.00  0.00     0.152 C 
ATOM     25  C17 <0> d           0.804  -0.646   2.748  0.00  0.00     0.152 C 
ATOM     26  C19 <0> d           1.120   0.358   0.047  0.00  0.00     0.187 C 
ATOM     27  O4  <0> d          -0.125  -0.088   0.588  0.00  0.00    -0.388 OA
ATOM     28  C18 <0> d          -0.002  -1.145   1.543  0.00  0.00     0.187 C 
ENDBRANCH   6  21
TORSDOF 4
