REMARK  2 active torsions:
REMARK  status: ('A' for Active; 'I' for Inactive)
REMARK    1  A    between atoms: C4_5  and  C5_6 
REMARK    2  A    between atoms: C5_6  and  N1_7 
ROOT
ATOM      1  N1  <0> d          -1.545  -1.274  -1.370  0.00  0.00    -0.344 N 
ATOM      2  C6  <0> d          -2.547  -0.432  -2.019  0.00  0.00     0.153 C 
ATOM      3  C7  <0> d          -2.491  -0.630  -3.535  0.00  0.00     0.252 C 
ATOM      4  N2  <0> d          -2.544  -2.071  -3.827  0.00  0.00    -0.065 N 
ATOM      5  C8  <0> d          -1.280  -2.688  -3.407  0.00  0.00     0.334 C 
ATOM      6  C9  <0> d          -0.964  -2.309  -1.988  0.00  0.00     0.245 C 
ATOM      7  O1  <0> d          -0.154  -2.972  -1.375  0.00  0.00    -0.272 OA
ATOM      8  H9  <0> d          -3.309  -2.491  -3.321  0.00  0.00     0.277 HD
ATOM      9  H12 <0> d          -2.675  -2.211  -4.818  0.00  0.00     0.277 HD
ENDROOT
BRANCH   1  10
ATOM     10  C5  <0> d          -1.156  -0.969   0.009  0.00  0.00     0.172 C 
BRANCH  10  11
ATOM     11  C4  <0> d           0.002  -0.004   0.002  0.00  0.00     0.002 A 
ATOM     12  C1  <0> d          -0.016   1.351   0.009  0.00  0.00     0.018 A 
ATOM     13  C2  <0> d           1.183   2.038   0.002  0.00  0.00     0.028 A 
ATOM     14  C3  <0> d           2.343   1.335  -0.013  0.00  0.00     0.051 A 
ATOM     15  S1  <0> d           1.753  -0.350  -0.017  0.00  0.00    -0.086 SA
ATOM     16 Br1  <0> d           4.123   1.974  -0.027  0.00  0.00    -0.043 Br
ENDBRANCH  10  11
ENDBRANCH   1  10
TORSDOF 2
