REMARK  5 active torsions:
REMARK  status: ('A' for Active; 'I' for Inactive)
REMARK    1  A    between atoms: C4_4  and  N1_7 
REMARK    2  A    between atoms: C9_11  and  C16_25 
REMARK    3  A    between atoms: C12_16  and  S2_17 
REMARK    4  A    between atoms: S2_17  and  C13_18 
REMARK    5  A    between atoms: C13_18  and  C14_19 
REMARK       I    between atoms: C14_19  and  N3_21 
REMARK       I    between atoms: N3_21  and  C15_22 
REMARK       I    between atoms: C15_22  and  N4_24 
ROOT
ATOM      1  N1  <0> d           3.585   2.124  -0.021  0.00  0.00    -0.256 N 
ATOM      2  C7  <0> d           3.556   3.466  -0.122  0.00  0.00     0.268 A 
ATOM      3  O1  <0> d           2.493   4.056  -0.206  0.00  0.00    -0.267 OA
ATOM      4  C8  <0> d           4.787   4.191  -0.124  0.00  0.00     0.082 A 
ATOM      5  C9  <0> d           5.007   5.632  -0.218  0.00  0.00     0.023 A 
ATOM      6  C10 <0> d           6.280   6.098  -0.206  0.00  0.00     0.067 A 
ATOM      7  S1  <0> d           7.262   4.617  -0.067  0.00  0.00    -0.080 SA
ATOM      8  C11 <0> d           5.956   3.417  -0.028  0.00  0.00     0.117 A 
ATOM      9  N2  <0> d           5.918   2.092   0.064  0.00  0.00    -0.216 NA
ATOM     10  C12 <0> d           4.769   1.447   0.068  0.00  0.00     0.177 A 
ENDROOT
BRANCH  10  11
ATOM     11  S2  <0> d           4.759  -0.311   0.192  0.00  0.00    -0.082 SA
BRANCH  11  12
ATOM     12  C13 <0> d           6.538  -0.630   0.277  0.00  0.00     0.185 C 
BRANCH  12  13
ATOM     13  C14 <0> d           6.777  -2.114   0.390  0.00  0.00     0.235 C 
ATOM     14  O2  <0> d           5.838  -2.879   0.410  0.00  0.00    -0.272 OA
ATOM     15  N3  <0> d           8.036  -2.590   0.467  0.00  0.00    -0.279 N 
ATOM     16  C15 <0> d           8.250  -3.916   0.568  0.00  0.00     0.320 C 
ATOM     17  H9  <0> d           8.788  -1.977   0.451  0.00  0.00     0.173 HD
ATOM     18  O3  <0> d           7.308  -4.684   0.589  0.00  0.00    -0.247 OA
ATOM     19  N4  <0> d           9.508  -4.392   0.646  0.00  0.00    -0.352 N 
ATOM     20  H10 <0> d          10.260  -3.780   0.629  0.00  0.00     0.160 HD
ATOM     21  H11 <0> d           9.662  -5.347   0.719  0.00  0.00     0.160 HD
ENDBRANCH  12  13
ENDBRANCH  11  12
ENDBRANCH  10  11
BRANCH   1  22
ATOM     22  C4  <0> d           2.381   1.409  -0.013  0.00  0.00     0.044 A 
ATOM     23  C3  <0> d           1.826   0.968  -1.208  0.00  0.00     0.030 A 
ATOM     24  C2  <0> d           0.638   0.263  -1.197  0.00  0.00     0.002 A 
ATOM     25  C1  <0> d           0.002  -0.004   0.002  0.00  0.00     0.000 A 
ATOM     26  C6  <0> d           0.551   0.435   1.192  0.00  0.00     0.002 A 
ATOM     27  C5  <0> d           1.739   1.140   1.188  0.00  0.00     0.030 A 
ENDBRANCH   1  22
BRANCH   5  28
ATOM     28  C16 <0> d           3.865   6.563  -0.323  0.00  0.00     0.086 A 
ATOM     29  O4  <0> d           2.839   6.460  -1.189  0.00  0.00    -0.322 OA
ATOM     30  C19 <0> d           1.988   7.483  -0.996  0.00  0.00     0.142 A 
ATOM     31  C18 <0> d           2.461   8.257  -0.001  0.00  0.00     0.027 A 
ATOM     32  C17 <0> d           3.664   7.670   0.442  0.00  0.00     0.040 A 
ENDBRANCH   5  28
TORSDOF 5
