REMARK  6 active torsions:
REMARK  status: ('A' for Active; 'I' for Inactive)
REMARK    1  A    between atoms: C3_3  and  C6_7 
REMARK       I    between atoms: C6_7  and  N2_9 
REMARK    2  A    between atoms: N2_9  and  N3_10 
REMARK       I    between atoms: N3_10  and  C7_11 
REMARK    3  A    between atoms: C7_11  and  C8_13 
REMARK    4  A    between atoms: C9_14  and  C10_15 
REMARK    5  A    between atoms: C15_20  and  O3_21 
REMARK    6  A    between atoms: O3_21  and  C16_22 
ROOT
ATOM      1  N3  <0> d          -1.191   1.871   0.018  0.00  0.00    -0.264 N 
ATOM      2  C7  <0> d          -0.014   1.213   0.009  0.00  0.00     0.259 C 
ATOM      3  O2  <0> d           0.002  -0.004   0.002  0.00  0.00    -0.267 OA
ATOM      4  H6  <0> d          -1.204   2.841   0.023  0.00  0.00     0.190 HD
ENDROOT
BRANCH   2   5
ATOM      5  C8  <0> d           1.242   1.961   0.001  0.00  0.00     0.076 C 
ATOM      6  C9  <0> d           2.420   1.302  -0.014  0.00  0.00     0.020 C 
BRANCH   6   7
ATOM      7  C10 <0> d           3.683   2.054  -0.022  0.00  0.00    -0.001 A 
ATOM      8  C15 <0> d           4.910   1.373  -0.032  0.00  0.00     0.085 A 
ATOM      9  C14 <0> d           6.095   2.093  -0.044  0.00  0.00     0.039 A 
ATOM     10  C13 <0> d           6.066   3.474  -0.037  0.00  0.00     0.022 A 
ATOM     11  C12 <0> d           4.857   4.152  -0.021  0.00  0.00     0.011 A 
ATOM     12  C11 <0> d           3.669   3.454  -0.014  0.00  0.00     0.033 A 
ATOM     13 Br1  <0> d           4.838   6.043  -0.011  0.00  0.00    -0.051 Br
BRANCH   8  14
ATOM     14  O3  <0> d           4.937   0.017  -0.034  0.00  0.00    -0.289 OA
BRANCH  14  15
ATOM     15  C16 <0> d           6.223  -0.607  -0.044  0.00  0.00     0.505 C 
ATOM     16  F1  <0> d           6.922  -0.215  -1.190  0.00  0.00    -0.184 F 
ATOM     17  F2  <0> d           6.938  -0.218   1.094  0.00  0.00    -0.184 F 
ENDBRANCH  14  15
ENDBRANCH   8  14
ENDBRANCH   6   7
ENDBRANCH   2   5
BRANCH   1  18
ATOM     18  N2  <0> d          -2.394   1.154   0.020  0.00  0.00    -0.263 N 
ATOM     19  C6  <0> d          -3.571   1.812   0.029  0.00  0.00     0.271 C 
ATOM     20  O1  <0> d          -3.587   3.027   0.035  0.00  0.00    -0.266 OA
ATOM     21  H5  <0> d          -2.381   0.184   0.014  0.00  0.00     0.190 HD
BRANCH  19  22
ATOM     22  C3  <0> d          -4.841   1.056   0.031  0.00  0.00     0.051 A 
ATOM     23  C2  <0> d          -6.069   1.727   0.046  0.00  0.00     0.020 A 
ATOM     24  C1  <0> d          -7.229   0.972   0.043  0.00  0.00     0.020 A 
ATOM     25  C5  <0> d          -7.139  -0.408   0.034  0.00  0.00     0.116 A 
ATOM     26  N1  <0> d          -5.967  -1.014   0.025  0.00  0.00    -0.272 NA
ATOM     27  C4  <0> d          -4.835  -0.340   0.023  0.00  0.00     0.133 A 
ENDBRANCH  19  22
ENDBRANCH   1  18
TORSDOF 6
