REMARK  5 active torsions:
REMARK  status: ('A' for Active; 'I' for Inactive)
REMARK    1  A    between atoms: C7_7  and  C8_8 
REMARK    2  A    between atoms: C7_7  and  N6_26 
REMARK    3  A    between atoms: N4_12  and  C9_13 
REMARK    4  A    between atoms: C9_13  and  C10_14 
REMARK       I    between atoms: C10_14  and  N5_16 
REMARK    5  A    between atoms: N5_16  and  C11_17 
ROOT
ATOM      1  C8  <0> d          -2.177  -4.420   1.205  0.00  0.00     0.174 A 
ATOM      2  N1  <0> d          -2.707  -4.779   0.061  0.00  0.00    -0.112 NA
ATOM      3  N2  <0> d          -3.935  -5.105   0.276  0.00  0.00    -0.023 NA
ATOM      4  N3  <0> d          -4.202  -4.963   1.528  0.00  0.00    -0.044 NA
ATOM      5  N4  <0> d          -3.142  -4.547   2.134  0.00  0.00    -0.224 N 
ENDROOT
BRANCH   5   6
ATOM      6  C9  <0> d          -3.014  -4.263   3.566  0.00  0.00     0.257 C 
BRANCH   6   7
ATOM      7  C10 <0> d          -3.369  -2.821   3.826  0.00  0.00     0.237 C 
ATOM      8  O1  <0> d          -3.697  -2.102   2.906  0.00  0.00    -0.272 OA
ATOM      9  N5  <0> d          -3.322  -2.332   5.081  0.00  0.00    -0.355 N 
ATOM     10  H18 <0> d          -3.060  -2.907   5.816  0.00  0.00     0.162 HD
BRANCH   9  11
ATOM     11  C11 <0> d          -3.668  -0.931   5.333  0.00  0.00     0.089 C 
ATOM     12  C15 <0> d          -2.975  -0.455   6.614  0.00  0.00     0.062 C 
ATOM     13  C14 <0> d          -3.404   0.984   6.913  0.00  0.00     0.055 C 
ATOM     14  O2  <0> d          -4.827   1.040   7.032  0.00  0.00    -0.381 OA
ATOM     15  C16 <0> d          -2.763   1.446   8.223  0.00  0.00     0.045 C 
ATOM     16  C17 <0> d          -2.951   1.898   5.773  0.00  0.00     0.045 C 
ATOM     17  C13 <0> d          -5.527   0.652   5.849  0.00  0.00     0.171 C 
ATOM     18  C12 <0> d          -5.184  -0.800   5.508  0.00  0.00     0.051 C 
ENDBRANCH   9  11
ENDBRANCH   6   7
ENDBRANCH   5   6
BRANCH   1  19
ATOM     19  C7  <0> d          -0.760  -3.960   1.435  0.00  0.00     0.316 C 
BRANCH  19  20
ATOM     20  N6  <0> d          -0.701  -2.489   1.302  0.00  0.00    -0.064 N 
ATOM     21  C4  <0> d          -1.406  -2.065   0.074  0.00  0.00     0.235 C 
ATOM     22  C3  <0> d          -1.434  -0.535   0.021  0.00  0.00     0.032 C 
ATOM     23  C2  <0> d           0.002  -0.004   0.002  0.00  0.00    -0.015 C 
ATOM     24  C1  <0> d          -0.019   1.526   0.010  0.00  0.00     0.010 C 
ATOM     25  C6  <0> d           0.742  -0.513   1.242  0.00  0.00     0.032 C 
ATOM     26  C5  <0> d           0.707  -2.042   1.260  0.00  0.00     0.235 C 
ATOM     27  H31 <0> d          -1.162  -2.063   2.115  0.00  0.00     0.280 HD
ENDBRANCH  19  20
ENDBRANCH   1  19
TORSDOF 5
