REMARK  4 active torsions:
REMARK  status: ('A' for Active; 'I' for Inactive)
REMARK    1  A    between atoms: C2_2  and  C3_3 
REMARK    2  A    between atoms: C8_8  and  N1_9 
REMARK       I    between atoms: N1_9  and  C9_10 
REMARK    3  A    between atoms: C9_10  and  C10_12 
REMARK    4  A    between atoms: C13_15  and  N2_18 
ROOT
ATOM      1  C10 <0> d           6.477  -0.058   1.397  0.00  0.00     0.032 A 
ATOM      2  C11 <0> d           6.019  -0.682   0.233  0.00  0.00     0.019 A 
ATOM      3  C12 <0> d           4.737  -0.453  -0.210  0.00  0.00     0.032 A 
ATOM      4  C13 <0> d           3.896   0.399   0.499  0.00  0.00     0.053 A 
ATOM      5  C14 <0> d           4.350   1.026   1.655  0.00  0.00     0.032 A 
ATOM      6  C15 <0> d           5.630   0.797   2.107  0.00  0.00     0.019 A 
ENDROOT
BRANCH   1   7
ATOM      7  C9  <0> d           7.852  -0.302   1.875  0.00  0.00     0.256 C 
ATOM      8  N1  <0> d           8.292   0.301   2.997  0.00  0.00    -0.322 N 
ATOM      9  H9  <0> d           7.724   0.935   3.462  0.00  0.00     0.169 HD
ATOM     10  O1  <0> d           8.588  -1.046   1.256  0.00  0.00    -0.267 OA
BRANCH   8  11
ATOM     11  C8  <0> d           9.567   0.011   3.493  0.00  0.00     0.047 A 
ATOM     12  C3  <0> d          10.459   1.040   3.765  0.00  0.00    -0.031 A 
ATOM     13  C4  <0> d          11.715   0.751   4.260  0.00  0.00     0.009 A 
ATOM     14  C5  <0> d          12.090  -0.563   4.473  0.00  0.00     0.001 A 
ATOM     15  C6  <0> d          11.207  -1.591   4.198  0.00  0.00     0.009 A 
ATOM     16  C7  <0> d           9.947  -1.308   3.709  0.00  0.00    -0.035 A 
ATOM     17  C19 <0> d           8.984  -2.429   3.410  0.00  0.00     0.050 C 
BRANCH  12  18
ATOM     18  C2  <0> d          10.053   2.472   3.526  0.00  0.00     0.036 C 
ATOM     19  C1  <0> d           9.300   2.999   4.749  0.00  0.00     0.010 C 
ENDBRANCH  12  18
ENDBRANCH   8  11
ENDBRANCH   1   7
BRANCH   4  20
ATOM     20  N2  <0> d           2.597   0.630   0.047  0.00  0.00    -0.209 N 
ATOM     21  S1  <0> d           1.668   1.985   0.369  0.00  0.00     0.240 S 
ATOM     22  C18 <0> d           0.026   1.374  -0.194  0.00  0.00     0.173 C 
ATOM     23  O3  <0> d           2.156   3.000  -0.499  0.00  0.00    -0.205 OA
ATOM     24  O4  <0> d           1.694   2.143   1.780  0.00  0.00    -0.205 OA
ATOM     25  C17 <0> d           0.500   0.241  -1.143  0.00  0.00     0.121 C 
ATOM     26  C16 <0> d           1.871  -0.195  -0.722  0.00  0.00     0.238 C 
ATOM     27  O2  <0> d           2.313  -1.270  -1.069  0.00  0.00    -0.272 OA
ENDBRANCH   4  20
TORSDOF 4
