REMARK  7 active torsions:
REMARK  status: ('A' for Active; 'I' for Inactive)
REMARK    1  A    between atoms: C2_2  and  C3_3 
REMARK    2  A    between atoms: C2_2  and  N1_6 
REMARK    3  A    between atoms: N1_6  and  S1_7 
REMARK    4  A    between atoms: S1_7  and  C6_10 
REMARK    5  A    between atoms: C8_12  and  C11_16 
REMARK    6  A    between atoms: C12_17  and  C13_18 
REMARK    7  A    between atoms: C13_18  and  O3_19 
ROOT
ATOM      1  C6  <0> d           3.183   0.638   0.757  0.00  0.00     0.098 A 
ATOM      2  C7  <0> d           3.407   1.034  -0.550  0.00  0.00     0.048 A 
ATOM      3  C8  <0> d           4.096   2.232  -0.771  0.00  0.00     0.036 A 
ATOM      4  C9  <0> d           4.527   2.974   0.329  0.00  0.00     0.136 A 
ATOM      5  N2  <0> d           4.290   2.555   1.554  0.00  0.00    -0.270 NA
ATOM      6  C10 <0> d           3.638   1.433   1.793  0.00  0.00     0.141 A 
ENDROOT
BRANCH   1   7
ATOM      7  S1  <0> d           2.322  -0.861   1.097  0.00  0.00     0.260 S 
ATOM      8  O1  <0> d           2.719  -1.271   2.398  0.00  0.00    -0.200 OA
ATOM      9  O2  <0> d           2.483  -1.690  -0.045  0.00  0.00    -0.200 OA
BRANCH   7  10
ATOM     10  N1  <0> d           0.711  -0.489   1.189  0.00  0.00    -0.311 N 
ATOM     11  H10 <0> d           0.236  -0.593   2.029  0.00  0.00     0.172 HD
BRANCH  10  12
ATOM     12  C2  <0> d           0.002  -0.004   0.002  0.00  0.00     0.093 C 
ATOM     13  C1  <0> d          -0.019   1.526   0.010  0.00  0.00     0.033 C 
BRANCH  12  14
ATOM     14  C3  <0> d          -1.433  -0.534   0.013  0.00  0.00     0.009 A 
ATOM     15  C5  <0> d          -2.342  -0.135  -1.152  0.00  0.00     0.007 A 
ATOM     16  C4  <0> d          -1.813  -1.567  -1.049  0.00  0.00     0.007 A 
ENDBRANCH  12  14
ENDBRANCH  10  12
ENDBRANCH   7  10
ENDBRANCH   1   7
BRANCH   3  17
ATOM     17  C11 <0> d           4.355   2.688  -2.104  0.00  0.00    -0.063 C 
ATOM     18  C12 <0> d           4.567   3.062  -3.197  0.00  0.00    -0.075 C 
BRANCH  18  19
ATOM     19  C13 <0> d           4.832   3.530  -4.566  0.00  0.00     0.258 C 
BRANCH  19  20
ATOM     20  O3  <0> d           5.545   4.768  -4.517  0.00  0.00    -0.389 OA
ATOM     21  H16 <0> d           5.755   5.136  -5.386  0.00  0.00     0.210 HD
ENDBRANCH  19  20
ENDBRANCH  18  19
ENDBRANCH   3  17
TORSDOF 7
