REMARK  1 active torsions:
REMARK  status: ('A' for Active; 'I' for Inactive)
REMARK    1  A    between atoms: C2_2  and  N1_3 
ROOT
ATOM      1  N1  <0> d          -3.373   2.612   1.462  0.00  0.00    -0.263 NA
ATOM      2  C3  <0> d          -4.130   2.869   0.338  0.00  0.00     0.096 A 
ATOM      3  C4  <0> d          -3.613   2.808  -0.948  0.00  0.00     0.051 A 
ATOM      4  C5  <0> d          -4.444   3.106  -2.029  0.00  0.00     0.262 A 
ATOM      5  O1  <0> d          -4.011   3.065  -3.171  0.00  0.00    -0.267 OA
ATOM      6  N2  <0> d          -5.730   3.442  -1.801  0.00  0.00    -0.274 N 
ATOM      7  C6  <0> d          -6.548   3.738  -2.850  0.00  0.00     0.102 A 
ATOM      8  C7  <0> d          -7.842   4.067  -2.647  0.00  0.00     0.018 A 
ATOM      9  C8  <0> d          -8.362   4.107  -1.345  0.00  0.00     0.012 A 
ATOM     10  C9  <0> d          -7.554   3.816  -0.288  0.00  0.00    -0.017 A 
ATOM     11  C10 <0> d          -6.207   3.478  -0.520  0.00  0.00     0.121 A 
ATOM     12  N3  <0> d          -5.415   3.199   0.509  0.00  0.00    -0.332 N 
ATOM     13  C11 <0> d          -8.097   3.856   1.118  0.00  0.00     0.052 C 
ATOM     14  C12 <0> d          -2.181   2.427  -1.221  0.00  0.00     0.078 C 
ATOM     15  C13 <0> d          -1.370   2.514   0.075  0.00  0.00     0.142 A 
ATOM     16  C14 <0> d          -2.174   1.820   1.182  0.00  0.00     0.088 C 
ATOM     17  C15 <0> d          -2.581   0.420   0.718  0.00  0.00     0.028 C 
ATOM     18  C16 <0> d          -1.154   3.954   0.445  0.00  0.00     0.245 A 
ATOM     19  O2  <0> d          -2.118   4.664   0.636  0.00  0.00    -0.272 OA
ATOM     20  N4  <0> d           0.074   4.478   0.565  0.00  0.00    -0.278 N 
ATOM     21  C17 <0> d           1.180   3.744   0.367  0.00  0.00     0.331 A 
ATOM     22  O3  <0> d           2.268   4.271   0.486  0.00  0.00    -0.246 OA
ATOM     23  N5  <0> d           1.115   2.445   0.042  0.00  0.00    -0.273 N 
ATOM     24  C18 <0> d          -0.056   1.809  -0.106  0.00  0.00     0.247 A 
ATOM     25  O4  <0> d          -0.055   0.633  -0.399  0.00  0.00    -0.271 OA
ATOM     26  C19 <0> d           2.360   1.698  -0.158  0.00  0.00     0.164 C 
ATOM     27  H18 <0> d           0.196   5.537   0.833  0.00  0.00     0.173 HD
ATOM     28  H22 <0> d          -5.840   3.245   1.522  0.00  0.00     0.168 HD
ENDROOT
BRANCH   1  29
ATOM     29  C2  <0> d          -4.186   1.983   2.511  0.00  0.00     0.093 C 
ATOM     30  C1  <0> d          -3.294   1.620   3.700  0.00  0.00     0.021 C 
ENDBRANCH   1  29
TORSDOF 1
