REMARK  4 active torsions:
REMARK  status: ('A' for Active; 'I' for Inactive)
REMARK    1  A    between atoms: C7_7  and  C9_13 
REMARK    2  A    between atoms: C9_13  and  C10_14 
REMARK       I    between atoms: C10_14  and  N3_16 
REMARK    3  A    between atoms: N3_16  and  N4_17 
REMARK       I    between atoms: N4_17  and  C11_18 
REMARK    4  A    between atoms: C11_18  and  C12_20 
ROOT
ATOM      1  C10 <0> d          -4.934   4.148   0.070  0.00  0.00     0.241 C 
ATOM      2  O2  <0> d          -4.692   5.337   0.074  0.00  0.00    -0.271 OA
ATOM      3  N3  <0> d          -6.212   3.720   0.079  0.00  0.00    -0.267 N 
ATOM      4  H8  <0> d          -6.405   2.769   0.076  0.00  0.00     0.190 HD
ENDROOT
BRANCH   1   5
ATOM      5  C9  <0> d          -3.805   3.150   0.054  0.00  0.00     0.166 C 
BRANCH   5   6
ATOM      6  C7  <0> d          -2.487   3.882   0.046  0.00  0.00     0.074 A 
ATOM      7  C5  <0> d          -1.233   3.130   0.031  0.00  0.00     0.006 A 
ATOM      8  C4  <0> d          -0.015   3.847   0.023  0.00  0.00     0.046 A 
ATOM      9  C6  <0> d          -1.211   1.734   0.017  0.00  0.00     0.014 A 
ATOM     10  C3  <0> d           1.195   3.155   0.008  0.00  0.00     0.018 A 
ATOM     11  C8  <0> d          -0.072   5.314   0.031  0.00  0.00     0.272 A 
ATOM     12  C2  <0> d           1.186   1.777   0.000  0.00  0.00     0.001 A 
ATOM     13  C1  <0> d          -0.013   1.076   0.008  0.00  0.00     0.001 A 
ATOM     14  N2  <0> d          -1.280   5.916   0.045  0.00  0.00    -0.243 N 
ATOM     15  O1  <0> d           0.951   5.975   0.025  0.00  0.00    -0.266 OA
ATOM     16  N1  <0> d          -2.466   5.181   0.052  0.00  0.00    -0.175 NA
ATOM     17  H1  <0> d          -1.326   6.915   0.051  0.00  0.00     0.192 HD
ENDBRANCH   5   6
ENDBRANCH   1   5
BRANCH   3  18
ATOM     18  N4  <0> d          -7.261   4.648   0.094  0.00  0.00    -0.263 N 
ATOM     19  C11 <0> d          -8.539   4.220   0.103  0.00  0.00     0.271 C 
ATOM     20  O3  <0> d          -8.781   3.029   0.099  0.00  0.00    -0.266 OA
ATOM     21  H9  <0> d          -7.068   5.598   0.097  0.00  0.00     0.190 HD
BRANCH  19  22
ATOM     22  C12 <0> d          -9.646   5.199   0.119  0.00  0.00     0.051 A 
ATOM     23  C17 <0> d         -10.972   4.758   0.128  0.00  0.00     0.026 A 
ATOM     24  C16 <0> d         -12.001   5.679   0.143  0.00  0.00     0.020 A 
ATOM     25 Br1  <0> d         -11.356   2.907   0.123  0.00  0.00    -0.050 Br
ATOM     26  C15 <0> d         -11.721   7.033   0.148  0.00  0.00     0.001 A 
ATOM     27  C14 <0> d         -10.410   7.476   0.139  0.00  0.00     0.001 A 
ATOM     28  C13 <0> d          -9.372   6.567   0.129  0.00  0.00     0.018 A 
ENDBRANCH  19  22
ENDBRANCH   3  18
TORSDOF 4
