REMARK  5 active torsions:
REMARK  status: ('A' for Active; 'I' for Inactive)
REMARK    1  A    between atoms: C2_2  and  N1_3 
REMARK    2  A    between atoms: C4_5  and  N3_9 
REMARK       I    between atoms: N3_9  and  C7_10 
REMARK    3  A    between atoms: C7_10  and  C8_12 
REMARK    4  A    between atoms: C8_12  and  S1_13 
REMARK    5  A    between atoms: S1_13  and  C9_14 
ROOT
ATOM      1  C8  <0> d          -3.139  -5.377   3.283  0.00  0.00     0.180 C 
ENDROOT
BRANCH   1   2
ATOM      2  C7  <0> d          -2.948  -3.961   2.803  0.00  0.00     0.231 C 
ATOM      3  N3  <0> d          -2.388  -3.728   1.600  0.00  0.00    -0.327 N 
ATOM      4  H12 <0> d          -2.175  -4.469   1.012  0.00  0.00     0.168 HD
ATOM      5  O1  <0> d          -3.298  -3.032   3.500  0.00  0.00    -0.272 OA
BRANCH   3   6
ATOM      6  C4  <0> d          -2.114  -2.414   1.198  0.00  0.00     0.054 A 
ATOM      7  C3  <0> d          -1.261  -1.405   1.935  0.00  0.00     0.127 A 
ATOM      8  N1  <0> d          -1.302  -0.198   1.087  0.00  0.00    -0.222 NA
ATOM      9  C18 <0> d           0.176  -1.913   2.071  0.00  0.00     0.035 C 
ATOM     10  N2  <0> d          -2.086  -0.511   0.013  0.00  0.00    -0.321 N 
ATOM     11  C5  <0> d          -2.550  -1.817   0.101  0.00  0.00     0.041 A 
ATOM     12  H8  <0> d          -2.291   0.098  -0.714  0.00  0.00     0.180 HD
ATOM     13  C6  <0> d          -3.440  -2.472  -0.924  0.00  0.00     0.071 C 
BRANCH   8  14
ATOM     14  C2  <0> d          -1.854   0.946   1.825  0.00  0.00     0.110 C 
ATOM     15  C1  <0> d          -1.816   2.192   0.939  0.00  0.00     0.023 C 
ENDBRANCH   8  14
ENDBRANCH   3   6
ENDBRANCH   1   2
BRANCH   1  16
ATOM     16  S1  <0> d          -3.911  -5.359   4.925  0.00  0.00    -0.114 SA
BRANCH  16  17
ATOM     17  C9  <0> d          -4.070  -7.115   5.354  0.00  0.00     0.247 A 
ATOM     18  N5  <0> d          -4.892  -7.806   4.352  0.00  0.00    -0.358 N 
ATOM     19  C15 <0> d          -4.151  -8.732   3.813  0.00  0.00     0.063 A 
ATOM     20  H26 <0> d          -5.816  -7.609   4.134  0.00  0.00     0.162 HD
ATOM     21  C10 <0> d          -2.797  -8.703   4.430  0.00  0.00     0.058 A 
ATOM     22  C14 <0> d          -4.407  -9.732   2.767  0.00  0.00    -0.033 A 
ATOM     23  N4  <0> d          -2.752  -7.761   5.327  0.00  0.00    -0.358 N 
ATOM     24  C11 <0> d          -1.806  -9.678   3.955  0.00  0.00     0.038 A 
ATOM     25  H27 <0> d          -1.988  -7.529   5.877  0.00  0.00     0.162 HD
ATOM     26  C12 <0> d          -2.146 -10.555   2.989  0.00  0.00    -0.059 A 
ATOM     27  C13 <0> d          -3.425 -10.582   2.405  0.00  0.00     0.015 A 
ATOM     28  C17 <0> d          -1.113 -11.546   2.516  0.00  0.00     0.048 C 
ATOM     29  C16 <0> d          -5.758  -9.809   2.105  0.00  0.00     0.050 C 
ENDBRANCH  16  17
ENDBRANCH   1  16
TORSDOF 5
