REMARK  4 active torsions:
REMARK  status: ('A' for Active; 'I' for Inactive)
REMARK    1  A    between atoms: N2_5  and  C6_8 
REMARK    2  A    between atoms: C9_11  and  N3_14 
REMARK    3  A    between atoms: N3_14  and  S1_15 
REMARK    4  A    between atoms: S1_15  and  C12_18 
ROOT
ATOM      1  N3  <0> d          -2.514  -6.816   4.274  0.00  0.00    -0.281 N 
ATOM      2  H18 <0> d          -3.411  -6.913   4.631  0.00  0.00     0.179 HD
ENDROOT
BRANCH   1   3
ATOM      3  C9  <0> d          -2.193  -5.707   3.482  0.00  0.00     0.042 A 
ATOM      4  C8  <0> d          -2.643  -5.637   2.170  0.00  0.00     0.032 A 
ATOM      5  C7  <0> d          -2.326  -4.544   1.389  0.00  0.00     0.031 A 
ATOM      6  C6  <0> d          -1.558  -3.514   1.915  0.00  0.00     0.030 A 
ATOM      7  C11 <0> d          -1.103  -3.586   3.224  0.00  0.00     0.031 A 
ATOM      8  C10 <0> d          -1.424  -4.678   4.008  0.00  0.00     0.032 A 
BRANCH   6   9
ATOM      9  N2  <0> d          -1.237  -2.405   1.122  0.00  0.00    -0.378 N 
ATOM     10  C3  <0> d          -1.601  -2.362  -0.302  0.00  0.00     0.150 C 
ATOM     11  C2  <0> d          -2.317  -1.037  -0.581  0.00  0.00     0.254 C 
ATOM     12  N1  <0> d          -1.471   0.078  -0.138  0.00  0.00    -0.072 N 
ATOM     13  C1  <0> d          -2.108   1.350  -0.505  0.00  0.00     0.269 C 
ATOM     14  C5  <0> d          -1.293   0.024   1.318  0.00  0.00     0.254 C 
ATOM     15  H22 <0> d          -0.570   0.013  -0.588  0.00  0.00     0.279 HD
ATOM     16  C4  <0> d          -0.526  -1.249   1.691  0.00  0.00     0.150 C 
ENDBRANCH   6   9
ENDBRANCH   1   3
BRANCH   1  17
ATOM     17  S1  <0> d          -1.364  -7.961   4.601  0.00  0.00     0.263 S 
ATOM     18  O1  <0> d          -0.202  -7.261   5.025  0.00  0.00    -0.200 OA
ATOM     19  O2  <0> d          -1.993  -8.950   5.405  0.00  0.00    -0.200 OA
BRANCH  17  20
ATOM     20  C12 <0> d          -0.954  -8.739   3.074  0.00  0.00     0.082 A 
ATOM     21  C17 <0> d           0.105  -8.267   2.324  0.00  0.00     0.057 A 
ATOM     22  C16 <0> d           0.431  -8.882   1.125  0.00  0.00     0.064 A 
ATOM     23  C15 <0> d          -0.321  -9.970   0.676  0.00  0.00     0.063 A 
ATOM     24  N4  <0> d           1.416  -8.651   0.169  0.00  0.00    -0.306 N 
ATOM     25  C14 <0> d          -1.386 -10.434   1.433  0.00  0.00     0.033 A 
ATOM     26  N5  <0> d           0.232 -10.365  -0.540  0.00  0.00    -0.307 N 
ATOM     27  C13 <0> d          -1.699  -9.817   2.628  0.00  0.00     0.028 A 
ATOM     28  C18 <0> d           1.271  -9.556  -0.818  0.00  0.00     0.325 A 
ATOM     29  H2  <0> d          -0.079 -11.099  -1.093  0.00  0.00     0.170 HD
ATOM     30  O3  <0> d           1.973  -9.631  -1.809  0.00  0.00    -0.247 OA
ATOM     31  H1  <0> d           2.092  -7.956   0.207  0.00  0.00     0.170 HD
ENDBRANCH  17  20
ENDBRANCH   1  17
TORSDOF 4
