REMARK  3 active torsions:
REMARK  status: ('A' for Active; 'I' for Inactive)
REMARK    1  A    between atoms: C5_5  and  N3_18 
REMARK    2  A    between atoms: C7_7  and  N1_8 
REMARK       I    between atoms: N1_8  and  C8_9 
REMARK    3  A    between atoms: C8_9  and  C9_11 
ROOT
ATOM      1  C1  <0> d          -0.033   1.484  -0.053  0.00  0.00     0.050 C 
ATOM      2  C2  <0> d           0.009  -0.021   0.015  0.00  0.00    -0.035 A 
ATOM      3  C3  <0> d           0.028  -0.765  -1.149  0.00  0.00     0.011 A 
ATOM      4  C4  <0> d           0.067  -2.144  -1.090  0.00  0.00     0.031 A 
ATOM      5  C5  <0> d           0.086  -2.789   0.140  0.00  0.00     0.047 A 
ATOM      6  C6  <0> d           0.067  -2.046   1.311  0.00  0.00     0.060 A 
ATOM      7  C7  <0> d           0.034  -0.659   1.249  0.00  0.00     0.043 A 
ENDROOT
BRANCH   7   8
ATOM      8  N1  <0> d           0.021   0.094   2.427  0.00  0.00    -0.321 N 
ATOM      9  C8  <0> d          -0.467  -0.442   3.564  0.00  0.00     0.272 C 
ATOM     10  O1  <0> d          -0.829  -1.603   3.583  0.00  0.00    -0.266 OA
ATOM     11  H8  <0> d           0.362   1.002   2.426  0.00  0.00     0.169 HD
BRANCH   9  12
ATOM     12  C9  <0> d          -0.561   0.375   4.778  0.00  0.00     0.102 A 
ATOM     13  N2  <0> d          -0.191   1.695   4.901  0.00  0.00    -0.360 N 
ATOM     14  C12 <0> d          -0.432   2.097   6.173  0.00  0.00     0.107 A 
ATOM     15  H1  <0> d           0.180   2.247   4.194  0.00  0.00     0.165 HD
ATOM     16  C11 <0> d          -0.944   1.054   6.872  0.00  0.00     0.028 A 
ATOM     17  C10 <0> d          -1.032  -0.040   6.006  0.00  0.00     0.055 A 
ATOM     18 Br1  <0> d          -1.449   1.076   8.694  0.00  0.00    -0.050 Br
ENDBRANCH   9  12
ENDBRANCH   7   8
BRANCH   5  19
ATOM     19  N3  <0> d           0.124  -4.189   0.199  0.00  0.00    -0.252 N 
ATOM     20  C16 <0> d           1.166  -4.865   0.699  0.00  0.00     0.231 A 
ATOM     21  C15 <0> d           0.883  -6.349   0.616  0.00  0.00     0.113 A 
ATOM     22  O3  <0> d           2.175  -4.367   1.150  0.00  0.00    -0.273 OA
ATOM     23  C14 <0> d          -0.514  -6.414  -0.036  0.00  0.00     0.113 A 
ATOM     24  C13 <0> d          -0.875  -4.960  -0.247  0.00  0.00     0.231 A 
ATOM     25  O2  <0> d          -1.906  -4.557  -0.741  0.00  0.00    -0.273 OA
ENDBRANCH   5  19
TORSDOF 3
