REMARK  4 active torsions:
REMARK  status: ('A' for Active; 'I' for Inactive)
REMARK    1  A    between atoms: C6_7  and  C9_11 
REMARK    2  A    between atoms: C9_11  and  N3_12 
REMARK       I    between atoms: N3_12  and  C10_13 
REMARK    3  A    between atoms: C10_13  and  C11_15 
REMARK       I    between atoms: N4_17  and  C19_25 
REMARK    4  A    between atoms: C19_25  and  C20_27 
ROOT
ATOM      1  C11 <0> d           3.845  -7.310   3.707  0.00  0.00     0.106 C 
ATOM      2  C12 <0> d           4.142  -6.092   4.610  0.00  0.00     0.141 C 
ATOM      3  N4  <0> d           3.876  -6.573   5.986  0.00  0.00    -0.346 N 
ATOM      4  C13 <0> d           4.403  -7.958   6.001  0.00  0.00     0.136 C 
ATOM      5  C14 <0> d           4.021  -8.533   4.622  0.00  0.00    -0.007 C 
ATOM      6  C15 <0> d           5.137  -9.431   4.096  0.00  0.00     0.039 C 
ATOM      7  C16 <0> d           5.254 -10.669   4.989  0.00  0.00     0.233 C 
ATOM      8  N5  <0> d           3.977 -11.393   4.994  0.00  0.00    -0.075 N 
ATOM      9  C17 <0> d           2.928 -10.555   5.588  0.00  0.00     0.233 C 
ATOM     10  C18 <0> d           2.713  -9.312   4.720  0.00  0.00     0.039 C 
ATOM     11  C19 <0> d           3.288  -5.902   6.997  0.00  0.00     0.253 C 
ATOM     12  O2  <0> d           2.792  -4.811   6.794  0.00  0.00    -0.267 OA
ATOM     13  H20 <0> d           3.722 -11.629   4.047  0.00  0.00     0.277 HD
ATOM     14  H30 <0> d           4.075 -12.240   5.534  0.00  0.00     0.277 HD
ENDROOT
BRANCH   1  15
ATOM     15  C10 <0> d           2.433  -7.244   3.185  0.00  0.00     0.224 C 
ATOM     16  N3  <0> d           2.103  -7.891   2.049  0.00  0.00    -0.355 N 
ATOM     17  H11 <0> d           2.775  -8.399   1.568  0.00  0.00     0.162 HD
ATOM     18  O1  <0> d           1.593  -6.609   3.787  0.00  0.00    -0.273 OA
BRANCH  16  19
ATOM     19  C9  <0> d           0.730  -7.827   1.542  0.00  0.00     0.181 C 
BRANCH  19  20
ATOM     20  C6  <0> d           0.627  -8.628   0.270  0.00  0.00     0.044 A 
ATOM     21  C5  <0> d           0.224  -9.914   0.179  0.00  0.00     0.124 A 
ATOM     22  N1  <0> d           0.273 -10.260  -1.144  0.00  0.00    -0.317 N 
ATOM     23  C4  <0> d          -0.020 -11.417  -1.807  0.00  0.00     0.098 A 
ATOM     24  C7  <0> d           0.711  -9.158  -1.831  0.00  0.00     0.112 A 
ATOM     25  C3  <0> d           0.117 -11.494  -3.148  0.00  0.00     0.024 A 
ATOM     26  C2  <0> d           0.564 -10.382  -3.880  0.00  0.00    -0.057 A 
ATOM     27  C1  <0> d           0.716 -10.472  -5.376  0.00  0.00     0.048 C 
ATOM     28  C8  <0> d           0.865  -9.225  -3.231  0.00  0.00     0.055 A 
ATOM     29  N2  <0> d           0.918  -8.185  -0.956  0.00  0.00    -0.343 N 
ATOM     30  H31 <0> d           1.232  -7.292  -1.171  0.00  0.00     0.167 HD
ENDBRANCH  19  20
ENDBRANCH  16  19
ENDBRANCH   1  15
BRANCH  11  31
ATOM     31  C20 <0> d           3.246  -6.493   8.351  0.00  0.00     0.032 A 
ATOM     32  C25 <0> d           2.305  -6.048   9.281  0.00  0.00     0.017 A 
ATOM     33  C24 <0> d           2.268  -6.608  10.541  0.00  0.00     0.001 A 
ATOM     34  C23 <0> d           3.167  -7.601  10.888  0.00  0.00     0.000 A 
ATOM     35  C22 <0> d           4.106  -8.043   9.972  0.00  0.00     0.001 A 
ATOM     36  C21 <0> d           4.150  -7.495   8.707  0.00  0.00     0.017 A 
ENDBRANCH  11  31
TORSDOF 4
