REMARK  6 active torsions:
REMARK  status: ('A' for Active; 'I' for Inactive)
REMARK    1  A    between atoms: C10_12  and  N5_15 
REMARK    2  A    between atoms: N5_15  and  N6_16 
REMARK    3  A    between atoms: C11_17  and  C12_18 
REMARK    4  A    between atoms: C14_20  and  O3_27 
REMARK    5  A    between atoms: C15_21  and  O2_26 
REMARK    6  A    between atoms: C16_22  and  O1_24 
ROOT
ATOM      1  C1  <0> d          -0.018   1.503   0.010  0.00  0.00     0.050 C 
ATOM      2  C2  <0> d           0.002  -0.004   0.002  0.00  0.00    -0.035 A 
ATOM      3  C3  <0> d           0.006  -0.681  -1.168  0.00  0.00     0.009 A 
ATOM      4  C4  <0> d           0.027  -2.082  -1.210  0.00  0.00     0.002 A 
ATOM      5  C5  <0> d           0.015  -2.841  -0.090  0.00  0.00     0.016 A 
ATOM      6  C6  <0> d          -0.020  -2.237   1.187  0.00  0.00     0.021 A 
ATOM      7  C7  <0> d          -0.157  -2.716   2.465  0.00  0.00     0.112 C 
ATOM      8  C8  <0> d           0.146  -1.530   3.374  0.00  0.00     0.281 C 
ATOM      9  N1  <0> d           0.051  -0.358   2.514  0.00  0.00    -0.360 N 
ATOM     10  C9  <0> d           0.024  -0.753   1.264  0.00  0.00     0.048 A 
ATOM     11  N2  <0> d          -0.853  -1.575   4.444  0.00  0.00    -0.072 NA
ATOM     12  C10 <0> d          -1.363  -2.737   4.766  0.00  0.00     0.734 C 
ATOM     13  N3  <0> d          -1.062  -3.894   4.130  0.00  0.00    -0.106 N 
ATOM     14  N4  <0> d          -0.488  -3.905   2.971  0.00  0.00    -0.160 NA
ATOM     15  H19 <0> d          -1.291  -4.737   4.551  0.00  0.00     0.208 HD
ATOM     16  H20 <0> d           0.018   0.563   2.817  0.00  0.00     0.162 HD
ENDROOT
BRANCH  12  17
ATOM     17  N5  <0> d          -2.258  -2.786   5.816  0.00  0.00    -0.106 N 
ATOM     18  H8  <0> d          -2.652  -3.633   6.078  0.00  0.00     0.208 HD
BRANCH  17  19
ATOM     19  N6  <0> d          -2.598  -1.613   6.502  0.00  0.00    -0.172 NA
ATOM     20  C11 <0> d          -3.440  -1.660   7.490  0.00  0.00     0.150 C 
BRANCH  20  21
ATOM     21  C12 <0> d          -3.797  -0.425   8.212  0.00  0.00    -0.011 A 
ATOM     22  C17 <0> d          -4.704  -0.474   9.275  0.00  0.00     0.052 A 
ATOM     23  C16 <0> d          -5.033   0.685   9.954  0.00  0.00     0.104 A 
ATOM     24  C15 <0> d          -4.471   1.900   9.573  0.00  0.00     0.133 A 
ATOM     25  C14 <0> d          -3.573   1.952   8.512  0.00  0.00     0.104 A 
ATOM     26  C13 <0> d          -3.235   0.796   7.832  0.00  0.00     0.052 A 
BRANCH  23  27
ATOM     27  O1  <0> d          -5.910   0.638  10.992  0.00  0.00    -0.353 OA
ATOM     28  C18 <0> d          -6.449  -0.642  11.329  0.00  0.00     0.210 C 
ENDBRANCH  23  27
BRANCH  24  29
ATOM     29  O2  <0> d          -4.800   3.039  10.240  0.00  0.00    -0.356 OA
ATOM     30  H15 <0> d          -5.565   3.503   9.873  0.00  0.00     0.218 HD
ENDBRANCH  24  29
BRANCH  25  31
ATOM     31  O3  <0> d          -3.026   3.142   8.143  0.00  0.00    -0.353 OA
ATOM     32  C19 <0> d          -2.111   3.122   7.045  0.00  0.00     0.210 C 
ENDBRANCH  25  31
ENDBRANCH  20  21
ENDBRANCH  17  19
ENDBRANCH  12  17
TORSDOF 6
