REMARK  5 active torsions:
REMARK  status: ('A' for Active; 'I' for Inactive)
REMARK    1  A    between atoms: N1_15  and  C14_16 
REMARK    2  A    between atoms: C14_16  and  C15_17 
REMARK       I    between atoms: C15_17  and  N2_19 
REMARK    3  A    between atoms: N2_19  and  N3_20 
REMARK    4  A    between atoms: C16_21  and  C17_22 
REMARK    5  A    between atoms: C20_25  and  N4_28 
ROOT
ATOM      1  C14 <0> d          -3.688   3.023   0.055  0.00  0.00     0.234 C 
ENDROOT
BRANCH   1   2
ATOM      2  N1  <0> d          -2.449   3.804   0.047  0.00  0.00    -0.336 N 
ATOM      3  C4  <0> d          -1.244   3.135   0.031  0.00  0.00     0.049 A 
ATOM      4  C3  <0> d          -1.219   1.741   0.017  0.00  0.00     0.031 A 
ATOM      5  C5  <0> d          -0.029   3.839   0.022  0.00  0.00     0.042 A 
ATOM      6  C2  <0> d          -0.013   1.076   0.008  0.00  0.00     0.002 A 
ATOM      7  C1  <0> d           1.184   1.779   0.000  0.00  0.00     0.001 A 
ATOM      8  C6  <0> d           1.183   3.145   0.007  0.00  0.00     0.018 A 
ATOM      9  C7  <0> d          -0.052   5.313   0.031  0.00  0.00     0.196 A 
ATOM     10  O1  <0> d           0.978   5.962   0.024  0.00  0.00    -0.286 OA
ATOM     11  C8  <0> d          -1.371   5.971   0.048  0.00  0.00     0.042 A 
ATOM     12  C13 <0> d          -2.532   5.179   0.055  0.00  0.00     0.049 A 
ATOM     13  C9  <0> d          -1.473   7.364   0.057  0.00  0.00     0.018 A 
ATOM     14  C12 <0> d          -3.777   5.804   0.071  0.00  0.00     0.031 A 
ATOM     15  C11 <0> d          -3.856   7.180   0.080  0.00  0.00     0.002 A 
ATOM     16  C10 <0> d          -2.705   7.955   0.073  0.00  0.00     0.001 A 
ENDBRANCH   1   2
BRANCH   1  17
ATOM     17  C15 <0> d          -4.099   2.747   1.478  0.00  0.00     0.256 C 
ATOM     18  O2  <0> d          -3.423   3.162   2.396  0.00  0.00    -0.270 OA
ATOM     19  N2  <0> d          -5.218   2.040   1.732  0.00  0.00    -0.246 N 
ATOM     20  H11 <0> d          -5.759   1.708   0.998  0.00  0.00     0.192 HD
BRANCH  19  21
ATOM     21  N3  <0> d          -5.600   1.784   3.055  0.00  0.00    -0.184 NA
ATOM     22  C16 <0> d          -6.677   1.102   3.299  0.00  0.00     0.150 C 
BRANCH  22  23
ATOM     23  C17 <0> d          -7.079   0.833   4.692  0.00  0.00    -0.017 A 
ATOM     24  C22 <0> d          -8.238   0.100   4.959  0.00  0.00     0.015 A 
ATOM     25  C21 <0> d          -8.607  -0.149   6.264  0.00  0.00     0.037 A 
ATOM     26  C20 <0> d          -7.833   0.325   7.309  0.00  0.00     0.102 A 
ATOM     27  C19 <0> d          -6.684   1.052   7.052  0.00  0.00     0.037 A 
ATOM     28  C18 <0> d          -6.299   1.304   5.752  0.00  0.00     0.015 A 
BRANCH  26  29
ATOM     29  N4  <0> d          -8.236   0.054   8.707  0.00  0.00    -0.116 N 
ATOM     30  O3  <0> d          -9.247  -0.586   8.936  0.00  0.00    -0.532 OA
ATOM     31  O4  <0> d          -7.557   0.470   9.628  0.00  0.00    -0.532 OA
ENDBRANCH  26  29
ENDBRANCH  22  23
ENDBRANCH  19  21
ENDBRANCH   1  17
TORSDOF 5
