REMARK  5 active torsions:
REMARK  status: ('A' for Active; 'I' for Inactive)
REMARK    1  A    between atoms: C4_4  and  C7_7 
REMARK    2  A    between atoms: C8_8  and  C16_18 
REMARK    3  A    between atoms: N1_10  and  C10_12 
REMARK       I    between atoms: C16_18  and  N3_20 
REMARK    4  A    between atoms: N3_20  and  N4_21 
REMARK       I    between atoms: N4_21  and  C17_22 
REMARK    5  A    between atoms: C17_22  and  C18_24 
ROOT
ATOM      1  C7  <0> d           3.703  -0.679  -0.025  0.00  0.00     0.105 A 
ATOM      2  C8  <0> d           4.026  -1.908   0.706  0.00  0.00     0.082 A 
ATOM      3  C9  <0> d           5.328  -2.227   0.376  0.00  0.00     0.138 A 
ATOM      4  N1  <0> d           5.778  -1.291  -0.477  0.00  0.00    -0.244 N 
ATOM      5  N2  <0> d           4.771  -0.352  -0.718  0.00  0.00    -0.166 NA
ENDROOT
BRANCH   2   6
ATOM      6  C16 <0> d           3.138  -2.655   1.613  0.00  0.00     0.274 C 
ATOM      7  O1  <0> d           1.975  -2.322   1.735  0.00  0.00    -0.266 OA
ATOM      8  N3  <0> d           3.614  -3.708   2.306  0.00  0.00    -0.263 N 
ATOM      9  H13 <0> d           4.542  -3.974   2.209  0.00  0.00     0.190 HD
BRANCH   8  10
ATOM     10  N4  <0> d           2.769  -4.418   3.169  0.00  0.00    -0.262 N 
ATOM     11  C17 <0> d           3.245  -5.471   3.863  0.00  0.00     0.286 C 
ATOM     12  O2  <0> d           4.409  -5.805   3.740  0.00  0.00    -0.264 OA
ATOM     13  H14 <0> d           1.841  -4.152   3.267  0.00  0.00     0.190 HD
BRANCH  11  14
ATOM     14  C18 <0> d           2.360  -6.215   4.766  0.00  0.00     0.103 A 
ATOM     15  N5  <0> d           1.030  -5.951   5.001  0.00  0.00    -0.360 N 
ATOM     16  C21 <0> d           0.559  -6.858   5.892  0.00  0.00     0.107 A 
ATOM     17  H1  <0> d           0.515  -5.236   4.596  0.00  0.00     0.165 HD
ATOM     18  C20 <0> d           1.567  -7.694   6.240  0.00  0.00     0.028 A 
ATOM     19  C19 <0> d           2.711  -7.302   5.538  0.00  0.00     0.055 A 
ATOM     20 Br1  <0> d           1.447  -9.136   7.458  0.00  0.00    -0.050 Br
ENDBRANCH  11  14
ENDBRANCH   8  10
ENDBRANCH   2   6
BRANCH   1  21
ATOM     21  C4  <0> d           2.414   0.052   0.006  0.00  0.00    -0.005 A 
ATOM     22  C3  <0> d           1.758   0.263   1.218  0.00  0.00     0.014 A 
ATOM     23  C2  <0> d           0.559   0.945   1.242  0.00  0.00     0.001 A 
ATOM     24  C1  <0> d           0.007   1.419   0.066  0.00  0.00     0.000 A 
ATOM     25  C6  <0> d           0.653   1.213  -1.140  0.00  0.00     0.001 A 
ATOM     26  C5  <0> d           1.853   0.533  -1.176  0.00  0.00     0.014 A 
ENDBRANCH   1  21
BRANCH   4  27
ATOM     27  C10 <0> d           7.059  -1.263  -1.043  0.00  0.00     0.058 A 
ATOM     28  C15 <0> d           7.412  -0.242  -1.916  0.00  0.00     0.031 A 
ATOM     29  C14 <0> d           8.678  -0.215  -2.467  0.00  0.00     0.002 A 
ATOM     30  C13 <0> d           9.589  -1.209  -2.161  0.00  0.00     0.000 A 
ATOM     31  C12 <0> d           9.238  -2.230  -1.297  0.00  0.00     0.002 A 
ATOM     32  C11 <0> d           7.976  -2.260  -0.737  0.00  0.00     0.031 A 
ENDBRANCH   4  27
TORSDOF 5
