REMARK  7 active torsions:
REMARK  status: ('A' for Active; 'I' for Inactive)
REMARK    1  A    between atoms: C2_2  and  C4_4 
REMARK    2  A    between atoms: C4_4  and  C5_5 
REMARK    3  A    between atoms: C4_4  and  N2_9 
REMARK    4  A    between atoms: C5_5  and  N1_6 
REMARK    5  A    between atoms: N2_9  and  S1_10 
REMARK    6  A    between atoms: S1_10  and  C8_13 
REMARK    7  A    between atoms: C11_16  and  N3_20 
ROOT
ATOM      1  S1  <0> d          -2.211  -2.594   1.702  0.00  0.00     0.262 S 
ATOM      2  O1  <0> d          -2.432  -3.991   1.574  0.00  0.00    -0.200 OA
ATOM      3  O2  <0> d          -1.251  -2.053   2.599  0.00  0.00    -0.200 OA
ENDROOT
BRANCH   1   4
ATOM      4  N2  <0> d          -1.815  -2.038   0.193  0.00  0.00    -0.309 N 
ATOM      5  H17 <0> d          -1.768  -2.654  -0.554  0.00  0.00     0.172 HD
BRANCH   4   6
ATOM      6  C4  <0> d          -1.534  -0.615  -0.013  0.00  0.00     0.122 C 
BRANCH   6   7
ATOM      7  C2  <0> d          -0.020  -0.392  -0.039  0.00  0.00     0.002 C 
ATOM      8  C1  <0> d           0.273   1.105  -0.159  0.00  0.00     0.011 C 
ATOM      9  C3  <0> d           0.597  -0.931   1.252  0.00  0.00     0.011 C 
ENDBRANCH   6   7
BRANCH   6  10
ATOM     10  C5  <0> d          -2.139  -0.162  -1.343  0.00  0.00     0.260 C 
BRANCH  10  11
ATOM     11  N1  <0> d          -3.572  -0.485  -1.364  0.00  0.00    -0.077 N 
ATOM     12  C6  <0> d          -4.266   0.299  -0.334  0.00  0.00     0.269 C 
ATOM     13  C7  <0> d          -4.128  -0.161  -2.684  0.00  0.00     0.269 C 
ATOM     14  H22 <0> d          -3.698  -1.469  -1.179  0.00  0.00     0.279 HD
ENDBRANCH  10  11
ENDBRANCH   6  10
ENDBRANCH   4   6
ENDBRANCH   1   4
BRANCH   1  15
ATOM     15  C8  <0> d          -3.762  -1.876   2.131  0.00  0.00     0.122 A 
ATOM     16  C13 <0> d          -4.939  -2.528   1.805  0.00  0.00     0.061 A 
ATOM     17  C12 <0> d          -6.157  -1.969   2.145  0.00  0.00     0.054 A 
ATOM     18 Cl1  <0> d          -4.885  -4.051   0.975  0.00  0.00    -0.083 Cl
ATOM     19  C11 <0> d          -6.199  -0.747   2.804  0.00  0.00     0.029 A 
ATOM     20  C10 <0> d          -5.017  -0.092   3.125  0.00  0.00     0.054 A 
ATOM     21  C9  <0> d          -3.801  -0.658   2.787  0.00  0.00     0.061 A 
ATOM     22 Cl2  <0> d          -2.323   0.160   3.187  0.00  0.00    -0.083 Cl
BRANCH  19  23
ATOM     23  N3  <0> d          -7.428  -0.178   3.144  0.00  0.00    -0.399 N 
ATOM     24  H20 <0> d          -7.457   0.675   3.605  0.00  0.00     0.156 HD
ATOM     25  H21 <0> d          -8.254  -0.636   2.920  0.00  0.00     0.156 HD
ENDBRANCH  19  23
ENDBRANCH   1  15
TORSDOF 7
