REMARK  7 active torsions:
REMARK  status: ('A' for Active; 'I' for Inactive)
REMARK    1  A    between atoms: C5_5  and  C13_17 
REMARK    2  A    between atoms: C7_7  and  N1_8 
REMARK       I    between atoms: N1_8  and  C8_9 
REMARK    3  A    between atoms: C8_9  and  C9_11 
REMARK       I    between atoms: C13_17  and  N2_19 
REMARK    4  A    between atoms: N2_19  and  C14_20 
REMARK    5  A    between atoms: C14_20  and  C15_21 
REMARK    6  A    between atoms: C15_21  and  C16_22 
REMARK    7  A    between atoms: C16_22  and  N3_23 
ROOT
ATOM      1  C1  <0> d          -5.021   4.031   0.097  0.00  0.00     0.050 C 
ATOM      2  C2  <0> d          -3.711   3.285   0.075  0.00  0.00    -0.035 A 
ATOM      3  C3  <0> d          -2.519   3.986   0.082  0.00  0.00     0.010 A 
ATOM      4  C4  <0> d          -1.316   3.310   0.068  0.00  0.00     0.017 A 
ATOM      5  C5  <0> d          -1.300   1.914   0.036  0.00  0.00     0.034 A 
ATOM      6  C6  <0> d          -2.502   1.207   0.029  0.00  0.00     0.047 A 
ATOM      7  C7  <0> d          -3.705   1.896   0.048  0.00  0.00     0.042 A 
ENDROOT
BRANCH   5   8
ATOM      8  C13 <0> d          -0.012   1.188   0.015  0.00  0.00     0.251 C 
ATOM      9  O3  <0> d          -0.000  -0.027  -0.008  0.00  0.00    -0.268 OA
ATOM     10  N2  <0> d           1.148   1.873   0.016  0.00  0.00    -0.357 N 
ATOM     11  H13 <0> d           1.138   2.973   0.038  0.00  0.00     0.162 HD
BRANCH  10  12
ATOM     12  C14 <0> d           2.424   1.154  -0.010  0.00  0.00     0.124 C 
BRANCH  12  13
ATOM     13  C15 <0> d           3.577   2.159  -0.003  0.00  0.00     0.050 C 
BRANCH  13  14
ATOM     14  C16 <0> d           4.910   1.408  -0.031  0.00  0.00     0.274 C 
BRANCH  14  15
ATOM     15  N3  <0> d           6.017   2.373  -0.023  0.00  0.00     0.091 N 
ATOM     16  C20 <0> d           7.304   1.697   0.189  0.00  0.00     0.300 C 
ATOM     17  C19 <0> d           8.419   2.743   0.269  0.00  0.00     0.264 C 
ATOM     18  N4  <0> d           8.439   3.530  -0.971  0.00  0.00    -0.072 N 
ATOM     19  C18 <0> d           7.152   4.206  -1.184  0.00  0.00     0.264 C 
ATOM     20  C21 <0> d           9.546   4.495  -0.964  0.00  0.00     0.269 C 
ATOM     21  H31 <0> d           8.602   2.837  -1.810  0.00  0.00     0.279 HD
ATOM     22  C17 <0> d           6.037   3.161  -1.264  0.00  0.00     0.300 C 
ENDBRANCH  14  15
ENDBRANCH  13  14
ENDBRANCH  12  13
ENDBRANCH  10  12
ENDBRANCH   5   8
BRANCH   7  23
ATOM     23  N1  <0> d          -4.914   1.192   0.041  0.00  0.00    -0.321 N 
ATOM     24  C8  <0> d          -5.016   0.035  -0.644  0.00  0.00     0.279 C 
ATOM     25  O1  <0> d          -4.035  -0.439  -1.189  0.00  0.00    -0.265 OA
ATOM     26  H7  <0> d          -5.781   1.581   0.594  0.00  0.00     0.169 HD
BRANCH  24  27
ATOM     27  C9  <0> d          -6.263  -0.628  -0.731  0.00  0.00     0.143 C 
ATOM     28  O2  <0> d          -6.275  -1.833  -1.337  0.00  0.00    -0.345 OA
ATOM     29  C12 <0> d          -7.360  -2.734  -1.121  0.00  0.00     0.186 C 
ATOM     30  C11 <0> d          -8.673  -2.014  -1.461  0.00  0.00     0.105 C 
ATOM     31  S1  <0> d          -8.933  -0.715  -0.223  0.00  0.00    -0.136 SA
ATOM     32  C10 <0> d          -7.323  -0.000  -0.211  0.00  0.00     0.087 C 
ENDBRANCH  24  27
ENDBRANCH   7  23
TORSDOF 7
