REMARK  4 active torsions:
REMARK  status: ('A' for Active; 'I' for Inactive)
REMARK    1  A    between atoms: C2_2  and  O1_3 
REMARK    2  A    between atoms: O1_3  and  P1_4 
REMARK    3  A    between atoms: C7_12  and  S1_19 
REMARK    4  A    between atoms: S1_19  and  C13_22 
ROOT
ATOM      1  P1  <0> d           0.877  -2.026  -1.510  0.00  0.00     0.444 P 
ATOM      2  O2  <0> d          -0.397  -2.760  -1.339  0.00  0.00    -0.233 OA
ATOM      3  N1  <0> d           2.048  -2.670  -0.541  0.00  0.00    -0.255 N 
ATOM      4  N2  <0> d           3.364  -2.422  -0.874  0.00  0.00    -0.219 NA
ATOM      5  C3  <0> d           4.203  -3.158   0.087  0.00  0.00     0.123 C 
ATOM      6  C4  <0> d           5.682  -2.912  -0.175  0.00  0.00     0.034 C 
ATOM      7  C5  <0> d           6.016  -1.454  -0.011  0.00  0.00     0.024 C 
ATOM      8  C6  <0> d           7.106  -0.962  -0.602  0.00  0.00     0.134 C 
ATOM      9  C7  <0> d           7.968  -1.858  -1.394  0.00  0.00     0.094 C 
ATOM     10  C8  <0> d           7.474  -2.995  -1.875  0.00  0.00     0.005 C 
ATOM     11  C9  <0> d           6.030  -3.340  -1.603  0.00  0.00     0.020 C 
ATOM     12  C10 <0> d           5.135  -2.569  -2.575  0.00  0.00     0.033 C 
ATOM     13  C11 <0> d           3.656  -2.815  -2.256  0.00  0.00     0.104 C 
ATOM     14  C12 <0> d           2.836  -1.992  -3.259  0.00  0.00     0.201 C 
ATOM     15  O3  <0> d           1.433  -2.207  -3.029  0.00  0.00    -0.296 OA
ATOM     16  F1  <0> d           7.417   0.347  -0.476  0.00  0.00    -0.205 F 
ATOM     17  H9  <0> d           1.818  -3.204   0.235  0.00  0.00     0.186 HD
ENDROOT
BRANCH   9  18
ATOM     18  S1  <0> d           9.647  -1.425  -1.702  0.00  0.00     0.181 S 
ATOM     19  O4  <0> d          10.181  -1.110  -0.422  0.00  0.00    -0.222 OA
ATOM     20  O5  <0> d          10.169  -2.509  -2.458  0.00  0.00    -0.222 OA
BRANCH  18  21
ATOM     21  C13 <0> d           9.562   0.069  -2.727  0.00  0.00     0.105 C 
ATOM     22  C14 <0> d          10.973   0.470  -3.163  0.00  0.00     0.026 C 
ATOM     23  C15 <0> d           8.707  -0.210  -3.964  0.00  0.00     0.026 C 
ENDBRANCH  18  21
ENDBRANCH   9  18
BRANCH   1  24
ATOM     24  O1  <0> d           0.671  -0.465  -1.174  0.00  0.00    -0.298 OA
BRANCH  24  25
ATOM     25  C2  <0> d           0.002  -0.004   0.002  0.00  0.00     0.175 C 
ATOM     26  C1  <0> d          -0.019   1.526   0.010  0.00  0.00     0.034 C 
ENDBRANCH  24  25
ENDBRANCH   1  24
TORSDOF 4
