REMARK  5 active torsions:
REMARK  status: ('A' for Active; 'I' for Inactive)
REMARK    1  A    between atoms: C4_4  and  N4_22 
REMARK    2  A    between atoms: C5_6  and  C6_7 
REMARK       I    between atoms: C6_7  and  N1_9 
REMARK    3  A    between atoms: N1_9  and  C7_10 
REMARK    4  A    between atoms: C7_10  and  C9_12 
REMARK       I    between atoms: N4_22  and  C16_23 
REMARK    5  A    between atoms: C16_23  and  C17_25 
ROOT
ATOM      1  C6  <0> d           0.933   5.385   0.021  0.00  0.00     0.259 C 
ATOM      2  O1  <0> d           0.160   6.325   0.032  0.00  0.00    -0.267 OA
ATOM      3  N1  <0> d           2.263   5.607   0.010  0.00  0.00    -0.345 N 
ATOM      4  H7  <0> d           2.879   4.858   0.001  0.00  0.00     0.163 HD
ENDROOT
BRANCH   1   5
ATOM      5  C5  <0> d           0.420   4.017   0.018  0.00  0.00     0.080 A 
ATOM      6  C2  <0> d          -0.896   3.579   0.028  0.00  0.00    -0.037 A 
ATOM      7  C1  <0> d          -2.046   4.553   0.043  0.00  0.00     0.050 C 
ATOM      8  C3  <0> d          -1.108   2.226   0.018  0.00  0.00     0.045 A 
ATOM      9  C4  <0> d          -0.017   1.384   0.010  0.00  0.00     0.078 A 
ATOM     10  S1  <0> d           1.326   2.480   0.003  0.00  0.00    -0.066 SA
BRANCH   9  11
ATOM     11  N4  <0> d           0.002  -0.004   0.002  0.00  0.00    -0.315 N 
ATOM     12  C16 <0> d           1.178  -0.662  -0.012  0.00  0.00     0.280 C 
ATOM     13  O2  <0> d           2.224  -0.039  -0.018  0.00  0.00    -0.265 OA
ATOM     14  H15 <0> d          -0.831  -0.500   0.007  0.00  0.00     0.170 HD
BRANCH  12  15
ATOM     15  C17 <0> d           1.198  -2.128  -0.020  0.00  0.00     0.142 A 
ATOM     16  O3  <0> d           0.117  -2.935  -0.009  0.00  0.00    -0.317 OA
ATOM     17  C20 <0> d           0.518  -4.214  -0.025  0.00  0.00     0.143 A 
ATOM     18  C19 <0> d           1.869  -4.246  -0.038  0.00  0.00     0.027 A 
ATOM     19  C18 <0> d           2.314  -2.915  -0.035  0.00  0.00     0.045 A 
ENDBRANCH  12  15
ENDBRANCH   9  11
ENDBRANCH   1   5
BRANCH   3  20
ATOM     20  C7  <0> d           2.777   6.978   0.012  0.00  0.00     0.150 C 
ATOM     21  C8  <0> d           2.851   7.493   1.451  0.00  0.00     0.040 C 
BRANCH  20  22
ATOM     22  C9  <0> d           4.154   7.000  -0.601  0.00  0.00     0.127 A 
ATOM     23  N3  <0> d           4.969   5.986  -0.637  0.00  0.00    -0.231 NA
ATOM     24  C15 <0> d           6.120   6.349  -1.260  0.00  0.00     0.085 A 
ATOM     25  C10 <0> d           5.979   7.698  -1.627  0.00  0.00     0.062 A 
ATOM     26  C14 <0> d           7.304   5.673  -1.567  0.00  0.00     0.034 A 
ATOM     27  N2  <0> d           4.723   8.080  -1.200  0.00  0.00    -0.341 N 
ATOM     28  C11 <0> d           7.014   8.345  -2.288  0.00  0.00     0.032 A 
ATOM     29  H2  <0> d           4.308   8.983  -1.312  0.00  0.00     0.167 HD
ATOM     30  C12 <0> d           8.173   7.659  -2.580  0.00  0.00     0.002 A 
ATOM     31  C13 <0> d           8.311   6.326  -2.218  0.00  0.00     0.002 A 
ENDBRANCH  20  22
ENDBRANCH   3  20
TORSDOF 5
