REMARK  5 active torsions:
REMARK  status: ('A' for Active; 'I' for Inactive)
REMARK    1  A    between atoms: C9_11  and  C10_13 
REMARK       I    between atoms: C10_13  and  N3_15 
REMARK    2  A    between atoms: N3_15  and  C11_16 
REMARK    3  A    between atoms: C11_16  and  C12_17 
REMARK    4  A    between atoms: C12_17  and  C13_18 
REMARK    5  A    between atoms: C12_17  and  N4_28 
ROOT
ATOM      1  C10 <0> d          -1.101  -0.720   0.118  0.00  0.00     0.272 C 
ATOM      2  O2  <0> d          -2.147  -0.147   0.358  0.00  0.00    -0.266 OA
ATOM      3  N3  <0> d           0.035  -0.012  -0.034  0.00  0.00    -0.353 N 
ATOM      4  H9  <0> d           0.869  -0.469  -0.225  0.00  0.00     0.162 HD
ENDROOT
BRANCH   3   5
ATOM      5  C11 <0> d           0.012   1.447   0.089  0.00  0.00     0.161 C 
BRANCH   5   6
ATOM      6  C12 <0> d           1.439   1.990  -0.007  0.00  0.00     0.245 C 
BRANCH   6   7
ATOM      7  C13 <0> d           1.986   1.722  -1.386  0.00  0.00     0.015 A 
ATOM      8  S1  <0> d           1.693   2.614  -2.905  0.00  0.00    -0.104 SA
ATOM      9  C16 <0> d           2.714   1.620  -3.981  0.00  0.00     0.050 A 
ATOM     10  C15 <0> d           3.196   0.685  -3.125  0.00  0.00     0.008 A 
ATOM     11  C14 <0> d           2.823   0.738  -1.795  0.00  0.00     0.017 A 
ENDBRANCH   6   7
BRANCH   6  12
ATOM     12  N4  <0> d           1.437   3.461   0.256  0.00  0.00    -0.061 N 
ATOM     13  C17 <0> d           0.881   3.742   1.589  0.00  0.00     0.236 C 
ATOM     14  C18 <0> d           1.422   5.165   1.879  0.00  0.00     0.029 C 
ATOM     15  C19 <0> d           2.841   5.126   1.268  0.00  0.00     0.029 C 
ATOM     16  C20 <0> d           2.803   3.986   0.234  0.00  0.00     0.236 C 
ATOM     17  H23 <0> d           0.873   3.931  -0.462  0.00  0.00     0.280 HD
ENDBRANCH   6  12
ENDBRANCH   5   6
ENDBRANCH   3   5
BRANCH   1  18
ATOM     18  C9  <0> d          -1.077  -2.191  -0.007  0.00  0.00     0.155 A 
ATOM     19  C8  <0> d          -2.313  -2.973   0.164  0.00  0.00     0.016 A 
ATOM     20  C3  <0> d          -2.218  -4.377   0.026  0.00  0.00     0.046 A 
ATOM     21  C7  <0> d          -3.544  -2.386   0.435  0.00  0.00     0.015 A 
ATOM     22  C2  <0> d          -0.890  -4.935  -0.264  0.00  0.00     0.274 A 
ATOM     23  C4  <0> d          -3.354  -5.167   0.173  0.00  0.00     0.018 A 
ATOM     24  N1  <0> d           0.151  -4.086  -0.388  0.00  0.00    -0.238 N 
ATOM     25  O1  <0> d          -0.733  -6.135  -0.392  0.00  0.00    -0.266 OA
ATOM     26  C1  <0> d           1.473  -4.647  -0.677  0.00  0.00     0.183 C 
ATOM     27  N2  <0> d           0.045  -2.817  -0.265  0.00  0.00    -0.164 NA
ATOM     28  C5  <0> d          -4.564  -4.566   0.446  0.00  0.00     0.001 A 
ATOM     29  C6  <0> d          -4.658  -3.187   0.576  0.00  0.00     0.001 A 
ENDBRANCH   1  18
TORSDOF 5
