REMARK  2 active torsions:
REMARK  status: ('A' for Active; 'I' for Inactive)
REMARK    1  A    between atoms: C2_2  and  C10_14 
REMARK       I    between atoms: C10_14  and  N2_16 
REMARK    2  A    between atoms: N2_16  and  C11_17 
ROOT
ATOM      1  C1  <0> d          -0.022   1.512   0.028  0.00  0.00     0.068 C 
ATOM      2  C2  <0> d           0.001  -0.018   0.007  0.00  0.00     0.225 C 
ATOM      3  C3  <0> d          -1.413  -0.541   0.009  0.00  0.00     0.267 C 
ATOM      4  O1  <0> d          -2.311   0.130  -0.453  0.00  0.00    -0.269 OA
ATOM      5  N1  <0> d          -1.675  -1.760   0.526  0.00  0.00    -0.322 N 
ATOM      6  C4  <0> d          -0.647  -2.466   1.168  0.00  0.00     0.070 A 
ATOM      7  C5  <0> d          -0.814  -3.799   1.506  0.00  0.00     0.056 A 
ATOM      8  C6  <0> d           0.215  -4.485   2.127  0.00  0.00     0.036 A 
ATOM      9  C7  <0> d           1.408  -3.844   2.410  0.00  0.00     0.026 A 
ATOM     10  C8  <0> d           1.577  -2.512   2.079  0.00  0.00     0.041 A 
ATOM     11  C9  <0> d           0.550  -1.817   1.463  0.00  0.00     0.098 A 
ATOM     12  O2  <0> d           0.694  -0.498   1.161  0.00  0.00    -0.319 OA
ATOM     13 Cl1  <0> d           0.008  -6.155   2.553  0.00  0.00    -0.084 Cl
ATOM     14  H4  <0> d          -2.563  -2.143   0.455  0.00  0.00     0.169 HD
ENDROOT
BRANCH   2  15
ATOM     15  C10 <0> d           0.709  -0.492  -1.236  0.00  0.00     0.267 C 
ATOM     16  O3  <0> d           0.070  -0.776  -2.227  0.00  0.00    -0.269 OA
ATOM     17  N2  <0> d           2.053  -0.599  -1.247  0.00  0.00    -0.323 N 
ATOM     18  H8  <0> d           2.570  -0.296  -0.484  0.00  0.00     0.169 HD
BRANCH  17  19
ATOM     19  C11 <0> d           2.700  -1.146  -2.356  0.00  0.00     0.047 A 
ATOM     20  C16 <0> d           4.039  -0.807  -2.637  0.00  0.00     0.019 A 
ATOM     21  C15 <0> d           4.683  -1.377  -3.763  0.00  0.00     0.069 A 
ATOM     22  C17 <0> d           4.756   0.083  -1.819  0.00  0.00     0.017 A 
ATOM     23  C14 <0> d           3.967  -2.262  -4.587  0.00  0.00     0.032 A 
ATOM     24  N3  <0> d           5.955  -1.063  -4.031  0.00  0.00    -0.260 NA
ATOM     25  C13 <0> d           2.672  -2.569  -4.296  0.00  0.00     0.005 A 
ATOM     26  C12 <0> d           2.034  -2.020  -3.189  0.00  0.00     0.030 A 
ATOM     27  C19 <0> d           6.623  -0.224  -3.277  0.00  0.00     0.117 A 
ATOM     28  C18 <0> d           6.051   0.366  -2.152  0.00  0.00     0.020 A 
ENDBRANCH  17  19
ENDBRANCH   2  15
TORSDOF 2
