REMARK  5 active torsions:
REMARK  status: ('A' for Active; 'I' for Inactive)
REMARK    1  A    between atoms: C3_4  and  C5_7 
REMARK    2  A    between atoms: C8_10  and  C9_12 
REMARK    3  A    between atoms: C9_12  and  C10_13 
REMARK    4  A    between atoms: C10_13  and  N2_14 
REMARK       I    between atoms: N2_14  and  C11_15 
REMARK    5  A    between atoms: C11_15  and  C12_17 
ROOT
ATOM      1  C10 <0> d           2.736   3.812  -1.447  0.00  0.00     0.128 C 
ENDROOT
BRANCH   1   2
ATOM      2  C9  <0> d           2.495   3.363  -0.004  0.00  0.00     0.066 C 
BRANCH   2   3
ATOM      3  C8  <0> d           1.741   2.058  -0.004  0.00  0.00    -0.015 A 
ATOM      4  C7  <0> d           2.228   0.792  -0.015  0.00  0.00     0.016 A 
ATOM      5  C6  <0> d           1.345  -0.268  -0.012  0.00  0.00     0.022 A 
ATOM      6  C5  <0> d           0.002  -0.004   0.002  0.00  0.00     0.034 A 
ATOM      7  S2  <0> d          -0.022   1.781   0.012  0.00  0.00    -0.092 SA
BRANCH   6   8
ATOM      8  C3  <0> d          -1.134  -0.952   0.008  0.00  0.00     0.081 A 
ATOM      9  N1  <0> d          -0.932  -2.261   0.000  0.00  0.00    -0.245 NA
ATOM     10  C2  <0> d          -1.933  -3.107   0.005  0.00  0.00     0.071 A 
ATOM     11  C1  <0> d          -1.894  -4.614  -0.002  0.00  0.00     0.078 C 
ATOM     12  S1  <0> d          -3.314  -2.056   0.023  0.00  0.00    -0.085 SA
ATOM     13  C4  <0> d          -2.429  -0.504   0.028  0.00  0.00     0.084 A 
ENDBRANCH   6   8
ENDBRANCH   2   3
ENDBRANCH   1   2
BRANCH   1  14
ATOM     14  N2  <0> d           3.469   5.080  -1.447  0.00  0.00    -0.355 N 
ATOM     15  C11 <0> d           3.795   5.670  -2.615  0.00  0.00     0.272 C 
ATOM     16  O1  <0> d           3.481   5.149  -3.667  0.00  0.00    -0.266 OA
ATOM     17  H11 <0> d           3.754   5.551  -0.495  0.00  0.00     0.162 HD
BRANCH  15  18
ATOM     18  C12 <0> d           4.535   6.950  -2.615  0.00  0.00     0.144 A 
ATOM     19  N4  <0> d           4.869   7.514  -1.476  0.00  0.00    -0.165 NA
ATOM     20  N3  <0> d           5.516   8.622  -1.424  0.00  0.00    -0.239 N 
ATOM     21  C15 <0> d           5.883   9.283  -2.538  0.00  0.00     0.263 A 
ATOM     22  C16 <0> d           5.857   9.186  -0.116  0.00  0.00     0.183 C 
ATOM     23  C14 <0> d           5.558   8.747  -3.804  0.00  0.00     0.078 A 
ATOM     24  O2  <0> d           6.492  10.336  -2.454  0.00  0.00    -0.267 OA
ATOM     25  C13 <0> d           4.876   7.567  -3.843  0.00  0.00     0.044 A 
ENDBRANCH  15  18
ENDBRANCH   1  14
TORSDOF 5
