REMARK  6 active torsions:
REMARK  status: ('A' for Active; 'I' for Inactive)
REMARK    1  A    between atoms: C7_8  and  C10_11 
REMARK    2  A    between atoms: C10_11  and  C11_12 
REMARK       I    between atoms: C11_12  and  N2_14 
REMARK    3  A    between atoms: N2_14  and  C12_15 
REMARK    4  A    between atoms: C15_18  and  N3_21 
REMARK       I    between atoms: N3_21  and  C18_22 
REMARK    5  A    between atoms: C18_22  and  C19_24 
REMARK    6  A    between atoms: C19_24  and  O3_25 
ROOT
ATOM      1  C11 <0> d          -0.295  -1.348   4.046  0.00  0.00     0.226 C 
ATOM      2  O1  <0> d          -0.677  -0.590   3.180  0.00  0.00    -0.273 OA
ATOM      3  N2  <0> d           0.234  -0.859   5.185  0.00  0.00    -0.327 N 
ATOM      4  H10 <0> d           0.611  -1.463   5.844  0.00  0.00     0.169 HD
ENDROOT
BRANCH   1   5
ATOM      5  C10 <0> d          -0.411  -2.838   3.849  0.00  0.00     0.140 C 
BRANCH   5   6
ATOM      6  C7  <0> d          -1.068  -3.119   2.522  0.00  0.00    -0.037 A 
ATOM      7  C6  <0> d          -2.551  -3.135   2.226  0.00  0.00     0.108 A 
ATOM      8  N1  <0> d          -2.673  -3.457   0.800  0.00  0.00    -0.381 N 
ATOM      9  C21 <0> d          -3.247  -4.204   3.070  0.00  0.00     0.037 C 
ATOM     10  C5  <0> d          -1.471  -3.613   0.302  0.00  0.00     0.039 A 
ATOM     11  H24 <0> d          -3.505  -3.540   0.308  0.00  0.00     0.160 HD
ATOM     12  C4  <0> d          -1.023  -3.928  -1.011  0.00  0.00     0.030 A 
ATOM     13  C8  <0> d          -0.450  -3.408   1.354  0.00  0.00    -0.004 A 
ATOM     14  C3  <0> d           0.296  -4.034  -1.274  0.00  0.00     0.009 A 
ATOM     15  C2  <0> d           1.282  -3.845  -0.295  0.00  0.00    -0.061 A 
ATOM     16  C1  <0> d           2.733  -3.982  -0.679  0.00  0.00     0.048 C 
ATOM     17  C9  <0> d           0.964  -3.547   0.985  0.00  0.00     0.020 A 
ENDBRANCH   5   6
ENDBRANCH   1   5
BRANCH   3  18
ATOM     18  C12 <0> d           0.239   0.523   5.417  0.00  0.00     0.034 A 
ATOM     19  C17 <0> d           0.099   1.010   6.710  0.00  0.00     0.032 A 
ATOM     20  C16 <0> d           0.110   2.371   6.940  0.00  0.00     0.032 A 
ATOM     21  C15 <0> d           0.250   3.253   5.876  0.00  0.00     0.034 A 
ATOM     22  C14 <0> d           0.385   2.766   4.583  0.00  0.00     0.032 A 
ATOM     23  C13 <0> d           0.380   1.405   4.354  0.00  0.00     0.032 A 
BRANCH  21  24
ATOM     24  N3  <0> d           0.256   4.635   6.109  0.00  0.00    -0.325 N 
ATOM     25  C18 <0> d           0.946   5.140   7.151  0.00  0.00     0.245 C 
ATOM     26  O2  <0> d           1.645   4.413   7.825  0.00  0.00    -0.271 OA
ATOM     27  H15 <0> d          -0.236   5.228   5.520  0.00  0.00     0.169 HD
BRANCH  25  28
ATOM     28  C19 <0> d           0.850   6.608   7.478  0.00  0.00     0.270 C 
BRANCH  28  29
ATOM     29  O3  <0> d           1.665   6.897   8.615  0.00  0.00    -0.387 OA
ATOM     30  C20 <0> d           1.645   8.270   9.011  0.00  0.00     0.202 C 
ENDBRANCH  28  29
ENDBRANCH  25  28
ENDBRANCH  21  24
ENDBRANCH   3  18
TORSDOF 6
