REMARK  7 active torsions:
REMARK  status: ('A' for Active; 'I' for Inactive)
REMARK    1  A    between atoms: C2_2  and  N4_36 
REMARK    2  A    between atoms: C13_15  and  C14_16 
REMARK    3  A    between atoms: C15_17  and  O4_33 
REMARK    4  A    between atoms: C16_19  and  O3_32 
REMARK    5  A    between atoms: N3_20  and  C18_23 
REMARK    6  A    between atoms: C21_26  and  O2_29 
REMARK    7  A    between atoms: O2_29  and  C24_30 
ROOT
ATOM      1  C14 <0> d           4.894   4.354   0.926  0.00  0.00     0.100 A 
ATOM      2  C15 <0> d           6.069   4.963   0.521  0.00  0.00     0.180 A 
ATOM      3  N2  <0> d           6.953   5.376   1.436  0.00  0.00    -0.183 NA
ATOM      4  C16 <0> d           6.734   5.205   2.720  0.00  0.00     0.256 A 
ATOM      5  N3  <0> d           5.598   4.607   3.172  0.00  0.00    -0.242 N 
ATOM      6  C17 <0> d           4.667   4.175   2.296  0.00  0.00     0.268 A 
ATOM      7  O1  <0> d           3.644   3.637   2.691  0.00  0.00    -0.267 OA
ENDROOT
BRANCH   1   8
ATOM      8  C13 <0> d           3.882   3.886  -0.088  0.00  0.00     0.281 C 
ATOM      9  C12 <0> d           3.753   2.382  -0.022  0.00  0.00     0.053 A 
ATOM     10  C5  <0> d           2.564   1.746  -0.057  0.00  0.00    -0.019 A 
ATOM     11  N1  <0> d           4.758   1.466   0.077  0.00  0.00    -0.356 N 
ATOM     12  C4  <0> d           1.238   2.454  -0.169  0.00  0.00     0.069 C 
ATOM     13  C6  <0> d           2.830   0.317   0.030  0.00  0.00    -0.001 A 
ATOM     14  C3  <0> d           1.510   3.896  -0.623  0.00  0.00     0.241 C 
ATOM     15  N4  <0> d           2.562   4.475   0.243  0.00  0.00    -0.057 N 
ATOM     16  H27 <0> d           2.340   4.262   1.223  0.00  0.00     0.281 HD
ATOM     17  C11 <0> d           4.231   0.192   0.111  0.00  0.00     0.043 A 
ATOM     18  C7  <0> d           2.030  -0.829   0.044  0.00  0.00     0.014 A 
ATOM     19  C10 <0> d           4.799  -1.074   0.203  0.00  0.00     0.030 A 
ATOM     20  C9  <0> d           3.990  -2.189   0.214  0.00  0.00     0.002 A 
ATOM     21  C8  <0> d           2.610  -2.062   0.135  0.00  0.00     0.001 A 
ATOM     22  H1  <0> d           5.704   1.678   0.117  0.00  0.00     0.166 HD
BRANCH  15  23
ATOM     23  C2  <0> d           2.607   5.941   0.069  0.00  0.00     0.231 C 
ATOM     24  C1  <0> d           3.026   6.304  -1.357  0.00  0.00     0.034 C 
ENDBRANCH  15  23
ENDBRANCH   1   8
BRANCH   2  25
ATOM     25  O4  <0> d           6.320   5.146  -0.796  0.00  0.00    -0.344 OA
ATOM     26  H26 <0> d           7.165   5.580  -0.979  0.00  0.00     0.219 HD
ENDBRANCH   2  25
BRANCH   5  27
ATOM     27  C18 <0> d           5.396   4.439   4.549  0.00  0.00     0.046 A 
ATOM     28  C23 <0> d           5.842   3.287   5.182  0.00  0.00     0.033 A 
ATOM     29  C22 <0> d           5.642   3.122   6.538  0.00  0.00     0.039 A 
ATOM     30  C21 <0> d           4.995   4.108   7.269  0.00  0.00     0.068 A 
ATOM     31  C20 <0> d           4.550   5.261   6.637  0.00  0.00     0.039 A 
ATOM     32  C19 <0> d           4.754   5.428   5.282  0.00  0.00     0.033 A 
BRANCH  30  33
ATOM     33  O2  <0> d           4.799   3.946   8.604  0.00  0.00    -0.352 OA
BRANCH  33  34
ATOM     34  C24 <0> d           4.126   5.001   9.294  0.00  0.00     0.171 C 
ATOM     35  C25 <0> d           3.998   4.641  10.775  0.00  0.00     0.034 C 
ENDBRANCH  33  34
ENDBRANCH  30  33
ENDBRANCH   5  27
BRANCH   4  36
ATOM     36  O3  <0> d           7.654   5.631   3.609  0.00  0.00    -0.330 OA
ATOM     37  H25 <0> d           8.449   6.051   3.252  0.00  0.00     0.221 HD
ENDBRANCH   4  36
TORSDOF 7
