REMARK  9 active torsions:
REMARK  status: ('A' for Active; 'I' for Inactive)
REMARK       I    between atoms: N1_2  and  C3_4 
REMARK    1  A    between atoms: C3_4  and  C4_6 
REMARK    2  A    between atoms: C4_6  and  C5_7 
REMARK    3  A    between atoms: C4_6  and  O2_13 
REMARK    4  A    between atoms: O2_13  and  C11_14 
REMARK    5  A    between atoms: C11_14  and  C12_16 
REMARK    6  A    between atoms: C12_16  and  C13_17 
REMARK    7  A    between atoms: C13_17  and  N2_18 
REMARK    8  A    between atoms: N2_18  and  S1_19 
REMARK    9  A    between atoms: S1_19  and  C14_22 
ROOT
ATOM      1  C11 <0> d          -2.501   1.381   2.197  0.00  0.00     0.261 C 
ATOM      2  O3  <0> d          -1.688   2.000   2.841  0.00  0.00    -0.265 OA
ENDROOT
BRANCH   1   3
ATOM      3  O2  <0> d          -2.417   1.353   0.858  0.00  0.00    -0.301 OA
BRANCH   3   4
ATOM      4  C4  <0> d          -1.322   2.089   0.251  0.00  0.00     0.257 C 
BRANCH   4   5
ATOM      5  C3  <0> d          -0.123   1.186   0.117  0.00  0.00     0.253 C 
ATOM      6  N1  <0> d           1.098   1.715  -0.100  0.00  0.00    -0.358 N 
ATOM      7  C1  <0> d           2.278   0.847  -0.123  0.00  0.00     0.152 C 
ATOM      8  C2  <0> d           1.244   3.156  -0.314  0.00  0.00     0.152 C 
ATOM      9  O1  <0> d          -0.257  -0.016   0.200  0.00  0.00    -0.270 OA
ENDBRANCH   4   5
BRANCH   4  10
ATOM     10  C5  <0> d          -1.739   2.576  -1.113  0.00  0.00    -0.020 A 
ATOM     11  C10 <0> d          -1.503   3.888  -1.480  0.00  0.00     0.010 A 
ATOM     12  C9  <0> d          -1.886   4.334  -2.731  0.00  0.00     0.001 A 
ATOM     13  C8  <0> d          -2.503   3.469  -3.615  0.00  0.00     0.000 A 
ATOM     14  C7  <0> d          -2.738   2.157  -3.248  0.00  0.00     0.001 A 
ATOM     15  C6  <0> d          -2.351   1.710  -1.999  0.00  0.00     0.010 A 
ENDBRANCH   4  10
ENDBRANCH   3   4
ENDBRANCH   1   3
BRANCH   1  16
ATOM     16  C12 <0> d          -3.611   0.640   2.897  0.00  0.00     0.131 C 
BRANCH  16  17
ATOM     17  C13 <0> d          -3.479   0.833   4.409  0.00  0.00     0.142 C 
BRANCH  17  18
ATOM     18  N2  <0> d          -4.558   0.113   5.090  0.00  0.00    -0.315 N 
ATOM     19  H17 <0> d          -5.327  -0.198   4.586  0.00  0.00     0.172 HD
BRANCH  18  20
ATOM     20  S1  <0> d          -4.465  -0.170   6.719  0.00  0.00     0.262 S 
ATOM     21  O4  <0> d          -5.657  -0.854   7.080  0.00  0.00    -0.200 OA
ATOM     22  O5  <0> d          -3.174  -0.708   6.965  0.00  0.00    -0.200 OA
BRANCH  20  23
ATOM     23  C14 <0> d          -4.520   1.397   7.524  0.00  0.00     0.122 A 
ATOM     24  C19 <0> d          -5.736   1.942   7.896  0.00  0.00     0.059 A 
ATOM     25  C18 <0> d          -5.778   3.171   8.528  0.00  0.00     0.025 A 
ATOM     26 Cl1  <0> d          -7.209   1.082   7.569  0.00  0.00    -0.083 Cl
ATOM     27  C17 <0> d          -4.606   3.856   8.788  0.00  0.00     0.003 A 
ATOM     28  C16 <0> d          -3.391   3.311   8.418  0.00  0.00     0.025 A 
ATOM     29  C15 <0> d          -3.347   2.079   7.789  0.00  0.00     0.059 A 
ATOM     30 Cl2  <0> d          -1.820   1.393   7.330  0.00  0.00    -0.083 Cl
ENDBRANCH  20  23
ENDBRANCH  18  20
ENDBRANCH  17  18
ENDBRANCH  16  17
ENDBRANCH   1  16
TORSDOF 9
