REMARK  7 active torsions:
REMARK  status: ('A' for Active; 'I' for Inactive)
REMARK    1  A    between atoms: C6_6  and  C17_25 
REMARK    2  A    between atoms: C7_7  and  N1_8 
REMARK       I    between atoms: N1_8  and  C8_9 
REMARK    3  A    between atoms: C8_9  and  C9_11 
REMARK    4  A    between atoms: C9_11  and  S1_13 
REMARK    5  A    between atoms: S1_13  and  C11_14 
REMARK    6  A    between atoms: C12_17  and  C13_20 
REMARK    7  A    between atoms: N4_18  and  N5_19 
ROOT
ATOM      1  C9  <0> d           2.482   9.650  -0.711  0.00  0.00     0.143 C 
ATOM      2  C10 <0> d           2.877   8.998   0.615  0.00  0.00     0.031 C 
ENDROOT
BRANCH   1   3
ATOM      3  C8  <0> d           3.410  10.802  -1.001  0.00  0.00     0.236 C 
ATOM      4  N1  <0> d           3.218  11.991  -0.397  0.00  0.00    -0.325 N 
ATOM      5  H8  <0> d           2.451  12.122   0.183  0.00  0.00     0.169 HD
ATOM      6  O1  <0> d           4.331  10.658  -1.778  0.00  0.00    -0.272 OA
BRANCH   4   7
ATOM      7  C7  <0> d           4.124  13.037  -0.606  0.00  0.00     0.047 A 
ATOM      8  C2  <0> d           5.482  12.831  -0.405  0.00  0.00    -0.035 A 
ATOM      9  C1  <0> d           5.983  11.480   0.039  0.00  0.00     0.050 C 
ATOM     10  C3  <0> d           6.374  13.865  -0.613  0.00  0.00     0.009 A 
ATOM     11  C4  <0> d           5.915  15.104  -1.019  0.00  0.00     0.001 A 
ATOM     12  C5  <0> d           4.563  15.313  -1.220  0.00  0.00     0.010 A 
ATOM     13  C6  <0> d           3.667  14.281  -1.020  0.00  0.00    -0.027 A 
BRANCH  13  14
ATOM     14  C17 <0> d           2.194  14.507  -1.246  0.00  0.00     0.013 C 
ATOM     15  C18 <0> d           1.700  15.617  -0.316  0.00  0.00     0.015 C 
ATOM     16  C19 <0> d           1.958  14.918  -2.701  0.00  0.00     0.015 C 
ENDBRANCH  13  14
ENDBRANCH   4   7
ENDBRANCH   1   3
BRANCH   1  17
ATOM     17  S1  <0> d           2.600   8.430  -2.043  0.00  0.00    -0.075 SA
BRANCH  17  18
ATOM     18  C11 <0> d           1.339   7.306  -1.541  0.00  0.00     0.207 A 
ATOM     19  N4  <0> d           0.975   6.156  -2.184  0.00  0.00    -0.235 N 
ATOM     20  C12 <0> d          -0.044   5.616  -1.431  0.00  0.00     0.186 A 
ATOM     21  N3  <0> d          -0.235   6.422  -0.409  0.00  0.00    -0.127 NA
ATOM     22  N2  <0> d           0.579   7.414  -0.475  0.00  0.00    -0.121 NA
BRANCH  19  23
ATOM     23  N5  <0> d           1.508   5.650  -3.336  0.00  0.00    -0.239 NA
ATOM     24  H12 <0> d           1.019   6.000  -4.146  0.00  0.00     0.143 HD
ATOM     25  H13 <0> d           2.495   5.850  -3.395  0.00  0.00     0.143 HD
ENDBRANCH  19  23
BRANCH  20  26
ATOM     26  C13 <0> d          -0.775   4.371  -1.712  0.00  0.00     0.054 A 
ATOM     27  S2  <0> d          -0.359   3.052  -2.842  0.00  0.00    -0.098 SA
ATOM     28  C16 <0> d          -1.766   1.999  -2.530  0.00  0.00     0.050 A 
ATOM     29  C15 <0> d          -2.457   2.712  -1.603  0.00  0.00     0.009 A 
ATOM     30  C14 <0> d          -1.955   3.921  -1.176  0.00  0.00     0.023 A 
ENDBRANCH  20  26
ENDBRANCH  17  18
ENDBRANCH   1  17
TORSDOF 7
