REMARK  5 active torsions:
REMARK  status: ('A' for Active; 'I' for Inactive)
REMARK    1  A    between atoms: C2_2  and  C8_14 
REMARK    2  A    between atoms: N1_3  and  N2_4 
REMARK       I    between atoms: N2_4  and  C3_5 
REMARK    3  A    between atoms: C3_5  and  C4_7 
REMARK    4  A    between atoms: C11_17  and  N5_20 
REMARK       I    between atoms: N5_20  and  C14_21 
REMARK    5  A    between atoms: C14_21  and  C15_23 
ROOT
ATOM      1  C8  <0> d           2.434   1.380   0.036  0.00  0.00    -0.010 A 
ATOM      2  C9  <0> d           1.226   2.054   0.238  0.00  0.00     0.016 A 
ATOM      3  C10 <0> d           0.041   1.353   0.240  0.00  0.00     0.030 A 
ATOM      4  C11 <0> d           0.044  -0.024   0.041  0.00  0.00     0.035 A 
ATOM      5  C12 <0> d           1.244  -0.697  -0.160  0.00  0.00     0.030 A 
ATOM      6  C13 <0> d           2.434  -0.003  -0.163  0.00  0.00     0.016 A 
ENDROOT
BRANCH   1   7
ATOM      7  C2  <0> d           3.705   2.127   0.034  0.00  0.00     0.061 C 
ATOM      8  C1  <0> d           3.703   3.619   0.248  0.00  0.00     0.073 C 
ATOM      9  N1  <0> d           4.826   1.499  -0.154  0.00  0.00    -0.176 NA
BRANCH   9  10
ATOM     10  N2  <0> d           6.034   2.209  -0.156  0.00  0.00    -0.241 N 
ATOM     11  C3  <0> d           7.198   1.558  -0.351  0.00  0.00     0.291 C 
ATOM     12  O1  <0> d           7.194   0.369  -0.613  0.00  0.00    -0.264 OA
ATOM     13  H4  <0> d           6.033   3.298   0.000  0.00  0.00     0.192 HD
BRANCH  11  14
ATOM     14  C4  <0> d           8.472   2.283  -0.246  0.00  0.00     0.140 A 
ATOM     15  N4  <0> d           9.053   3.065  -1.204  0.00  0.00    -0.268 N 
ATOM     16  N3  <0> d          10.160   3.541  -0.760  0.00  0.00    -0.183 NA
ATOM     17  C7  <0> d           8.496   3.325  -2.534  0.00  0.00     0.180 C 
ATOM     18  C6  <0> d          10.393   3.126   0.458  0.00  0.00     0.160 A 
ATOM     19  C5  <0> d           9.329   2.305   0.843  0.00  0.00     0.064 A 
ATOM     20 Br1  <0> d           9.107   1.415   2.496  0.00  0.00    -0.047 Br
ENDBRANCH  11  14
ENDBRANCH   9  10
ENDBRANCH   1   7
BRANCH   4  21
ATOM     21  N5  <0> d          -1.160  -0.731   0.043  0.00  0.00    -0.323 N 
ATOM     22  C14 <0> d          -2.283  -0.152  -0.426  0.00  0.00     0.256 C 
ATOM     23  O2  <0> d          -2.230   0.950  -0.937  0.00  0.00    -0.267 OA
ATOM     24  H13 <0> d          -1.192  -1.761   0.429  0.00  0.00     0.169 HD
BRANCH  22  25
ATOM     25  C15 <0> d          -3.578  -0.856  -0.319  0.00  0.00     0.035 A 
ATOM     26  C20 <0> d          -3.640  -2.124   0.261  0.00  0.00     0.059 A 
ATOM     27  C19 <0> d          -4.855  -2.775   0.362  0.00  0.00     0.117 A 
ATOM     28  C18 <0> d          -6.007  -2.175  -0.121  0.00  0.00     0.042 A 
ATOM     29  F1  <0> d          -4.919  -4.000   0.927  0.00  0.00    -0.206 F 
ATOM     30  C17 <0> d          -5.949  -0.921  -0.703  0.00  0.00     0.004 A 
ATOM     31  C16 <0> d          -4.743  -0.259  -0.804  0.00  0.00     0.017 A 
ENDBRANCH  22  25
ENDBRANCH   4  21
TORSDOF 5
