REMARK  5 active torsions:
REMARK  status: ('A' for Active; 'I' for Inactive)
REMARK    1  A    between atoms: O1_2  and  C2_3 
REMARK    2  A    between atoms: C6_7  and  C9_11 
REMARK    3  A    between atoms: C7_8  and  O2_9 
REMARK    4  A    between atoms: C19_23  and  C20_24 
REMARK    5  A    between atoms: C20_24  and  O4_26 
ROOT
ATOM      1  C9  <0> d           3.613   4.898  -0.013  0.00  0.00     0.272 C 
ATOM      2  C10 <0> d           2.986   3.529   0.124  0.00  0.00     0.052 A 
ATOM      3  C11 <0> d           1.652   3.333   0.156  0.00  0.00    -0.018 A 
ATOM      4  C12 <0> d           1.425   1.901   0.292  0.00  0.00    -0.001 A 
ATOM      5  C13 <0> d           0.287   1.094   0.378  0.00  0.00     0.014 A 
ATOM      6  C14 <0> d           0.420  -0.259   0.506  0.00  0.00     0.001 A 
ATOM      7  C15 <0> d           1.679  -0.843   0.551  0.00  0.00     0.002 A 
ATOM      8  C16 <0> d           2.815  -0.068   0.467  0.00  0.00     0.030 A 
ATOM      9  C17 <0> d           2.704   1.312   0.336  0.00  0.00     0.043 A 
ATOM     10  N1  <0> d           3.627   2.330   0.231  0.00  0.00    -0.356 N 
ATOM     11  H2  <0> d           4.590   2.211   0.234  0.00  0.00     0.166 HD
ATOM     12  C18 <0> d           0.640   4.446   0.065  0.00  0.00     0.085 C 
ATOM     13  C19 <0> d           1.369   5.770   0.330  0.00  0.00     0.290 C 
ATOM     14  N2  <0> d           2.585   5.842  -0.507  0.00  0.00    -0.048 N 
ATOM     15  H22 <0> d           2.343   5.602  -1.475  0.00  0.00     0.279 HD
ATOM     16  H23 <0> d           2.961   6.797  -0.475  0.00  0.00     0.279 HD
ENDROOT
BRANCH   1  17
ATOM     17  C6  <0> d           4.748   4.839  -1.002  0.00  0.00     0.014 A 
ATOM     18  C5  <0> d           4.845   3.777  -1.882  0.00  0.00     0.012 A 
ATOM     19  C4  <0> d           5.882   3.723  -2.794  0.00  0.00     0.003 A 
ATOM     20  C3  <0> d           6.834   4.725  -2.823  0.00  0.00     0.039 A 
ATOM     21  C2  <0> d           6.746   5.790  -1.941  0.00  0.00     0.102 A 
ATOM     22  C7  <0> d           5.699   5.847  -1.026  0.00  0.00     0.110 A 
BRANCH  21  23
ATOM     23  O1  <0> d           7.682   6.777  -1.968  0.00  0.00    -0.353 OA
ATOM     24  C1  <0> d           8.728   6.652  -2.933  0.00  0.00     0.210 C 
ENDBRANCH  21  23
BRANCH  22  25
ATOM     25  O2  <0> d           5.609   6.889  -0.158  0.00  0.00    -0.352 OA
ATOM     26  C8  <0> d           6.362   6.792   1.053  0.00  0.00     0.210 C 
ENDBRANCH  22  25
ENDBRANCH   1  17
BRANCH  13  27
ATOM     27  C20 <0> d           0.463   6.922  -0.020  0.00  0.00     0.289 C 
ATOM     28  O3  <0> d           0.593   7.494  -1.076  0.00  0.00    -0.263 OA
BRANCH  27  29
ATOM     29  O4  <0> d          -0.489   7.313   0.842  0.00  0.00    -0.325 OA
ATOM     30  C21 <0> d          -1.325   8.430   0.439  0.00  0.00     0.213 C 
ENDBRANCH  27  29
ENDBRANCH  13  27
TORSDOF 5
