REMARK  8 active torsions:
REMARK  status: ('A' for Active; 'I' for Inactive)
REMARK    1  A    between atoms: C5_6  and  C6_7 
REMARK    2  A    between atoms: C8_9  and  C22_31 
REMARK    3  A    between atoms: N2_11  and  C18_27 
REMARK    4  A    between atoms: N3_13  and  C12_18 
REMARK    5  A    between atoms: C12_18  and  C13_19 
REMARK       I    between atoms: C13_19  and  N4_21 
REMARK    6  A    between atoms: N4_21  and  C14_22 
REMARK    7  A    between atoms: C14_22  and  C15_23 
REMARK    8  A    between atoms: C15_23  and  N5_24 
ROOT
ATOM      1  C6  <0> d          -0.316  -1.454   3.965  0.00  0.00     0.127 C 
ATOM      2  C7  <0> d           1.101  -0.954   3.858  0.00  0.00     0.038 A 
ATOM      3  C8  <0> d           2.024  -1.222   2.833  0.00  0.00     0.099 A 
ATOM      4  N1  <0> d           3.145  -0.589   3.120  0.00  0.00    -0.169 NA
ATOM      5  N2  <0> d           2.966   0.097   4.332  0.00  0.00    -0.243 N 
ATOM      6  C9  <0> d           1.706  -0.149   4.760  0.00  0.00     0.140 A 
ATOM      7  N3  <0> d           1.087   0.317   5.930  0.00  0.00    -0.292 N 
ATOM      8  C10 <0> d           0.446  -0.563   6.706  0.00  0.00     0.235 C 
ATOM      9  O1  <0> d          -0.343  -0.170   7.539  0.00  0.00    -0.272 OA
ATOM     10  C11 <0> d           0.697  -2.032   6.550  0.00  0.00     0.178 C 
ATOM     11  S2  <0> d          -0.390  -2.738   5.264  0.00  0.00    -0.145 SA
ENDROOT
BRANCH   7  12
ATOM     12  C12 <0> d           1.142   1.735   6.293  0.00  0.00     0.236 C 
BRANCH  12  13
ATOM     13  C13 <0> d           0.089   2.491   5.524  0.00  0.00     0.236 C 
ATOM     14  O2  <0> d          -0.636   1.903   4.750  0.00  0.00    -0.272 OA
ATOM     15  N4  <0> d          -0.047   3.821   5.697  0.00  0.00    -0.358 N 
ATOM     16  H11 <0> d           0.532   4.291   6.317  0.00  0.00     0.162 HD
BRANCH  15  17
ATOM     17  C14 <0> d          -1.071   4.556   4.950  0.00  0.00     0.150 C 
BRANCH  17  18
ATOM     18  C15 <0> d          -1.014   6.037   5.330  0.00  0.00     0.253 C 
BRANCH  18  19
ATOM     19  N5  <0> d          -2.040   6.774   4.580  0.00  0.00    -0.077 N 
ATOM     20  C16 <0> d          -2.065   8.172   5.031  0.00  0.00     0.269 C 
ATOM     21  C17 <0> d          -1.727   6.728   3.146  0.00  0.00     0.269 C 
ATOM     22  H36 <0> d          -2.942   6.352   4.742  0.00  0.00     0.279 HD
ENDBRANCH  18  19
ENDBRANCH  17  18
ENDBRANCH  15  17
ENDBRANCH  12  13
ENDBRANCH   7  12
BRANCH   5  23
ATOM     23  C18 <0> d           3.963   0.928   5.011  0.00  0.00     0.047 C 
ATOM     24  C19 <0> d           3.759   2.393   4.617  0.00  0.00     0.040 C 
ATOM     25  C20 <0> d           3.804   0.781   6.525  0.00  0.00     0.040 C 
ATOM     26  C21 <0> d           5.366   0.480   4.599  0.00  0.00     0.040 C 
ENDBRANCH   5  23
BRANCH   1  27
ATOM     27  C5  <0> d          -0.745  -2.043   2.646  0.00  0.00     0.007 A 
ATOM     28  C2  <0> d          -1.285  -1.422   1.569  0.00  0.00    -0.047 A 
ATOM     29  C1  <0> d          -1.534   0.064   1.587  0.00  0.00     0.049 C 
ATOM     30  C3  <0> d          -1.599  -2.172   0.450  0.00  0.00     0.015 A 
ATOM     31  C4  <0> d          -1.363  -3.506   0.466  0.00  0.00     0.051 A 
ATOM     32  S1  <0> d          -0.676  -3.741   2.097  0.00  0.00    -0.104 SA
ENDBRANCH   1  27
BRANCH   3  33
ATOM     33  C22 <0> d           1.781  -2.070   1.639  0.00  0.00    -0.005 A 
ATOM     34  C27 <0> d           2.121  -3.421   1.659  0.00  0.00     0.014 A 
ATOM     35  C26 <0> d           1.887  -4.205   0.548  0.00  0.00     0.001 A 
ATOM     36  C25 <0> d           1.327  -3.650  -0.589  0.00  0.00     0.000 A 
ATOM     37  C24 <0> d           0.993  -2.308  -0.616  0.00  0.00     0.001 A 
ATOM     38  C23 <0> d           1.217  -1.515   0.492  0.00  0.00     0.014 A 
ENDBRANCH   3  33
TORSDOF 8
