REMARK  4 active torsions:
REMARK  status: ('A' for Active; 'I' for Inactive)
REMARK    1  A    between atoms: C3_5  and  N3_7 
REMARK       I    between atoms: N3_7  and  C4_8 
REMARK    2  A    between atoms: C4_8  and  C5_10 
REMARK    3  A    between atoms: C5_10  and  N4_11 
REMARK    4  A    between atoms: C10_18  and  C12_21 
ROOT
ATOM      1  N4  <0> d           3.562   1.887  -0.022  0.00  0.00    -0.299 N 
ATOM      2  C6  <0> d           4.074   2.320   1.159  0.00  0.00     0.214 A 
ATOM      3  N5  <0> d           5.055   3.181   1.195  0.00  0.00    -0.235 NA
ATOM      4  C7  <0> d           5.586   3.662   0.074  0.00  0.00     0.115 A 
ATOM      5  C8  <0> d           5.122   3.272  -1.194  0.00  0.00     0.080 A 
ATOM      6  C9  <0> d           4.050   2.325  -1.197  0.00  0.00     0.263 A 
ATOM      7  O2  <0> d           3.583   1.923  -2.249  0.00  0.00    -0.267 OA
ATOM      8  C10 <0> d           5.810   3.892  -2.321  0.00  0.00     0.006 A 
ATOM      9  C11 <0> d           6.814   4.770  -2.069  0.00  0.00     0.065 A 
ATOM     10  S2  <0> d           6.888   4.811  -0.289  0.00  0.00    -0.080 SA
ENDROOT
BRANCH   1  11
ATOM     11  C5  <0> d           2.462   0.920  -0.017  0.00  0.00     0.236 C 
BRANCH  11  12
ATOM     12  C4  <0> d           1.147   1.655  -0.000  0.00  0.00     0.242 C 
ATOM     13  N3  <0> d          -0.011   0.966   0.007  0.00  0.00    -0.303 N 
ATOM     14  H4  <0> d           0.004  -0.134   0.006  0.00  0.00     0.171 HD
ATOM     15  O1  <0> d           1.130   2.868   0.007  0.00  0.00    -0.271 OA
BRANCH  13  16
ATOM     16  C3  <0> d          -1.225   1.645   0.017  0.00  0.00     0.196 A 
ATOM     17  N2  <0> d          -1.463   2.945   0.025  0.00  0.00    -0.123 NA
ATOM     18  N1  <0> d          -2.637   3.408   0.033  0.00  0.00    -0.145 NA
ATOM     19  C2  <0> d          -3.678   2.600   0.034  0.00  0.00     0.097 A 
ATOM     20  C1  <0> d          -5.151   2.919   0.042  0.00  0.00     0.081 C 
ATOM     21  S1  <0> d          -2.847   1.016   0.014  0.00  0.00    -0.034 SA
ENDBRANCH  13  16
ENDBRANCH  11  12
ENDBRANCH   1  11
BRANCH   8  22
ATOM     22  C12 <0> d           5.422   3.570  -3.710  0.00  0.00     0.016 A 
ATOM     23  S3  <0> d           5.198   1.972  -4.474  0.00  0.00    -0.101 SA
ATOM     24  C15 <0> d           4.748   2.534  -6.108  0.00  0.00     0.050 A 
ATOM     25  C14 <0> d           4.796   3.882  -5.969  0.00  0.00     0.008 A 
ATOM     26  C13 <0> d           5.133   4.420  -4.744  0.00  0.00     0.020 A 
ENDBRANCH   8  22
TORSDOF 4
