REMARK  5 active torsions:
REMARK  status: ('A' for Active; 'I' for Inactive)
REMARK    1  A    between atoms: C2_2  and  C3_3 
REMARK    2  A    between atoms: C2_2  and  N2_6 
REMARK    3  A    between atoms: N2_6  and  C6_8 
REMARK    4  A    between atoms: C6_8  and  C7_9 
REMARK    5  A    between atoms: C10_12  and  N4_19 
ROOT
ATOM      1  C3  <0> d           0.742  -0.511   1.242  0.00  0.00     0.159 C 
ATOM      2  C4  <0> d           0.867  -1.976   1.173  0.00  0.00     0.061 C 
ATOM      3  N1  <0> d           0.963  -3.107   1.121  0.00  0.00    -0.197 NA
ENDROOT
BRANCH   1   4
ATOM      4  C2  <0> d           0.002  -0.004   0.002  0.00  0.00     0.232 C 
ATOM      5  C1  <0> d          -0.019   1.526   0.010  0.00  0.00     0.044 C 
BRANCH   4   6
ATOM      6  N2  <0> d          -1.376  -0.512   0.012  0.00  0.00     0.093 N 
ATOM      7  C5  <0> d          -2.139   0.056   1.132  0.00  0.00     0.310 C 
BRANCH   6   8
ATOM      8  C6  <0> d          -2.045  -0.248  -1.268  0.00  0.00     0.313 C 
BRANCH   8   9
ATOM      9  C7  <0> d          -3.355  -0.990  -1.314  0.00  0.00    -0.000 A 
ATOM     10  C12 <0> d          -4.482  -0.466  -0.658  0.00  0.00     0.077 A 
ATOM     11  C11 <0> d          -5.707  -1.174  -0.714  0.00  0.00     0.019 A 
ATOM     12  N3  <0> d          -4.412   0.690   0.012  0.00  0.00    -0.260 NA
ATOM     13  C10 <0> d          -5.774  -2.395  -1.418  0.00  0.00     0.038 A 
ATOM     14  C15 <0> d          -6.833  -0.644  -0.062  0.00  0.00     0.017 A 
ATOM     15  C9  <0> d          -4.643  -2.877  -2.045  0.00  0.00     0.030 A 
ATOM     16  C8  <0> d          -3.446  -2.171  -1.986  0.00  0.00     0.013 A 
ATOM     17  C14 <0> d          -6.691   0.536   0.614  0.00  0.00     0.020 A 
ATOM     18  C13 <0> d          -5.460   1.185   0.626  0.00  0.00     0.117 A 
BRANCH  13  19
ATOM     19  N4  <0> d          -6.969  -3.106  -1.481  0.00  0.00    -0.398 N 
ATOM     20  H17 <0> d          -7.009  -3.945  -1.966  0.00  0.00     0.156 HD
ATOM     21  H18 <0> d          -7.761  -2.763  -1.039  0.00  0.00     0.156 HD
ENDBRANCH  13  19
ENDBRANCH   8   9
ENDBRANCH   6   8
ENDBRANCH   4   6
ENDBRANCH   1   4
TORSDOF 5
