REMARK  7 active torsions:
REMARK  status: ('A' for Active; 'I' for Inactive)
REMARK    1  A    between atoms: C2_2  and  C3_3 
REMARK    2  A    between atoms: C2_2  and  C4_5 
REMARK    3  A    between atoms: C2_2  and  O7_21 
REMARK    4  A    between atoms: C3_3  and  O1_4 
REMARK    5  A    between atoms: C4_5  and  C5_6 
REMARK    6  A    between atoms: C4_5  and  O6_20 
REMARK    7  A    between atoms: C7_10  and  O5_19 
ROOT
ATOM      1  C5  <0> d           2.871   5.211  -0.416  0.00  0.00     0.249 C 
ATOM      2  C6  <0> d           4.365   5.203  -0.677  0.00  0.00     0.279 C 
ATOM      3  O2  <0> d           5.097   4.397  -0.143  0.00  0.00    -0.268 OA
ATOM      4  N1  <0> d           4.845   6.137  -1.533  0.00  0.00    -0.314 N 
ATOM      5  C7  <0> d           3.958   7.068  -2.205  0.00  0.00     0.242 C 
ATOM      6  C8  <0> d           3.548   8.209  -1.335  0.00  0.00    -0.023 C 
ATOM      7  C9  <0> d           4.079   9.384  -1.565  0.00  0.00     0.020 C 
ATOM      8  C10 <0> d           2.564   8.085  -0.214  0.00  0.00     0.065 C 
ATOM      9  C11 <0> d           3.156   7.208   0.887  0.00  0.00     0.176 C 
ATOM     10  O3  <0> d           2.616   5.865   0.822  0.00  0.00    -0.350 OA
ATOM     11  C12 <0> d           2.660   6.346  -2.548  0.00  0.00     0.281 C 
ATOM     12  O4  <0> d           2.149   6.441  -3.644  0.00  0.00    -0.267 OA
ATOM     13  N2  <0> d           2.122   5.608  -1.573  0.00  0.00    -0.315 N 
ATOM     14  H8  <0> d           5.800   6.184  -1.700  0.00  0.00     0.166 HD
ATOM     15  H15 <0> d           1.199   5.326  -1.666  0.00  0.00     0.166 HD
ENDROOT
BRANCH   1  16
ATOM     16  C4  <0> d           2.506   3.744  -0.179  0.00  0.00     0.219 C 
BRANCH  16  17
ATOM     17  C2  <0> d           1.120   3.661   0.462  0.00  0.00     0.106 C 
ATOM     18  C1  <0> d           0.098   4.357  -0.440  0.00  0.00     0.051 C 
BRANCH  17  19
ATOM     19  C3  <0> d           0.727   2.193   0.639  0.00  0.00     0.204 C 
BRANCH  19  20
ATOM     20  O1  <0> d          -0.613   2.114   1.130  0.00  0.00    -0.398 OA
ATOM     21  H7  <0> d          -0.930   1.210   1.266  0.00  0.00     0.209 HD
ENDBRANCH  19  20
ENDBRANCH  17  19
BRANCH  17  22
ATOM     22  O7  <0> d           1.145   4.304   1.738  0.00  0.00    -0.385 OA
ATOM     23  H18 <0> d           1.772   3.914   2.362  0.00  0.00     0.210 HD
ENDBRANCH  17  22
ENDBRANCH  16  17
BRANCH  16  24
ATOM     24  O6  <0> d           3.470   3.148   0.691  0.00  0.00    -0.387 OA
ATOM     25  H17 <0> d           3.370   3.399   1.619  0.00  0.00     0.210 HD
ENDBRANCH  16  24
ENDBRANCH   1  16
BRANCH   5  26
ATOM     26  O5  <0> d           4.586   7.564  -3.389  0.00  0.00    -0.359 OA
ATOM     27  H16 <0> d           4.877   6.873  -3.999  0.00  0.00     0.213 HD
ENDBRANCH   5  26
TORSDOF 7
