REMARK  2 active torsions:
REMARK  status: ('A' for Active; 'I' for Inactive)
REMARK    1  A    between atoms: C6_7  and  N2_10 
REMARK       I    between atoms: N2_10  and  C9_11 
REMARK    2  A    between atoms: C9_11  and  C10_13 
ROOT
ATOM      1  C1  <0> d          -0.019   1.533   0.011  0.00  0.00     0.004 C 
ATOM      2  C2  <0> d           1.405   2.089  -0.000  0.00  0.00     0.028 C 
ATOM      3  C3  <0> d           2.238   1.476   1.135  0.00  0.00     0.235 C 
ATOM      4  N1  <0> d           2.233   0.030   0.960  0.00  0.00    -0.065 N 
ATOM      5  C4  <0> d           3.024  -0.725   1.945  0.00  0.00     0.237 C 
ATOM      6  C5  <0> d           2.443  -2.161   1.851  0.00  0.00     0.055 C 
ATOM      7  C6  <0> d           1.005  -1.974   1.301  0.00  0.00     0.116 C 
ATOM      8  C7  <0> d           0.845  -0.455   1.185  0.00  0.00     0.210 C 
ATOM      9  C8  <0> d           0.002  -0.004   0.002  0.00  0.00     0.035 C 
ATOM     10  H22 <0> d           2.530  -0.204   0.025  0.00  0.00     0.280 HD
ENDROOT
BRANCH   7  11
ATOM     11  N2  <0> d           0.871  -2.609  -0.013  0.00  0.00    -0.352 N 
ATOM     12  C9  <0> d           0.553  -3.916  -0.101  0.00  0.00     0.252 C 
ATOM     13  O1  <0> d           0.378  -4.566   0.908  0.00  0.00    -0.271 OA
ATOM     14  H16 <0> d           1.012  -2.088  -0.819  0.00  0.00     0.163 HD
BRANCH  12  15
ATOM     15  C10 <0> d           0.416  -4.568  -1.452  0.00  0.00     0.321 C 
ATOM     16  N3  <0> d           0.586  -6.006  -1.291  0.00  0.00     0.106 N 
ATOM     17  C12 <0> d          -0.549  -6.859  -1.708  0.00  0.00     0.344 C 
ATOM     18  H21 <0> d           1.445  -6.319  -1.718  0.00  0.00     0.318 HD
ATOM     19  S1  <0> d          -1.425  -5.737  -2.886  0.00  0.00    -0.137 SA
ATOM     20  C11 <0> d          -0.946  -4.154  -2.062  0.00  0.00     0.121 C 
ENDBRANCH  12  15
ENDBRANCH   7  11
TORSDOF 2
