REMARK  5 active torsions:
REMARK  status: ('A' for Active; 'I' for Inactive)
REMARK    1  A    between atoms: C2_2  and  C3_3 
REMARK    2  A    between atoms: C3_3  and  C4_4 
REMARK    3  A    between atoms: C7_11  and  N6_29 
REMARK    4  A    between atoms: C9_13  and  C10_14 
REMARK    5  A    between atoms: C12_19  and  C13_20 
ROOT
ATOM      1  C4  <0> d          -1.413  -2.041   0.005  0.00  0.00     0.066 A 
ATOM      2  C5  <0> d          -1.407  -2.849  -1.124  0.00  0.00     0.035 A 
ATOM      3  C6  <0> d          -1.388  -4.152  -0.711  0.00  0.00     0.175 A 
ATOM      4  N1  <0> d          -1.381  -4.152   0.632  0.00  0.00    -0.256 N 
ATOM      5  H1  <0> d          -1.367  -4.936   1.203  0.00  0.00     0.191 HD
ATOM      6  N2  <0> d          -1.392  -2.816   1.062  0.00  0.00    -0.177 NA
ATOM      7  O1  <0> d          -1.381  -5.196  -1.577  0.00  0.00    -0.274 OA
ATOM      8  C7  <0> d          -1.670  -4.936  -2.869  0.00  0.00     0.161 C 
ATOM      9  C8  <0> d          -1.706  -3.692  -3.396  0.00  0.00     0.086 C 
ATOM     10  C9  <0> d          -1.417  -2.458  -2.579  0.00  0.00     0.110 C 
ATOM     11  C19 <0> d          -2.030  -3.541  -4.783  0.00  0.00     0.100 C 
ATOM     12  N5  <0> d          -2.287  -3.420  -5.883  0.00  0.00    -0.191 NA
ENDROOT
BRANCH   8  13
ATOM     13  N6  <0> d          -1.942  -5.997  -3.696  0.00  0.00    -0.379 N 
ATOM     14  H16 <0> d          -1.924  -6.902  -3.347  0.00  0.00     0.158 HD
ATOM     15  H17 <0> d          -2.153  -5.842  -4.630  0.00  0.00     0.158 HD
ENDBRANCH   8  13
BRANCH  10  16
ATOM     16  C10 <0> d          -0.073  -1.895  -2.963  0.00  0.00     0.004 A 
ATOM     17  C12 <0> d           0.172  -0.600  -3.461  0.00  0.00     0.096 A 
ATOM     18  N4  <0> d           1.466  -0.486  -3.674  0.00  0.00    -0.174 NA
ATOM     19  N3  <0> d           2.072  -1.700  -3.328  0.00  0.00    -0.288 N 
ATOM     20  C11 <0> d           1.110  -2.543  -2.897  0.00  0.00     0.119 A 
ATOM     21  H3  <0> d           3.019  -1.901  -3.388  0.00  0.00     0.188 HD
BRANCH  17  22
ATOM     22  C13 <0> d          -0.849   0.451  -3.700  0.00  0.00    -0.005 A 
ATOM     23  C18 <0> d          -0.535   1.791  -3.483  0.00  0.00     0.017 A 
ATOM     24  C17 <0> d          -1.485   2.766  -3.713  0.00  0.00     0.043 A 
ATOM     25  C16 <0> d          -2.752   2.412  -4.147  0.00  0.00     0.116 A 
ATOM     26  C15 <0> d          -3.070   1.080  -4.358  0.00  0.00     0.043 A 
ATOM     27  F1  <0> d          -3.680   3.369  -4.366  0.00  0.00    -0.206 F 
ATOM     28  C14 <0> d          -2.124   0.100  -4.137  0.00  0.00     0.017 A 
ENDBRANCH  17  22
ENDBRANCH  10  16
BRANCH   1  29
ATOM     29  C3  <0> d          -1.433  -0.534   0.013  0.00  0.00     0.061 C 
BRANCH  29  30
ATOM     30  C2  <0> d           0.002  -0.004   0.002  0.00  0.00     0.002 C 
ATOM     31  C1  <0> d          -0.019   1.526   0.010  0.00  0.00     0.005 C 
ENDBRANCH  29  30
ENDBRANCH   1  29
TORSDOF 5
