REMARK  7 active torsions:
REMARK  status: ('A' for Active; 'I' for Inactive)
REMARK    1  A    between atoms: C6_6  and  O1_8 
REMARK    2  A    between atoms: O1_8  and  C8_9 
REMARK    3  A    between atoms: C8_9  and  C9_10 
REMARK    4  A    between atoms: C9_10  and  N1_11 
REMARK    5  A    between atoms: N1_11  and  C11_13 
REMARK    6  A    between atoms: C11_13  and  C13_15 
REMARK    7  A    between atoms: C13_15  and  C14_17 
ROOT
ATOM      1  C13 <0> d          -2.402  -4.446   6.466  0.00  0.00     0.201 C 
ATOM      2  O2  <0> d          -3.200  -3.731   5.896  0.00  0.00    -0.290 OA
ENDROOT
BRANCH   1   3
ATOM      3  C11 <0> d          -1.086  -4.779   5.811  0.00  0.00     0.293 C 
ATOM      4  C12 <0> d           0.033  -3.978   6.480  0.00  0.00     0.051 C 
BRANCH   3   5
ATOM      5  N1  <0> d          -1.149  -4.435   4.384  0.00  0.00     0.098 N 
ATOM      6  C10 <0> d          -2.273  -5.115   3.728  0.00  0.00     0.310 C 
BRANCH   5   7
ATOM      7  C9  <0> d           0.120  -4.747   3.712  0.00  0.00     0.299 C 
BRANCH   7   8
ATOM      8  C8  <0> d           0.108  -4.153   2.302  0.00  0.00     0.206 C 
BRANCH   8   9
ATOM      9  O1  <0> d           0.065  -2.727   2.385  0.00  0.00    -0.349 OA
BRANCH   9  10
ATOM     10  C6  <0> d           0.050  -2.040   1.213  0.00  0.00     0.069 A 
ATOM     11  C5  <0> d           0.076  -2.725   0.006  0.00  0.00     0.037 A 
ATOM     12  C4  <0> d           0.060  -2.024  -1.184  0.00  0.00     0.003 A 
ATOM     13  C3  <0> d           0.018  -0.643  -1.174  0.00  0.00     0.007 A 
ATOM     14  C2  <0> d          -0.008   0.042   0.027  0.00  0.00    -0.059 A 
ATOM     15  C1  <0> d          -0.054   1.548   0.034  0.00  0.00     0.048 C 
ATOM     16  C7  <0> d           0.013  -0.653   1.220  0.00  0.00     0.043 A 
ENDBRANCH   9  10
ENDBRANCH   8   9
ENDBRANCH   7   8
ENDBRANCH   5   7
ENDBRANCH   3   5
ENDBRANCH   1   3
BRANCH   1  17
ATOM     17  C14 <0> d          -2.706  -4.966   7.742  0.00  0.00     0.124 A 
ATOM     18  C17 <0> d          -1.821  -5.940   8.395  0.00  0.00     0.269 A 
ATOM     19  N3  <0> d          -2.157  -6.400   9.617  0.00  0.00    -0.270 N 
ATOM     20  O4  <0> d          -0.803  -6.319   7.846  0.00  0.00    -0.267 OA
ATOM     21  C16 <0> d          -3.283  -5.988  10.223  0.00  0.00     0.332 A 
ATOM     22  C18 <0> d          -1.287  -7.367  10.290  0.00  0.00     0.164 C 
ATOM     23  N2  <0> d          -4.121  -5.104   9.660  0.00  0.00    -0.289 N 
ATOM     24  O3  <0> d          -3.552  -6.432  11.323  0.00  0.00    -0.246 OA
ATOM     25  C15 <0> d          -3.869  -4.573   8.427  0.00  0.00     0.124 A 
ATOM     26  C19 <0> d          -5.330  -4.701  10.382  0.00  0.00     0.163 C 
ATOM     27  N4  <0> d          -4.730  -3.678   7.871  0.00  0.00    -0.384 N 
ATOM     28  H25 <0> d          -4.584  -3.363   6.965  0.00  0.00     0.157 HD
ATOM     29  H26 <0> d          -5.489  -3.354   8.381  0.00  0.00     0.157 HD
ENDBRANCH   1  17
TORSDOF 7
