REMARK  5 active torsions:
REMARK  status: ('A' for Active; 'I' for Inactive)
REMARK    1  A    between atoms: C2_2  and  N1_3 
REMARK    2  A    between atoms: C3_4  and  C14_22 
REMARK    3  A    between atoms: C4_7  and  S1_8 
REMARK    4  A    between atoms: S1_8  and  C5_9 
REMARK    5  A    between atoms: C5_9  and  C6_10 
ROOT
ATOM      1  N1  <0> d           0.947  -0.594   0.875  0.00  0.00    -0.023 N 
ATOM      2  C3  <0> d           0.570  -1.961   1.304  0.00  0.00     0.310 C 
ATOM      3  N2  <0> d           1.751  -2.792   0.953  0.00  0.00    -0.225 NA
ATOM      4  N3  <0> d           2.884  -1.906   1.259  0.00  0.00    -0.221 NA
ATOM      5  C4  <0> d           2.424  -0.561   0.846  0.00  0.00     0.340 C 
ATOM      6  H9  <0> d           1.784  -3.629   1.516  0.00  0.00     0.143 HD
ATOM      7  H10 <0> d           3.707  -2.180   0.744  0.00  0.00     0.143 HD
ATOM      8  H21 <0> d           0.598   0.085   1.535  0.00  0.00     0.285 HD
ENDROOT
BRANCH   5   9
ATOM      9  S1  <0> d           3.041   0.691   2.005  0.00  0.00    -0.112 SA
BRANCH   9  10
ATOM     10  C5  <0> d           2.408   0.147   3.616  0.00  0.00     0.155 C 
BRANCH  10  11
ATOM     11  C6  <0> d           2.854   1.113   4.683  0.00  0.00     0.116 A 
ATOM     12  N5  <0> d           3.579   2.130   4.329  0.00  0.00    -0.234 NA
ATOM     13  C13 <0> d           4.012   3.044   5.233  0.00  0.00     0.074 A 
ATOM     14  C8  <0> d           3.675   2.874   6.594  0.00  0.00     0.061 A 
ATOM     15  C12 <0> d           4.786   4.142   4.852  0.00  0.00     0.032 A 
ATOM     16  C7  <0> d           2.858   1.708   6.962  0.00  0.00     0.259 A 
ATOM     17  C9  <0> d           4.113   3.797   7.542  0.00  0.00     0.019 A 
ATOM     18  N4  <0> d           2.483   0.871   5.967  0.00  0.00    -0.310 N 
ATOM     19  O1  <0> d           2.533   1.504   8.117  0.00  0.00    -0.267 OA
ATOM     20  H3  <0> d           1.943   0.092   6.173  0.00  0.00     0.170 HD
ATOM     21  C10 <0> d           4.875   4.872   7.141  0.00  0.00     0.001 A 
ATOM     22  C11 <0> d           5.209   5.042   5.804  0.00  0.00     0.002 A 
ENDBRANCH  10  11
ENDBRANCH   9  10
ENDBRANCH   5   9
BRANCH   1  23
ATOM     23  C2  <0> d           0.410  -0.320  -0.464  0.00  0.00     0.236 C 
ATOM     24  C1  <0> d           0.753   1.116  -0.867  0.00  0.00     0.034 C 
ENDBRANCH   1  23
BRANCH   2  25
ATOM     25  C14 <0> d          -0.651  -2.430   0.555  0.00  0.00    -0.012 A 
ATOM     26  C19 <0> d          -1.889  -2.409   1.169  0.00  0.00     0.012 A 
ATOM     27  C18 <0> d          -3.010  -2.834   0.481  0.00  0.00     0.024 A 
ATOM     28  C17 <0> d          -2.890  -3.292  -0.819  0.00  0.00     0.034 A 
ATOM     29  C16 <0> d          -1.650  -3.319  -1.431  0.00  0.00     0.024 A 
ATOM     30 Cl1  <0> d          -4.296  -3.833  -1.682  0.00  0.00    -0.084 Cl
ATOM     31  C15 <0> d          -0.531  -2.888  -0.744  0.00  0.00     0.012 A 
ENDBRANCH   2  25
TORSDOF 5
