REMARK  3 active torsions:
REMARK  status: ('A' for Active; 'I' for Inactive)
REMARK    1  A    between atoms: N1_6  and  S1_8 
REMARK    2  A    between atoms: S1_8  and  N2_11 
REMARK    3  A    between atoms: C11_16  and  C12_17 
ROOT
ATOM      1  N2  <0> d           1.045   4.545   0.137  0.00  0.00     0.058 N 
ATOM      2  C7  <0> d           1.901   5.408   0.963  0.00  0.00     0.258 C 
ATOM      3  C8  <0> d           1.020   6.436   1.679  0.00  0.00     0.029 C 
ATOM      4  C9  <0> d           0.179   7.189   0.646  0.00  0.00     0.004 C 
ATOM      5  C10 <0> d          -0.731   6.204  -0.090  0.00  0.00     0.046 C 
ATOM      6  C11 <0> d           0.134   5.172  -0.831  0.00  0.00     0.308 C 
ATOM      7  H22 <0> d           0.972   5.641   0.066  0.00  0.00     0.303 HD
ENDROOT
BRANCH   1   8
ATOM      8  S1  <0> d           1.109   2.898   0.289  0.00  0.00     0.404 S 
ATOM      9  O1  <0> d           2.386   2.590   0.832  0.00  0.00    -0.176 OA
ATOM     10  O2  <0> d           0.656   2.358  -0.945  0.00  0.00    -0.176 OA
BRANCH   8  11
ATOM     11  N1  <0> d          -0.007   2.467   1.433  0.00  0.00    -0.288 N 
ATOM     12  C5  <0> d           0.226   2.760   2.854  0.00  0.00     0.137 C 
ATOM     13  C4  <0> d           0.077   1.462   3.656  0.00  0.00     0.021 C 
ATOM     14  C3  <0> d          -1.288   0.838   3.358  0.00  0.00     0.007 C 
ATOM     15  C2  <0> d          -1.383   0.499   1.869  0.00  0.00     0.000 C 
ATOM     16  C1  <0> d          -2.735  -0.155   1.579  0.00  0.00     0.011 C 
ATOM     17  C6  <0> d          -1.250   1.785   1.047  0.00  0.00     0.141 C 
ENDBRANCH   8  11
ENDBRANCH   1   8
BRANCH   6  18
ATOM     18  C12 <0> d          -0.750   4.120  -1.449  0.00  0.00     0.206 C 
ATOM     19  O3  <0> d          -1.468   3.447  -0.748  0.00  0.00    -0.646 OA
ATOM     20  O4  <0> d          -0.738   3.929  -2.777  0.00  0.00    -0.646 OA
ENDBRANCH   6  18
TORSDOF 3
