REMARK  5 active torsions:
REMARK  status: ('A' for Active; 'I' for Inactive)
REMARK    1  A    between atoms: C5_5  and  C8_10 
REMARK       I    between atoms: C8_10  and  N1_12 
REMARK    2  A    between atoms: C10_14  and  C17_22 
REMARK       I    between atoms: C17_22  and  N3_24 
REMARK    3  A    between atoms: N3_24  and  C18_25 
REMARK    4  A    between atoms: C18_25  and  C19_26 
REMARK    5  A    between atoms: C19_26  and  C20_27 
ROOT
ATOM      1  C20 <0> d           6.272  -4.441  -6.224  0.00  0.00    -0.044 A 
ATOM      2  C21 <0> d           6.983  -3.793  -5.266  0.00  0.00    -0.004 A 
ATOM      3  C22 <0> d           6.647  -3.387  -3.948  0.00  0.00     0.036 A 
ATOM      4  C23 <0> d           7.572  -2.730  -3.171  0.00  0.00     0.045 A 
ATOM      5  C24 <0> d           8.910  -2.435  -3.672  0.00  0.00     0.025 A 
ATOM      6  C25 <0> d           9.286  -2.797  -4.916  0.00  0.00     0.031 A 
ATOM      7  C26 <0> d           8.337  -3.500  -5.787  0.00  0.00     0.039 A 
ATOM      8  N4  <0> d           8.460  -3.947  -7.013  0.00  0.00    -0.381 N 
ATOM      9  C27 <0> d           7.199  -4.582  -7.410  0.00  0.00     0.108 A 
ATOM     10  C28 <0> d           7.426  -6.061  -7.729  0.00  0.00     0.037 C 
ATOM     11  C29 <0> d           7.215  -2.328  -1.843  0.00  0.00     0.099 C 
ATOM     12  N5  <0> d           6.932  -2.009  -0.791  0.00  0.00    -0.191 NA
ATOM     13  H32 <0> d           9.254  -3.874  -7.565  0.00  0.00     0.160 HD
ENDROOT
BRANCH   1  14
ATOM     14  C19 <0> d           4.849  -4.928  -6.122  0.00  0.00     0.057 C 
BRANCH  14  15
ATOM     15  C18 <0> d           4.286  -4.574  -4.744  0.00  0.00     0.127 C 
BRANCH  15  16
ATOM     16  N3  <0> d           2.903  -5.047  -4.646  0.00  0.00    -0.360 N 
ATOM     17  C17 <0> d           2.201  -4.845  -3.513  0.00  0.00     0.224 C 
ATOM     18  O2  <0> d           2.714  -4.272  -2.576  0.00  0.00    -0.273 OA
ATOM     19  H21 <0> d           2.493  -5.506  -5.395  0.00  0.00     0.162 HD
BRANCH  17  20
ATOM     20  C10 <0> d           0.779  -5.332  -3.412  0.00  0.00     0.106 C 
ATOM     21  C9  <0> d          -0.036  -4.421  -2.466  0.00  0.00     0.141 C 
ATOM     22  N1  <0> d           0.024  -5.099  -1.149  0.00  0.00    -0.346 N 
ATOM     23  C8  <0> d           0.161  -4.532   0.066  0.00  0.00     0.257 C 
ATOM     24  C12 <0> d          -0.093  -6.541  -1.472  0.00  0.00     0.136 C 
ATOM     25  O1  <0> d           0.289  -5.232   1.052  0.00  0.00    -0.267 OA
ATOM     26  C11 <0> d           0.731  -6.721  -2.755  0.00  0.00    -0.007 C 
ATOM     27  C16 <0> d           0.052  -7.723  -3.684  0.00  0.00     0.039 C 
ATOM     28  C13 <0> d           2.141  -7.190  -2.407  0.00  0.00     0.039 C 
ATOM     29  C15 <0> d           0.069  -9.109  -3.033  0.00  0.00     0.233 C 
ATOM     30  N2  <0> d           1.456  -9.514  -2.774  0.00  0.00    -0.075 N 
ATOM     31  C14 <0> d           2.073  -8.597  -1.807  0.00  0.00     0.233 C 
ATOM     32  H16 <0> d           1.978  -9.491  -3.637  0.00  0.00     0.277 HD
ATOM     33  H33 <0> d           1.467 -10.451  -2.401  0.00  0.00     0.277 HD
BRANCH  23  34
ATOM     34  C5  <0> d           0.154  -3.062   0.200  0.00  0.00     0.073 A 
ATOM     35  C4  <0> d          -0.637  -2.283  -0.648  0.00  0.00     0.021 A 
ATOM     36  C3  <0> d          -0.640  -0.911  -0.518  0.00  0.00     0.011 A 
ATOM     37  C2  <0> d           0.137  -0.300   0.451  0.00  0.00    -0.020 A 
ATOM     38  C1  <0> d           0.127   1.201   0.585  0.00  0.00     0.051 C 
ATOM     39  C7  <0> d           0.929  -1.061   1.293  0.00  0.00     0.161 A 
ATOM     40  C6  <0> d           0.938  -2.442   1.177  0.00  0.00     0.171 A 
ATOM     41  F1  <0> d           1.690  -0.458   2.232  0.00  0.00    -0.202 F 
ATOM     42  F2  <0> d           1.706  -3.186   2.003  0.00  0.00    -0.202 F 
ENDBRANCH  23  34
ENDBRANCH  17  20
ENDBRANCH  15  16
ENDBRANCH  14  15
ENDBRANCH   1  14
TORSDOF 5
