REMARK  6 active torsions:
REMARK  status: ('A' for Active; 'I' for Inactive)
REMARK    1  A    between atoms: C6_6  and  C7_7 
REMARK    2  A    between atoms: C7_7  and  C8_8 
REMARK    3  A    between atoms: C7_7  and  O4_26 
REMARK    4  A    between atoms: C8_8  and  N1_9 
REMARK    5  A    between atoms: C15_16  and  O3_25 
REMARK    6  A    between atoms: C18_19  and  O2_24 
ROOT
ATOM      1  N1  <0> d          -4.619  -0.120  -1.749  0.00  0.00    -0.068 N 
ATOM      2  C9  <0> d          -4.141  -0.503  -0.415  0.00  0.00     0.238 C 
ATOM      3  C10 <0> d          -2.636  -0.239  -0.314  0.00  0.00     0.066 C 
ATOM      4  C11 <0> d          -2.364   1.244  -0.572  0.00  0.00     0.073 C 
ATOM      5  C12 <0> d          -2.917   1.632  -1.945  0.00  0.00     0.066 C 
ATOM      6  C13 <0> d          -4.414   1.314  -1.995  0.00  0.00     0.238 C 
ATOM      7  C14 <0> d          -0.855   1.501  -0.539  0.00  0.00     0.075 C 
ATOM      8  C15 <0> d          -0.310   1.010   0.805  0.00  0.00     0.157 C 
ATOM      9  C16 <0> d          -1.171   1.540   1.924  0.00  0.00     0.006 A 
ATOM     10  C17 <0> d          -0.658   1.548   3.211  0.00  0.00     0.049 A 
ATOM     11  C18 <0> d          -1.422   2.026   4.263  0.00  0.00     0.066 A 
ATOM     12  C19 <0> d          -2.705   2.496   4.028  0.00  0.00     0.039 A 
ATOM     13  C20 <0> d          -3.216   2.489   2.747  0.00  0.00     0.040 A 
ATOM     14  C21 <0> d          -2.449   2.012   1.688  0.00  0.00     0.079 A 
ATOM     15  O1  <0> d          -2.986   2.035   0.439  0.00  0.00    -0.339 OA
ATOM     16  H30 <0> d          -4.025  -0.675  -2.490  0.00  0.00     0.280 HD
ENDROOT
BRANCH   1  17
ATOM     17  C8  <0> d          -6.029  -0.488  -1.929  0.00  0.00     0.271 C 
BRANCH  17  18
ATOM     18  C7  <0> d          -6.136  -1.997  -2.161  0.00  0.00     0.177 C 
BRANCH  18  19
ATOM     19  C6  <0> d          -7.588  -2.386  -2.272  0.00  0.00    -0.025 A 
ATOM     20  C1  <0> d          -8.239  -2.280  -3.486  0.00  0.00     0.013 A 
ATOM     21  C2  <0> d          -9.570  -2.641  -3.596  0.00  0.00     0.040 A 
ATOM     22  C3  <0> d         -10.252  -3.099  -2.482  0.00  0.00     0.102 A 
ATOM     23  O6  <0> d         -11.567  -3.453  -2.575  0.00  0.00    -0.348 OA
ATOM     24  C4  <0> d          -9.600  -3.200  -1.261  0.00  0.00     0.102 A 
ATOM     25  C24 <0> d         -12.492  -2.606  -1.891  0.00  0.00     0.178 C 
ATOM     26  C23 <0> d         -12.605  -3.001  -0.427  0.00  0.00     0.053 C 
ATOM     27  C22 <0> d         -11.305  -2.790   0.332  0.00  0.00     0.178 C 
ATOM     28  O5  <0> d         -10.280  -3.653  -0.168  0.00  0.00    -0.348 OA
ATOM     29  C5  <0> d          -8.266  -2.843  -1.155  0.00  0.00     0.049 A 
ENDBRANCH  18  19
BRANCH  18  30
ATOM     30  O4  <0> d          -5.457  -2.342  -3.370  0.00  0.00    -0.389 OA
ATOM     31  H23 <0> d          -4.383  -2.133  -3.476  0.00  0.00     0.210 HD
ENDBRANCH  18  30
ENDBRANCH  17  18
ENDBRANCH   1  17
BRANCH   8  32
ATOM     32  O3  <0> d           1.030   1.476   0.974  0.00  0.00    -0.391 OA
ATOM     33  H22 <0> d           1.590   1.222   1.886  0.00  0.00     0.210 HD
ENDBRANCH   8  32
BRANCH  11  34
ATOM     34  O2  <0> d          -0.914   2.032   5.525  0.00  0.00    -0.361 OA
ATOM     35  H21 <0> d          -1.521   2.412   6.360  0.00  0.00     0.217 HD
ENDBRANCH  11  34
TORSDOF 6
