REMARK  2 active torsions:
REMARK  status: ('A' for Active; 'I' for Inactive)
REMARK    1  A    between atoms: C5_7  and  N2_9 
REMARK    2  A    between atoms: C11_14  and  C12_15 
ROOT
ATOM      1  N2  <0> d           0.084  -2.534  -1.498  0.00  0.00    -0.052 N 
ATOM      2  C7  <0> d          -1.382  -2.522  -1.425  0.00  0.00     0.236 C 
ATOM      3  C8  <0> d          -1.946  -3.700  -2.222  0.00  0.00     0.028 C 
ATOM      4  C9  <0> d          -1.506  -3.578  -3.684  0.00  0.00     0.004 C 
ATOM      5  C10 <0> d           0.024  -3.517  -3.742  0.00  0.00     0.035 C 
ATOM      6  C11 <0> d           0.515  -2.346  -2.889  0.00  0.00     0.222 C 
ATOM      7  H28 <0> d           0.428  -3.420  -1.158  0.00  0.00     0.281 HD
ENDROOT
BRANCH   1   8
ATOM      8  C5  <0> d           0.623  -1.449  -0.668  0.00  0.00     0.279 C 
ATOM      9  C4  <0> d           0.321  -1.724   0.789  0.00  0.00     0.248 C 
ATOM     10  N1  <0> d           0.901  -0.996   1.744  0.00  0.00    -0.359 N 
ATOM     11  O1  <0> d          -0.452  -2.610   1.089  0.00  0.00    -0.271 OA
ATOM     12  C3  <0> d           1.845   0.077   1.394  0.00  0.00     0.122 C 
ATOM     13  H10 <0> d           0.699  -1.175   2.676  0.00  0.00     0.162 HD
ATOM     14  C2  <0> d           1.059   1.242   0.789  0.00  0.00     0.020 C 
ATOM     15  C1  <0> d           0.866   1.048  -0.703  0.00  0.00     0.004 C 
ATOM     16  C6  <0> d          -0.034  -0.121  -1.058  0.00  0.00     0.043 C 
ENDBRANCH   1   8
BRANCH   6  17
ATOM     17  C12 <0> d           2.042  -2.281  -2.944  0.00  0.00     0.251 C 
ATOM     18  N3  <0> d           2.508  -2.584  -4.310  0.00  0.00     0.090 N 
ATOM     19  C15 <0> d           3.227  -1.398  -4.832  0.00  0.00     0.270 C 
ATOM     20  H27 <0> d           3.100  -3.401  -4.317  0.00  0.00     0.316 HD
ATOM     21  C14 <0> d           3.712  -0.641  -3.571  0.00  0.00     0.032 C 
ATOM     22  C13 <0> d           2.520  -0.854  -2.600  0.00  0.00     0.039 C 
ENDBRANCH   6  17
TORSDOF 2
