REMARK  3 active torsions:
REMARK  status: ('A' for Active; 'I' for Inactive)
REMARK    1  A    between atoms: C5_5  and  C7_7 
REMARK    2  A    between atoms: C7_7  and  C8_8 
REMARK    3  A    between atoms: C7_7  and  N2_19 
ROOT
ATOM      1  C7  <0> d           1.229  -2.186  -0.022  0.00  0.00     0.250 C 
ENDROOT
BRANCH   1   2
ATOM      2  C5  <0> d           1.208  -0.679  -0.013  0.00  0.00    -0.007 A 
ATOM      3  C4  <0> d           2.396   0.029  -0.021  0.00  0.00     0.015 A 
ATOM      4  C3  <0> d           2.377   1.411  -0.013  0.00  0.00     0.019 A 
ATOM      5  I1  <0> d           4.225  -0.994  -0.044  0.00  0.00    -0.044 I 
ATOM      6  C2  <0> d           1.171   2.086   0.002  0.00  0.00     0.001 A 
ATOM      7  C1  <0> d          -0.017   1.378   0.010  0.00  0.00     0.001 A 
ATOM      8  C6  <0> d           0.002  -0.004   0.002  0.00  0.00     0.011 A 
ENDBRANCH   1   2
BRANCH   1   9
ATOM      9  C8  <0> d           1.373  -2.695   1.389  0.00  0.00    -0.021 A 
ATOM     10  C13 <0> d           2.609  -3.106   1.849  0.00  0.00     0.049 A 
ATOM     11  C12 <0> d           2.745  -3.570   3.148  0.00  0.00     0.108 A 
ATOM     12  C11 <0> d           1.628  -3.627   3.981  0.00  0.00     0.071 A 
ATOM     13  O1  <0> d           3.804  -4.025   3.861  0.00  0.00    -0.259 OA
ATOM     14  C10 <0> d           0.390  -3.218   3.512  0.00  0.00     0.033 A 
ATOM     15  N1  <0> d           2.069  -4.132   5.204  0.00  0.00    -0.300 N 
ATOM     16  C9  <0> d           0.266  -2.753   2.217  0.00  0.00     0.012 A 
ATOM     17  C14 <0> d           3.393  -4.361   5.094  0.00  0.00     0.370 A 
ATOM     18  H2  <0> d           1.524  -4.289   5.991  0.00  0.00     0.171 HD
ATOM     19  O2  <0> d           4.105  -4.803   5.975  0.00  0.00    -0.238 OA
ENDBRANCH   1   9
BRANCH   1  20
ATOM     20  N2  <0> d          -0.025  -2.689  -0.598  0.00  0.00    -0.067 N 
ATOM     21  H10 <0> d          -0.804  -2.367  -0.043  0.00  0.00     0.275 HD
ATOM     22  H11 <0> d          -0.122  -2.349  -1.543  0.00  0.00     0.275 HD
ATOM     23  H12 <0> d          -0.012  -3.698  -0.604  0.00  0.00     0.275 HD
ENDBRANCH   1  20
TORSDOF 3
