REMARK  5 active torsions:
REMARK  status: ('A' for Active; 'I' for Inactive)
REMARK    1  A    between atoms: C2_2  and  C4_4 
REMARK    2  A    between atoms: C11_12  and  N1_15 
REMARK    3  A    between atoms: C12_13  and  O2_14 
REMARK    4  A    between atoms: N1_15  and  C14_17 
REMARK    5  A    between atoms: C14_17  and  C15_18 
ROOT
ATOM      1  C4  <0> d          -1.412  -0.526   0.013  0.00  0.00    -0.021 A 
ATOM      2  C5  <0> d          -2.256  -0.203   1.056  0.00  0.00     0.010 A 
ATOM      3  C6  <0> d          -3.553  -0.680   1.067  0.00  0.00     0.001 A 
ATOM      4  C7  <0> d          -4.005  -1.478   0.033  0.00  0.00     0.012 A 
ATOM      5  C8  <0> d          -3.162  -1.804  -1.017  0.00  0.00     0.006 A 
ATOM      6  C9  <0> d          -1.863  -1.326  -1.032  0.00  0.00     0.084 A 
ATOM      7  O1  <0> d          -1.002  -1.626  -2.038  0.00  0.00    -0.348 OA
ATOM      8  C10 <0> d          -1.550  -2.118  -3.262  0.00  0.00     0.212 C 
ATOM      9  C11 <0> d          -2.529  -3.252  -2.932  0.00  0.00     0.245 C 
ATOM     10  C12 <0> d          -3.692  -2.673  -2.129  0.00  0.00     0.187 C 
ENDROOT
BRANCH   9  11
ATOM     11  N1  <0> d          -3.031  -3.851  -4.176  0.00  0.00    -0.056 N 
ATOM     12  C13 <0> d          -1.904  -4.390  -4.949  0.00  0.00     0.271 C 
ATOM     13  H21 <0> d          -3.505  -3.146  -4.721  0.00  0.00     0.280 HD
BRANCH  11  14
ATOM     14  C14 <0> d          -3.968  -4.935  -3.855  0.00  0.00     0.347 C 
BRANCH  14  15
ATOM     15  C15 <0> d          -4.575  -5.468  -5.127  0.00  0.00     0.199 C 
ATOM     16  O3  <0> d          -4.257  -4.988  -6.202  0.00  0.00    -0.647 OA
ATOM     17  O4  <0> d          -5.385  -6.378  -5.082  0.00  0.00    -0.647 OA
ENDBRANCH  14  15
ENDBRANCH  11  14
ENDBRANCH   9  11
BRANCH  10  18
ATOM     18  O2  <0> d          -4.506  -1.885  -3.001  0.00  0.00    -0.389 OA
ATOM     19  H15 <0> d          -5.269  -1.480  -2.567  0.00  0.00     0.210 HD
ENDBRANCH  10  18
BRANCH   1  20
ATOM     20  C2  <0> d           0.002  -0.004   0.002  0.00  0.00     0.013 C 
ATOM     21  C1  <0> d          -0.019   1.526   0.010  0.00  0.00     0.015 C 
ATOM     22  C3  <0> d           0.742  -0.511   1.242  0.00  0.00     0.015 C 
ENDBRANCH   1  20
TORSDOF 5
