REMARK  4 active torsions:
REMARK  status: ('A' for Active; 'I' for Inactive)
REMARK    1  A    between atoms: C2_2  and  C3_3 
REMARK    2  A    between atoms: C2_2  and  N2_21 
REMARK    3  A    between atoms: C8_8  and  O1_9 
REMARK    4  A    between atoms: O1_9  and  C9_10 
ROOT
ATOM      1  O1  <0> d           0.243  -0.030   2.369  0.00  0.00    -0.310 OA
ENDROOT
BRANCH   1   2
ATOM      2  C8  <0> d          -0.172  -0.650   1.233  0.00  0.00     0.084 A 
ATOM      3  C3  <0> d          -0.206   0.047   0.034  0.00  0.00     0.005 A 
ATOM      4  C4  <0> d          -0.624  -0.586  -1.121  0.00  0.00     0.012 A 
ATOM      5  C5  <0> d          -1.014  -1.912  -1.081  0.00  0.00     0.001 A 
ATOM      6  C6  <0> d          -0.987  -2.607   0.114  0.00  0.00     0.003 A 
ATOM      7  C7  <0> d          -0.569  -1.979   1.271  0.00  0.00     0.038 A 
BRANCH   3   8
ATOM      8  C2  <0> d           0.219   1.492  -0.011  0.00  0.00     0.215 C 
ATOM      9  C1  <0> d           1.739   1.573  -0.169  0.00  0.00     0.045 C 
BRANCH   8  10
ATOM     10  N2  <0> d          -0.428   2.159  -1.149  0.00  0.00    -0.071 N 
ATOM     11  H17 <0> d          -1.520   2.101  -1.035  0.00  0.00     0.275 HD
ATOM     12  H18 <0> d          -0.130   1.660  -2.083  0.00  0.00     0.275 HD
ATOM     13  H19 <0> d          -0.117   3.213  -1.181  0.00  0.00     0.275 HD
ENDBRANCH   8  10
ENDBRANCH   3   8
ENDBRANCH   1   2
BRANCH   1  14
ATOM     14  C9  <0> d           0.266  -0.755   3.519  0.00  0.00     0.076 A 
ATOM     15  C14 <0> d          -0.852  -0.786   4.341  0.00  0.00     0.046 A 
ATOM     16  C13 <0> d          -0.831  -1.525   5.506  0.00  0.00    -0.028 A 
ATOM     17  C12 <0> d           0.312  -2.230   5.862  0.00  0.00     0.041 A 
ATOM     18  C15 <0> d          -2.044  -1.566   6.398  0.00  0.00     0.050 C 
ATOM     19  C11 <0> d           1.432  -2.194   5.042  0.00  0.00     0.033 A 
ATOM     20  N1  <0> d           0.332  -2.974   7.047  0.00  0.00    -0.327 N 
ATOM     21  C10 <0> d           1.408  -1.458   3.873  0.00  0.00     0.039 A 
ATOM     22  C17 <0> d          -0.817  -3.324   7.653  0.00  0.00     0.222 C 
ATOM     23  H16 <0> d           1.293  -3.277   7.490  0.00  0.00     0.169 HD
ATOM     24  C16 <0> d          -2.147  -2.940   7.061  0.00  0.00     0.108 C 
ATOM     25  O2  <0> d          -0.782  -3.955   8.688  0.00  0.00    -0.273 OA
ENDBRANCH   1  14
TORSDOF 4
