REMARK  3 active torsions:
REMARK  status: ('A' for Active; 'I' for Inactive)
REMARK    1  A    between atoms: C4_4  and  C7_10 
REMARK    2  A    between atoms: C5_6  and  S1_8 
REMARK       I    between atoms: C7_10  and  N3_12 
REMARK    3  A    between atoms: N3_12  and  C8_13 
ROOT
ATOM      1  C7  <0> d           0.192  -2.891  -2.426  0.00  0.00     0.275 C 
ATOM      2  O1  <0> d           0.330  -2.342  -3.501  0.00  0.00    -0.266 OA
ATOM      3  N3  <0> d           0.048  -4.230  -2.367  0.00  0.00    -0.322 N 
ATOM      4  H8  <0> d           0.015  -4.677  -1.506  0.00  0.00     0.169 HD
ENDROOT
BRANCH   3   5
ATOM      5  C8  <0> d          -0.054  -4.975  -3.546  0.00  0.00     0.036 A 
ATOM      6  C13 <0> d          -0.672  -4.434  -4.666  0.00  0.00     0.051 A 
ATOM      7  C12 <0> d          -0.755  -5.183  -5.814  0.00  0.00     0.037 A 
ATOM      8  C11 <0> d          -0.242  -6.497  -5.899  0.00  0.00     0.075 A 
ATOM      9  S2  <0> d          -1.419  -4.941  -7.441  0.00  0.00    -0.073 SA
ATOM     10  C10 <0> d           0.374  -7.016  -4.741  0.00  0.00     0.035 A 
ATOM     11  N4  <0> d          -0.427  -7.066  -7.109  0.00  0.00    -0.245 NA
ATOM     12  C9  <0> d           0.460  -6.270  -3.607  0.00  0.00     0.032 A 
ATOM     13  C14 <0> d          -1.022  -6.444  -8.084  0.00  0.00     0.072 A 
ATOM     14  C15 <0> d          -1.294  -6.955  -9.476  0.00  0.00     0.079 C 
ENDBRANCH   3   5
BRANCH   1  15
ATOM     15  C4  <0> d           0.182  -2.088  -1.178  0.00  0.00     0.129 A 
ATOM     16  C3  <0> d           0.330  -0.702  -1.226  0.00  0.00     0.064 A 
ATOM     17  C2  <0> d           0.314   0.007  -0.033  0.00  0.00     0.036 A 
ATOM     18  C1  <0> d           0.471   1.506  -0.035  0.00  0.00     0.070 C 
ATOM     19  N2  <0> d           0.166  -0.647   1.105  0.00  0.00    -0.228 NA
ATOM     20  C5  <0> d           0.021  -1.966   1.119  0.00  0.00     0.189 A 
ATOM     21  N1  <0> d           0.031  -2.679   0.005  0.00  0.00    -0.217 NA
BRANCH  20  22
ATOM     22  S1  <0> d          -0.181  -2.790   2.664  0.00  0.00    -0.095 SA
ATOM     23  C6  <0> d          -0.329  -4.540   2.211  0.00  0.00     0.099 C 
ENDBRANCH  20  22
ENDBRANCH   1  15
TORSDOF 3
