REMARK  7 active torsions:
REMARK  status: ('A' for Active; 'I' for Inactive)
REMARK    1  A    between atoms: C8_9  and  S1_25 
REMARK    2  A    between atoms: C9_10  and  N5_24 
REMARK    3  A    between atoms: N2_11  and  N4_14 
REMARK    4  A    between atoms: C11_15  and  C12_16 
REMARK    5  A    between atoms: C15_19  and  O2_23 
REMARK    6  A    between atoms: C16_20  and  O1_22 
REMARK    7  A    between atoms: S1_25  and  C18_28 
ROOT
ATOM      1  C1  <0> d          -1.249   3.387   0.032  0.00  0.00     0.002 A 
ATOM      2  C2  <0> d          -0.057   4.110   0.025  0.00  0.00     0.002 A 
ATOM      3  C3  <0> d           1.146   3.475   0.010  0.00  0.00     0.034 A 
ATOM      4  C4  <0> d           1.196   2.069   0.002  0.00  0.00     0.088 A 
ATOM      5  C5  <0> d          -0.016   1.333   0.009  0.00  0.00     0.086 A 
ATOM      6  C6  <0> d          -1.242   2.027   0.019  0.00  0.00     0.034 A 
ATOM      7  N1  <0> d           0.002  -0.004   0.002  0.00  0.00    -0.241 NA
ATOM      8  C7  <0> d           1.162  -0.642  -0.013  0.00  0.00     0.131 A 
ATOM      9  C8  <0> d           1.539  -2.006  -0.024  0.00  0.00     0.142 A 
ATOM     10  C9  <0> d           2.891  -2.069  -0.037  0.00  0.00     0.149 A 
ATOM     11  N2  <0> d           3.435  -0.807  -0.035  0.00  0.00    -0.196 N 
ATOM     12  C10 <0> d           2.415   0.123  -0.020  0.00  0.00     0.184 A 
ATOM     13  N3  <0> d           2.377   1.437  -0.013  0.00  0.00    -0.225 NA
ENDROOT
BRANCH  11  14
ATOM     14  N4  <0> d           4.805  -0.512  -0.046  0.00  0.00    -0.176 NA
ATOM     15  C11 <0> d           5.450  -0.381   1.072  0.00  0.00     0.150 C 
BRANCH  15  16
ATOM     16  C12 <0> d           6.891  -0.070   1.061  0.00  0.00    -0.014 A 
ATOM     17  C17 <0> d           7.587   0.071   2.264  0.00  0.00     0.052 A 
ATOM     18  C16 <0> d           8.938   0.362   2.247  0.00  0.00     0.099 A 
ATOM     19  C15 <0> d           9.603   0.514   1.033  0.00  0.00     0.098 A 
ATOM     20  C14 <0> d           8.912   0.374  -0.162  0.00  0.00     0.040 A 
ATOM     21  C13 <0> d           7.565   0.078  -0.154  0.00  0.00     0.016 A 
BRANCH  18  22
ATOM     22  O1  <0> d           9.618   0.500   3.417  0.00  0.00    -0.358 OA
ATOM     23  H9  <0> d          10.001  -0.324   3.749  0.00  0.00     0.217 HD
ENDBRANCH  18  22
BRANCH  19  24
ATOM     24  O2  <0> d          10.932   0.800   1.018  0.00  0.00    -0.358 OA
ATOM     25  H10 <0> d          11.502   0.019   1.008  0.00  0.00     0.217 HD
ENDBRANCH  19  24
ENDBRANCH  15  16
ENDBRANCH  11  14
BRANCH  10  26
ATOM     26  N5  <0> d           3.625  -3.243  -0.050  0.00  0.00    -0.383 N 
ATOM     27  H11 <0> d           4.594  -3.208  -0.059  0.00  0.00     0.157 HD
ATOM     28  H12 <0> d           3.170  -4.099  -0.051  0.00  0.00     0.157 HD
ENDBRANCH  10  26
BRANCH   9  29
ATOM     29  S1  <0> d           0.440  -3.384  -0.020  0.00  0.00     0.219 S 
ATOM     30  O3  <0> d           1.165  -4.481   0.517  0.00  0.00    -0.216 OA
ATOM     31  O4  <0> d          -0.782  -2.927   0.545  0.00  0.00    -0.216 OA
BRANCH  29  32
ATOM     32  C18 <0> d           0.098  -3.781  -1.703  0.00  0.00     0.104 A 
ATOM     33  S2  <0> d          -1.203  -3.170  -2.761  0.00  0.00    -0.090 SA
ATOM     34  C21 <0> d          -0.782  -4.088  -4.233  0.00  0.00     0.051 A 
ATOM     35  C20 <0> d           0.305  -4.788  -3.826  0.00  0.00     0.009 A 
ATOM     36  C19 <0> d           0.759  -4.627  -2.531  0.00  0.00     0.032 A 
ENDBRANCH  29  32
ENDBRANCH   9  29
TORSDOF 7
