REMARK  4 active torsions:
REMARK  status: ('A' for Active; 'I' for Inactive)
REMARK    1  A    between atoms: C2_2  and  C3_3 
REMARK    2  A    between atoms: C3_3  and  C4_4 
REMARK    3  A    between atoms: C4_4  and  C8_9 
REMARK    4  A    between atoms: N4_13  and  C10_14 
ROOT
ATOM      1  C4  <0> d           0.842  -2.009  -1.197  0.00  0.00     0.048 C 
ATOM      2  C5  <0> d          -0.455  -2.812  -1.447  0.00  0.00     0.046 C 
ATOM      3  C6  <0> d          -0.416  -3.067  -2.975  0.00  0.00     0.233 C 
ATOM      4  N1  <0> d           1.026  -3.304  -3.243  0.00  0.00    -0.074 N 
ATOM      5  C7  <0> d           1.758  -2.343  -2.389  0.00  0.00     0.249 C 
ATOM      6  H12 <0> d           1.275  -4.250  -2.994  0.00  0.00     0.277 HD
ATOM      7  H21 <0> d           1.232  -3.132  -4.215  0.00  0.00     0.277 HD
ENDROOT
BRANCH   1   8
ATOM      8  C3  <0> d           0.540  -0.509  -1.163  0.00  0.00     0.019 C 
BRANCH   8   9
ATOM      9  C2  <0> d          -0.313  -0.189   0.066  0.00  0.00    -0.003 C 
ATOM     10  C1  <0> d          -0.542   1.322   0.147  0.00  0.00     0.005 C 
ENDBRANCH   8   9
ENDBRANCH   1   8
BRANCH   1  11
ATOM     11  C8  <0> d           1.486  -2.441   0.095  0.00  0.00     0.140 A 
ATOM     12  N4  <0> d           2.679  -2.017   0.578  0.00  0.00    -0.321 N 
ATOM     13  C9  <0> d           2.856  -2.662   1.757  0.00  0.00     0.236 A 
ATOM     14  N3  <0> d           1.815  -3.429   1.940  0.00  0.00    -0.143 NA
ATOM     15  N2  <0> d           1.002  -3.297   0.952  0.00  0.00    -0.135 NA
BRANCH  12  16
ATOM     16  C10 <0> d           3.591  -1.055  -0.045  0.00  0.00     0.092 A 
ATOM     17  C12 <0> d           3.821   0.273   0.680  0.00  0.00     0.028 A 
ATOM     18  C11 <0> d           4.924  -0.788   0.657  0.00  0.00     0.028 A 
ENDBRANCH  12  16
ENDBRANCH   1  11
TORSDOF 4
