REMARK  6 active torsions:
REMARK  status: ('A' for Active; 'I' for Inactive)
REMARK    1  A    between atoms: O1_2  and  C2_3 
REMARK    2  A    between atoms: C4_5  and  C10_13 
REMARK    3  A    between atoms: C5_6  and  O3_11 
REMARK    4  A    between atoms: C7_8  and  O2_9 
REMARK    5  A    between atoms: C10_13  and  C15_19 
REMARK    6  A    between atoms: C15_19  and  N1_20 
ROOT
ATOM      1  C2  <0> d          -1.202  -0.657   0.094  0.00  0.00     0.102 A 
ATOM      2  C3  <0> d          -2.372   0.083   0.111  0.00  0.00     0.050 A 
ATOM      3  C4  <0> d          -3.596  -0.555   0.020  0.00  0.00    -0.011 A 
ATOM      4  C5  <0> d          -3.653  -1.937  -0.087  0.00  0.00     0.078 A 
ATOM      5  C6  <0> d          -2.484  -2.681  -0.104  0.00  0.00     0.077 A 
ATOM      6  C7  <0> d          -1.257  -2.043  -0.019  0.00  0.00     0.104 A 
ENDROOT
BRANCH   3   7
ATOM      7  C10 <0> d          -4.868   0.252   0.038  0.00  0.00     0.017 C 
ATOM      8  C14 <0> d          -5.733  -0.181   1.226  0.00  0.00     0.042 C 
ATOM      9  C13 <0> d          -6.986   0.697   1.283  0.00  0.00     0.168 C 
ATOM     10  O4  <0> d          -6.600   2.069   1.386  0.00  0.00    -0.391 OA
ATOM     11  C12 <0> d          -5.829   2.543   0.281  0.00  0.00     0.168 C 
ATOM     12  C11 <0> d          -4.530   1.739   0.184  0.00  0.00     0.042 C 
BRANCH   7  13
ATOM     13  C15 <0> d          -5.637   0.025  -1.265  0.00  0.00     0.244 C 
BRANCH  13  14
ATOM     14  N1  <0> d          -4.764   0.327  -2.407  0.00  0.00    -0.078 N 
ATOM     15  H22 <0> d          -5.293   0.251  -3.263  0.00  0.00     0.274 HD
ATOM     16  H23 <0> d          -4.404   1.265  -2.317  0.00  0.00     0.274 HD
ATOM     17  H24 <0> d          -3.997  -0.328  -2.426  0.00  0.00     0.274 HD
ENDBRANCH  13  14
ENDBRANCH   7  13
ENDBRANCH   3   7
BRANCH   4  18
ATOM     18  O3  <0> d          -4.858  -2.561  -0.176  0.00  0.00    -0.355 OA
ATOM     19  C9  <0> d          -4.843  -3.986  -0.284  0.00  0.00     0.210 C 
ENDBRANCH   4  18
BRANCH   1  20
ATOM     20  O1  <0> d           0.002  -0.029   0.183  0.00  0.00    -0.353 OA
ATOM     21  C1  <0> d          -0.016   1.395   0.298  0.00  0.00     0.210 C 
ENDBRANCH   1  20
BRANCH   6  22
ATOM     22  O2  <0> d          -0.108  -2.771  -0.042  0.00  0.00    -0.353 OA
ATOM     23  C8  <0> d          -0.240  -4.189  -0.160  0.00  0.00     0.210 C 
ENDBRANCH   6  22
TORSDOF 6
