REMARK  6 active torsions:
REMARK  status: ('A' for Active; 'I' for Inactive)
REMARK    1  A    between atoms: C4_4  and  C7_7 
REMARK    2  A    between atoms: C7_7  and  N1_8 
REMARK    3  A    between atoms: C11_13  and  C12_15 
REMARK       I    between atoms: C12_15  and  N3_17 
REMARK    4  A    between atoms: N3_17  and  C13_18 
REMARK    5  A    between atoms: C13_18  and  C14_19 
REMARK    6  A    between atoms: C18_24  and  N5_25 
ROOT
ATOM      1  C12 <0> d           6.474   0.693   3.693  0.00  0.00     0.268 C 
ATOM      2  O2  <0> d           7.137   0.401   4.670  0.00  0.00    -0.266 OA
ATOM      3  N3  <0> d           6.495   1.953   3.216  0.00  0.00    -0.351 N 
ATOM      4  H12 <0> d           5.967   2.186   2.437  0.00  0.00     0.163 HD
ENDROOT
BRANCH   1   5
ATOM      5  C11 <0> d           5.652  -0.328   3.033  0.00  0.00     0.122 C 
ATOM      6  C10 <0> d           5.636  -1.732   3.574  0.00  0.00     0.076 C 
ATOM      7  C9  <0> d           4.247  -2.342   3.379  0.00  0.00     0.111 C 
ATOM      8  C8  <0> d           3.787  -2.088   1.966  0.00  0.00     0.240 C 
ATOM      9  N1  <0> d           4.152  -0.952   1.338  0.00  0.00    -0.234 N 
ATOM     10  O1  <0> d           3.092  -2.902   1.396  0.00  0.00    -0.272 OA
ATOM     11  N2  <0> d           4.953  -0.009   1.990  0.00  0.00    -0.169 NA
BRANCH   9  12
ATOM     12  C7  <0> d           3.711  -0.707  -0.038  0.00  0.00     0.193 C 
BRANCH  12  13
ATOM     13  C4  <0> d           2.396   0.029  -0.020  0.00  0.00    -0.038 A 
ATOM     14  C3  <0> d           2.377   1.411  -0.013  0.00  0.00     0.009 A 
ATOM     15  C2  <0> d           1.171   2.086   0.002  0.00  0.00     0.001 A 
ATOM     16  C1  <0> d          -0.017   1.378   0.010  0.00  0.00     0.000 A 
ATOM     17  C6  <0> d           0.002  -0.004   0.002  0.00  0.00     0.001 A 
ATOM     18  C5  <0> d           1.208  -0.679  -0.012  0.00  0.00     0.009 A 
ENDBRANCH  12  13
ENDBRANCH   9  12
ENDBRANCH   1   5
BRANCH   3  19
ATOM     19  C13 <0> d           7.317   2.972   3.875  0.00  0.00     0.165 C 
BRANCH  19  20
ATOM     20  C14 <0> d           7.164   4.285   3.152  0.00  0.00     0.007 A 
ATOM     21  C18 <0> d           6.054   5.089   3.378  0.00  0.00     0.158 A 
ATOM     22  N4  <0> d           5.919   6.245   2.750  0.00  0.00    -0.241 NA
ATOM     23  C17 <0> d           6.818   6.671   1.884  0.00  0.00     0.119 A 
ATOM     24  C16 <0> d           7.944   5.920   1.605  0.00  0.00     0.020 A 
ATOM     25  C15 <0> d           8.126   4.704   2.248  0.00  0.00     0.014 A 
BRANCH  21  26
ATOM     26  N5  <0> d           5.072   4.674   4.284  0.00  0.00    -0.227 N 
ATOM     27  N6  <0> d           4.793   3.351   4.650  0.00  0.00    -0.179 NA
ATOM     28  C21 <0> d           3.814   3.364   5.518  0.00  0.00     0.141 A 
ATOM     29  C20 <0> d           3.429   4.693   5.729  0.00  0.00     0.040 A 
ATOM     30  C19 <0> d           4.215   5.482   4.961  0.00  0.00     0.122 A 
ENDBRANCH  21  26
ENDBRANCH  19  20
ENDBRANCH   3  19
TORSDOF 6
