REMARK  5 active torsions:
REMARK  status: ('A' for Active; 'I' for Inactive)
REMARK    1  A    between atoms: C5_5  and  S1_8 
REMARK    2  A    between atoms: S1_8  and  C8_9 
REMARK    3  A    between atoms: C9_10  and  N4_27 
REMARK    4  A    between atoms: C10_11  and  O1_15 
REMARK    5  A    between atoms: O1_15  and  C12_16 
ROOT
ATOM      1  C8  <0> d           0.285  -4.956   1.679  0.00  0.00     0.130 A 
ATOM      2  C9  <0> d           0.416  -6.295   2.058  0.00  0.00     0.116 A 
ATOM      3  C10 <0> d           0.549  -6.585   3.415  0.00  0.00     0.201 A 
ATOM      4  N1  <0> d           0.548  -5.585   4.291  0.00  0.00    -0.215 NA
ATOM      5  C11 <0> d           0.423  -4.335   3.893  0.00  0.00     0.237 A 
ATOM      6  N2  <0> d           0.299  -4.016   2.621  0.00  0.00    -0.232 NA
ENDROOT
BRANCH   3   7
ATOM      7  O1  <0> d           0.679  -7.868   3.836  0.00  0.00    -0.288 OA
BRANCH   7   8
ATOM      8  C12 <0> d           0.692  -8.103   5.174  0.00  0.00     0.107 A 
ATOM      9  C17 <0> d          -0.519  -8.168   5.895  0.00  0.00     0.102 A 
ATOM     10  C16 <0> d          -0.477  -8.419   7.288  0.00  0.00     0.013 A 
ATOM     11  N3  <0> d          -1.695  -8.003   5.283  0.00  0.00    -0.257 NA
ATOM     12  C15 <0> d           0.762  -8.587   7.929  0.00  0.00     0.023 A 
ATOM     13  C20 <0> d          -1.687  -8.490   8.005  0.00  0.00     0.017 A 
ATOM     14  C14 <0> d           1.915  -8.513   7.207  0.00  0.00     0.023 A 
ATOM     15 Br1  <0> d           0.829  -8.917   9.790  0.00  0.00    -0.050 Br
ATOM     16  C13 <0> d           1.886  -8.272   5.836  0.00  0.00     0.041 A 
ATOM     17  C19 <0> d          -2.853  -8.300   7.321  0.00  0.00     0.020 A 
ATOM     18  C18 <0> d          -2.824  -8.063   5.948  0.00  0.00     0.117 A 
ENDBRANCH   7   8
ENDBRANCH   3   7
BRANCH   2  19
ATOM     19  N4  <0> d           0.411  -7.320   1.100  0.00  0.00    -0.393 N 
ATOM     20  H14 <0> d           0.317  -7.103   0.159  0.00  0.00     0.156 HD
ATOM     21  H15 <0> d           0.503  -8.245   1.378  0.00  0.00     0.156 HD
ENDBRANCH   2  19
BRANCH   1  22
ATOM     22  S1  <0> d           0.113  -4.520  -0.019  0.00  0.00    -0.068 SA
BRANCH  22  23
ATOM     23  C5  <0> d           0.113  -2.758  -0.009  0.00  0.00     0.007 A 
ATOM     24  C4  <0> d           1.316  -2.061  -0.024  0.00  0.00     0.019 A 
ATOM     25  C3  <0> d           1.312  -0.681  -0.016  0.00  0.00     0.008 A 
ATOM     26  C2  <0> d           0.114   0.009   0.006  0.00  0.00    -0.062 A 
ATOM     27  C1  <0> d           0.114   1.516   0.015  0.00  0.00     0.048 C 
ATOM     28  C7  <0> d          -1.085  -0.681   0.027  0.00  0.00     0.008 A 
ATOM     29  C6  <0> d          -1.089  -2.061   0.014  0.00  0.00     0.019 A 
ENDBRANCH  22  23
ENDBRANCH   1  22
TORSDOF 5
