REMARK  2 active torsions:
REMARK  status: ('A' for Active; 'I' for Inactive)
REMARK    1  A    between atoms: C6_7  and  C7_9 
REMARK    2  A    between atoms: C13_17  and  N2_19 
ROOT
ATOM      1  C1  <0> d          -0.019   1.526   0.010  0.00  0.00     0.015 C 
ATOM      2  C2  <0> d           0.002  -0.004   0.002  0.00  0.00    -0.040 C 
ATOM      3  C3  <0> d           0.704  -0.495  -1.265  0.00  0.00     0.069 C 
ATOM      4  C4  <0> d           2.178  -0.108  -1.192  0.00  0.00     0.051 A 
ATOM      5  C5  <0> d           2.740   0.208   0.009  0.00  0.00     0.040 A 
ATOM      6  S1  <0> d           4.419   0.575  -0.428  0.00  0.00    -0.070 SA
ATOM      7  C6  <0> d           4.243   0.277  -2.184  0.00  0.00     0.108 A 
ATOM      8  N1  <0> d           2.966  -0.060  -2.258  0.00  0.00    -0.244 NA
ATOM      9  C13 <0> d           2.086   0.231   1.349  0.00  0.00     0.226 C 
ATOM     10  C14 <0> d           0.743  -0.509   1.244  0.00  0.00     0.047 C 
ATOM     11  C15 <0> d          -1.434  -0.531   0.020  0.00  0.00     0.015 C 
ENDROOT
BRANCH   7  12
ATOM     12  C7  <0> d           5.251   0.381  -3.260  0.00  0.00     0.003 A 
ATOM     13  C12 <0> d           4.898   0.100  -4.580  0.00  0.00     0.038 A 
ATOM     14  C11 <0> d           5.843   0.204  -5.582  0.00  0.00     0.036 A 
ATOM     15  C10 <0> d           7.142   0.574  -5.277  0.00  0.00     0.047 A 
ATOM     16 Cl1  <0> d           5.403  -0.137  -7.226  0.00  0.00    -0.084 Cl
ATOM     17  C9  <0> d           7.500   0.848  -3.968  0.00  0.00     0.036 A 
ATOM     18  C8  <0> d           6.562   0.753  -2.958  0.00  0.00     0.038 A 
ATOM     19 Cl2  <0> d           9.130   1.312  -3.594  0.00  0.00    -0.084 Cl
ENDBRANCH   7  12
BRANCH   9  20
ATOM     20  N2  <0> d           2.947  -0.441   2.332  0.00  0.00    -0.070 N 
ATOM     21  H12 <0> d           3.834   0.037   2.384  0.00  0.00     0.275 HD
ATOM     22  H13 <0> d           2.501  -0.423   3.237  0.00  0.00     0.275 HD
ATOM     23  H17 <0> d           3.096  -1.398   2.050  0.00  0.00     0.275 HD
ENDBRANCH   9  20
TORSDOF 2
