REMARK  2 active torsions:
REMARK  status: ('A' for Active; 'I' for Inactive)
REMARK    1  A    between atoms: C6_9  and  S2_11 
REMARK    2  A    between atoms: S2_11  and  C7_12 
ROOT
ATOM      1  C1  <0> d          -0.018   1.448   0.010  0.00  0.00     0.027 A 
ATOM      2  C2  <0> d           1.145   2.118   0.003  0.00  0.00     0.053 A 
ATOM      3  S1  <0> d           2.366   0.818  -0.016  0.00  0.00    -0.083 SA
ATOM      4  C3  <0> d           1.276  -0.580  -0.013  0.00  0.00     0.091 A 
ATOM      5  C4  <0> d           0.002  -0.004   0.002  0.00  0.00     0.068 A 
ATOM      6  C5  <0> d          -1.127  -0.965   0.007  0.00  0.00     0.282 A 
ATOM      7  O1  <0> d          -2.279  -0.561   0.020  0.00  0.00    -0.265 OA
ATOM      8  N1  <0> d          -0.871  -2.276  -0.003  0.00  0.00    -0.185 NA
ATOM      9  C6  <0> d           0.355  -2.755  -0.017  0.00  0.00     0.171 A 
ATOM     10  N2  <0> d           1.441  -1.931  -0.022  0.00  0.00    -0.329 N 
ATOM     11  H14 <0> d           2.334  -2.308  -0.033  0.00  0.00     0.168 HD
ENDROOT
BRANCH   9  12
ATOM     12  S2  <0> d           0.598  -4.500  -0.029  0.00  0.00    -0.087 SA
BRANCH  12  13
ATOM     13  C7  <0> d          -1.085  -5.178  -0.016  0.00  0.00     0.058 C 
ATOM     14  C11 <0> d          -1.022  -6.703   0.101  0.00  0.00     0.043 C 
ATOM     15  C10 <0> d          -2.440  -7.274   0.031  0.00  0.00     0.233 C 
ATOM     16  N3  <0> d          -3.057  -6.904  -1.249  0.00  0.00    -0.075 N 
ATOM     17  C9  <0> d          -3.186  -5.445  -1.337  0.00  0.00     0.233 C 
ATOM     18  H8  <0> d          -3.971  -7.327  -1.314  0.00  0.00     0.277 HD
ATOM     19  H13 <0> d          -2.480  -7.237  -2.007  0.00  0.00     0.277 HD
ATOM     20  C8  <0> d          -1.796  -4.804  -1.320  0.00  0.00     0.043 C 
ENDBRANCH  12  13
ENDBRANCH   9  12
TORSDOF 2
