REMARK  6 active torsions:
REMARK  status: ('A' for Active; 'I' for Inactive)
REMARK    1  A    between atoms: C4_4  and  S1_7 
REMARK    2  A    between atoms: S1_7  and  N1_10 
REMARK    3  A    between atoms: C9_13  and  N2_22 
REMARK    4  A    between atoms: N2_22  and  N3_23 
REMARK       I    between atoms: N3_23  and  C17_24 
REMARK    5  A    between atoms: C17_24  and  C18_26 
REMARK    6  A    between atoms: C21_29  and  N4_32 
ROOT
ATOM      1  N1  <0> d           4.378  -1.079   1.536  0.00  0.00    -0.159 NA
ATOM      2  C7  <0> d           5.438  -1.768   1.860  0.00  0.00     0.083 C 
ATOM      3  C8  <0> d           5.735  -2.056   3.270  0.00  0.00     0.068 C 
ATOM      4  C9  <0> d           6.661  -2.987   3.598  0.00  0.00     0.101 C 
ATOM      5  C10 <0> d           7.384  -3.725   2.541  0.00  0.00     0.211 C 
ATOM      6  O3  <0> d           8.025  -4.721   2.814  0.00  0.00    -0.285 OA
ATOM      7  C11 <0> d           7.319  -3.238   1.148  0.00  0.00     0.029 A 
ATOM      8  C12 <0> d           6.353  -2.274   0.808  0.00  0.00     0.008 A 
ATOM      9  C13 <0> d           6.275  -1.810  -0.496  0.00  0.00     0.015 A 
ATOM     10  C14 <0> d           7.145  -2.304  -1.454  0.00  0.00     0.001 A 
ATOM     11  C15 <0> d           8.091  -3.255  -1.120  0.00  0.00     0.001 A 
ATOM     12  C16 <0> d           8.190  -3.718   0.175  0.00  0.00     0.016 A 
ENDROOT
BRANCH   4  13
ATOM     13  N2  <0> d           6.933  -3.250   4.933  0.00  0.00    -0.294 N 
ATOM     14  H11 <0> d           7.596  -3.917   5.170  0.00  0.00     0.187 HD
BRANCH  13  15
ATOM     15  N3  <0> d           6.249  -2.553   5.937  0.00  0.00    -0.265 N 
ATOM     16  C17 <0> d           6.513  -2.808   7.234  0.00  0.00     0.270 C 
ATOM     17  O4  <0> d           7.345  -3.644   7.532  0.00  0.00    -0.266 OA
ATOM     18  H12 <0> d           5.586  -1.886   5.700  0.00  0.00     0.190 HD
BRANCH  16  19
ATOM     19  C18 <0> d           5.794  -2.074   8.292  0.00  0.00     0.033 A 
ATOM     20  C23 <0> d           6.067  -2.338   9.637  0.00  0.00     0.019 A 
ATOM     21  C22 <0> d           5.397  -1.648  10.622  0.00  0.00     0.030 A 
ATOM     22  C21 <0> d           4.442  -0.695  10.279  0.00  0.00     0.025 A 
ATOM     23  C20 <0> d           4.164  -0.434   8.941  0.00  0.00     0.030 A 
ATOM     24  C19 <0> d           4.834  -1.117   7.951  0.00  0.00     0.019 A 
BRANCH  22  25
ATOM     25  N4  <0> d           3.764  -0.003  11.277  0.00  0.00    -0.399 N 
ATOM     26  H17 <0> d           3.098   0.662  11.039  0.00  0.00     0.156 HD
ATOM     27  H18 <0> d           3.957  -0.184  12.210  0.00  0.00     0.156 HD
ENDBRANCH  22  25
ENDBRANCH  16  19
ENDBRANCH  13  15
ENDBRANCH   4  13
BRANCH   1  28
ATOM     28  S1  <0> d           3.605  -1.373   0.101  0.00  0.00     0.283 S 
ATOM     29  O1  <0> d           4.130  -2.595  -0.400  0.00  0.00    -0.198 OA
ATOM     30  O2  <0> d           3.650  -0.162  -0.641  0.00  0.00    -0.198 OA
BRANCH  28  31
ATOM     31  C4  <0> d           1.909  -1.671   0.475  0.00  0.00     0.081 A 
ATOM     32  C3  <0> d           1.013  -0.619   0.505  0.00  0.00     0.025 A 
ATOM     33  C2  <0> d          -0.318  -0.852   0.798  0.00  0.00     0.002 A 
ATOM     34  C1  <0> d          -0.753  -2.138   1.059  0.00  0.00     0.000 A 
ATOM     35  C6  <0> d           0.143  -3.191   1.028  0.00  0.00     0.002 A 
ATOM     36  C5  <0> d           1.474  -2.957   0.737  0.00  0.00     0.025 A 
ENDBRANCH  28  31
ENDBRANCH   1  28
TORSDOF 6
