REMARK  4 active torsions:
REMARK  status: ('A' for Active; 'I' for Inactive)
REMARK    1  A    between atoms: C2_2  and  N1_3 
REMARK    2  A    between atoms: C4_5  and  C12_15 
REMARK       I    between atoms: C12_15  and  N3_17 
REMARK    3  A    between atoms: N3_17  and  C13_18 
REMARK    4  A    between atoms: C16_21  and  N4_24 
ROOT
ATOM      1  C12 <0> d           8.425  -0.105  -1.147  0.00  0.00     0.261 C 
ATOM      2  O2  <0> d           7.815  -1.101  -1.485  0.00  0.00    -0.267 OA
ATOM      3  N3  <0> d           7.753   1.001  -0.771  0.00  0.00    -0.323 N 
ATOM      4  H12 <0> d           8.236   1.820  -0.577  0.00  0.00     0.169 HD
ENDROOT
BRANCH   1   5
ATOM      5  C4  <0> d           9.896  -0.107  -1.147  0.00  0.00     0.098 A 
ATOM      6  C3  <0> d          10.601   1.017  -0.772  0.00  0.00     0.114 A 
ATOM      7  N1  <0> d          11.940   1.051  -0.755  0.00  0.00    -0.340 N 
ATOM      8  C7  <0> d          12.720  -0.022  -1.120  0.00  0.00     0.144 A 
ATOM      9  C6  <0> d          12.115  -1.224  -1.528  0.00  0.00     0.061 A 
ATOM     10  N2  <0> d          14.043   0.069  -1.090  0.00  0.00    -0.235 NA
ATOM     11  C5  <0> d          10.644  -1.308  -1.555  0.00  0.00     0.203 A 
ATOM     12  C10 <0> d          12.912  -2.310  -1.897  0.00  0.00     0.021 A 
ATOM     13  O1  <0> d          10.072  -2.327  -1.900  0.00  0.00    -0.286 OA
ATOM     14  C9  <0> d          14.285  -2.154  -1.845  0.00  0.00     0.028 A 
ATOM     15  C8  <0> d          14.815  -0.941  -1.433  0.00  0.00     0.033 A 
ATOM     16  C11 <0> d          16.312  -0.774  -1.377  0.00  0.00     0.070 C 
BRANCH   7  17
ATOM     17  C2  <0> d          12.604   2.288  -0.336  0.00  0.00     0.125 C 
ATOM     18  C1  <0> d          12.947   3.126  -1.569  0.00  0.00     0.027 C 
ENDBRANCH   7  17
ENDBRANCH   1   5
BRANCH   3  19
ATOM     19  C13 <0> d           6.358   0.969  -0.660  0.00  0.00     0.035 A 
ATOM     20  C18 <0> d           5.609   2.092  -0.989  0.00  0.00     0.032 A 
ATOM     21  C17 <0> d           4.233   2.059  -0.884  0.00  0.00     0.032 A 
ATOM     22  C16 <0> d           3.598   0.906  -0.441  0.00  0.00     0.037 A 
ATOM     23  C15 <0> d           4.346  -0.217  -0.113  0.00  0.00     0.032 A 
ATOM     24  C14 <0> d           5.722  -0.185  -0.222  0.00  0.00     0.032 A 
BRANCH  22  25
ATOM     25  N4  <0> d           2.202   0.874  -0.331  0.00  0.00    -0.318 N 
ATOM     26  C22 <0> d           1.401   1.936  -0.525  0.00  0.00     0.224 C 
ATOM     27  C21 <0> d          -0.045   1.542  -0.314  0.00  0.00     0.105 C 
ATOM     28  O3  <0> d           1.782   3.047  -0.826  0.00  0.00    -0.273 OA
ATOM     29  C20 <0> d           0.035   0.195   0.440  0.00  0.00     0.029 C 
ATOM     30  C19 <0> d           1.426  -0.324   0.012  0.00  0.00     0.133 C 
ENDBRANCH  22  25
ENDBRANCH   3  19
TORSDOF 4
