REMARK  4 active torsions:
REMARK  status: ('A' for Active; 'I' for Inactive)
REMARK    1  A    between atoms: C4_4  and  C7_7 
REMARK    2  A    between atoms: C7_7  and  N5_30 
REMARK    3  A    between atoms: C12_13  and  N2_15 
REMARK       I    between atoms: N2_15  and  C13_16 
REMARK    4  A    between atoms: C13_16  and  C14_18 
ROOT
ATOM      1  C8  <0> d           3.982   5.141  -1.440  0.00  0.00     0.241 C 
ATOM      2  C9  <0> d           4.635   5.116  -2.825  0.00  0.00     0.088 C 
ATOM      3  C10 <0> d           3.542   5.313  -3.870  0.00  0.00     0.053 A 
ATOM      4  C11 <0> d           2.243   5.107  -3.523  0.00  0.00     0.036 A 
ATOM      5  S1  <0> d           1.379   5.454  -5.029  0.00  0.00    -0.053 SA
ATOM      6  C12 <0> d           2.776   5.838  -5.991  0.00  0.00     0.174 A 
ATOM      7  N1  <0> d           3.759   5.681  -5.127  0.00  0.00    -0.228 NA
ATOM      8  C21 <0> d           1.722   4.690  -2.190  0.00  0.00     0.283 C 
ATOM      9  N5  <0> d           2.867   4.172  -1.400  0.00  0.00    -0.062 N 
ATOM     10  H20 <0> d           3.181   3.284  -1.809  0.00  0.00     0.280 HD
ENDROOT
BRANCH   6  11
ATOM     11  N2  <0> d           2.839   6.216  -7.326  0.00  0.00    -0.300 N 
ATOM     12  C13 <0> d           4.032   6.474  -7.898  0.00  0.00     0.279 C 
ATOM     13  O1  <0> d           5.053   6.378  -7.244  0.00  0.00    -0.265 OA
ATOM     14  H13 <0> d           2.025   6.293  -7.847  0.00  0.00     0.171 HD
BRANCH  12  15
ATOM     15  C14 <0> d           4.099   6.875  -9.314  0.00  0.00     0.157 A 
ATOM     16  N4  <0> d           3.086   7.015 -10.143  0.00  0.00    -0.168 NA
ATOM     17  N3  <0> d           3.470   7.379 -11.313  0.00  0.00    -0.277 N 
ATOM     18  C20 <0> d           4.833   7.509 -11.370  0.00  0.00     0.062 A 
ATOM     19  H1  <0> d           2.854   7.545 -12.083  0.00  0.00     0.189 HD
ATOM     20  C15 <0> d           5.309   7.190 -10.084  0.00  0.00     0.028 A 
ATOM     21  C19 <0> d           5.742   7.861 -12.363  0.00  0.00     0.032 A 
ATOM     22  C16 <0> d           6.675   7.230  -9.816  0.00  0.00     0.016 A 
ATOM     23  C17 <0> d           7.546   7.580 -10.810  0.00  0.00     0.001 A 
ATOM     24  C18 <0> d           7.079   7.893 -12.080  0.00  0.00     0.002 A 
ENDBRANCH  12  15
ENDBRANCH   6  11
BRANCH   9  25
ATOM     25  C7  <0> d           2.451   3.937  -0.001  0.00  0.00     0.273 C 
BRANCH  25  26
ATOM     26  C4  <0> d           1.156   3.165   0.008  0.00  0.00    -0.033 A 
ATOM     27  C3  <0> d           1.175   1.783   0.000  0.00  0.00     0.009 A 
ATOM     28  C2  <0> d          -0.013   1.076   0.008  0.00  0.00     0.001 A 
ATOM     29  C1  <0> d          -1.219   1.751   0.017  0.00  0.00     0.000 A 
ATOM     30  C6  <0> d          -1.238   3.133   0.030  0.00  0.00     0.001 A 
ATOM     31  C5  <0> d          -0.050   3.840   0.023  0.00  0.00     0.009 A 
ENDBRANCH  25  26
ENDBRANCH   9  25
TORSDOF 4
