REMARK  3 active torsions:
REMARK  status: ('A' for Active; 'I' for Inactive)
REMARK    1  A    between atoms: C6_8  and  C7_9 
REMARK    2  A    between atoms: C7_9  and  N2_10 
REMARK       I    between atoms: N2_10  and  C8_11 
REMARK    3  A    between atoms: C8_11  and  C9_13 
ROOT
ATOM      1  N2  <0> d           1.254  -1.039   3.394  0.00  0.00    -0.358 N 
ATOM      2  C8  <0> d           2.254  -0.816   4.269  0.00  0.00     0.249 C 
ATOM      3  O2  <0> d           3.162  -0.067   3.975  0.00  0.00    -0.271 OA
ATOM      4  H9  <0> d           0.528  -1.638   3.629  0.00  0.00     0.162 HD
ENDROOT
BRANCH   1   5
ATOM      5  C7  <0> d           1.263  -0.378   2.087  0.00  0.00     0.141 C 
BRANCH   5   6
ATOM      6  C6  <0> d           0.025  -0.799   1.293  0.00  0.00     0.126 A 
ATOM      7  C2  <0> d           0.002  -0.004   0.002  0.00  0.00    -0.067 A 
ATOM      8  C1  <0> d          -0.018   1.503   0.010  0.00  0.00     0.044 C 
ATOM      9  C3  <0> d           0.006  -0.695  -1.148  0.00  0.00     0.030 A 
ATOM     10  C4  <0> d           0.025  -2.103  -1.149  0.00  0.00     0.034 A 
ATOM     11  N1  <0> d           0.040  -2.837  -0.070  0.00  0.00    -0.219 NA
ATOM     12  C17 <0> d           0.028  -2.807  -2.482  0.00  0.00     0.070 C 
ATOM     13  C5  <0> d           0.039  -2.309   1.161  0.00  0.00     0.253 A 
ATOM     14  O1  <0> d           0.054  -3.021   2.144  0.00  0.00    -0.270 OA
ENDBRANCH   5   6
ENDBRANCH   1   5
BRANCH   2  15
ATOM     15  C9  <0> d           2.245  -1.496   5.614  0.00  0.00     0.244 C 
ATOM     16  O4  <0> d           3.345  -1.027   6.400  0.00  0.00    -0.331 OA
ATOM     17  C16 <0> d           3.654  -1.748   7.513  0.00  0.00     0.103 A 
ATOM     18  C11 <0> d           3.185  -3.047   7.671  0.00  0.00     0.102 A 
ATOM     19  C15 <0> d           4.450  -1.178   8.494  0.00  0.00     0.040 A 
ATOM     20  O3  <0> d           2.399  -3.624   6.722  0.00  0.00    -0.345 OA
ATOM     21  C12 <0> d           3.520  -3.767   8.808  0.00  0.00     0.039 A 
ATOM     22  C10 <0> d           2.397  -3.012   5.428  0.00  0.00     0.218 C 
ATOM     23  C13 <0> d           4.314  -3.193   9.782  0.00  0.00     0.003 A 
ATOM     24  C14 <0> d           4.779  -1.900   9.626  0.00  0.00     0.003 A 
ENDBRANCH   2  15
TORSDOF 3
