REMARK  6 active torsions:
REMARK  status: ('A' for Active; 'I' for Inactive)
REMARK    1  A    between atoms: C2_2  and  S1_3 
REMARK    2  A    between atoms: S1_3  and  C3_4 
REMARK    3  A    between atoms: C8_9  and  N1_10 
REMARK       I    between atoms: N1_10  and  C9_11 
REMARK    4  A    between atoms: C9_11  and  C10_13 
REMARK       I    between atoms: C10_13  and  N2_15 
REMARK    5  A    between atoms: N2_15  and  C11_16 
REMARK    6  A    between atoms: C11_16  and  C12_17 
ROOT
ATOM      1  N1  <0> d           2.046  -2.590   3.391  0.00  0.00    -0.318 N 
ATOM      2  C9  <0> d           2.525  -3.372   4.380  0.00  0.00     0.314 C 
ATOM      3  O1  <0> d           2.481  -4.580   4.273  0.00  0.00    -0.262 OA
ATOM      4  H10 <0> d           2.139  -1.627   3.447  0.00  0.00     0.169 HD
ENDROOT
BRANCH   2   5
ATOM      5  C10 <0> d           3.108  -2.751   5.606  0.00  0.00     0.310 C 
ATOM      6  O2  <0> d           3.151  -1.542   5.713  0.00  0.00    -0.262 OA
ATOM      7  N2  <0> d           3.586  -3.532   6.595  0.00  0.00    -0.347 N 
ATOM      8  H11 <0> d           3.552  -4.498   6.510  0.00  0.00     0.163 HD
BRANCH   7   9
ATOM      9  C11 <0> d           4.159  -2.923   7.798  0.00  0.00     0.182 C 
BRANCH   9  10
ATOM     10  C12 <0> d           4.617  -4.006   8.740  0.00  0.00     0.059 A 
ATOM     11  N3  <0> d           3.787  -4.575   9.591  0.00  0.00    -0.249 NA
ATOM     12  C14 <0> d           4.187  -5.520  10.405  0.00  0.00     0.071 A 
ATOM     13  S2  <0> d           5.821  -5.678  10.035  0.00  0.00    -0.085 SA
ATOM     14  C15 <0> d           3.382  -6.277  11.430  0.00  0.00     0.078 C 
ATOM     15  C13 <0> d           5.904  -4.436   8.755  0.00  0.00     0.080 A 
ENDBRANCH   9  10
ENDBRANCH   7   9
ENDBRANCH   2   5
BRANCH   1  16
ATOM     16  C8  <0> d           1.415  -3.170   2.285  0.00  0.00     0.052 A 
ATOM     17  C3  <0> d           0.342  -2.520   1.672  0.00  0.00     0.027 A 
ATOM     18  C4  <0> d          -0.275  -3.098   0.571  0.00  0.00     0.021 A 
ATOM     19  C5  <0> d           0.170  -4.315   0.090  0.00  0.00     0.002 A 
ATOM     20  C6  <0> d           1.229  -4.961   0.702  0.00  0.00     0.002 A 
ATOM     21  C7  <0> d           1.850  -4.394   1.798  0.00  0.00     0.031 A 
BRANCH  17  22
ATOM     22  S1  <0> d          -0.222  -0.969   2.288  0.00  0.00    -0.128 SA
BRANCH  22  23
ATOM     23  C2  <0> d          -1.599  -0.535   1.191  0.00  0.00     0.075 C 
ATOM     24  C1  <0> d          -2.189   0.809   1.620  0.00  0.00     0.016 C 
ENDBRANCH  22  23
ENDBRANCH  17  22
ENDBRANCH   1  16
TORSDOF 6
