REMARK  5 active torsions:
REMARK  status: ('A' for Active; 'I' for Inactive)
REMARK    1  A    between atoms: C5_5  and  C9_9 
REMARK    2  A    between atoms: C9_9  and  C10_10 
REMARK    3  A    between atoms: C9_9  and  O2_19 
REMARK    4  A    between atoms: C10_10  and  N1_11 
REMARK    5  A    between atoms: N2_14  and  C15_17 
ROOT
ATOM      1  C9  <0> d           0.627  -4.107   0.040  0.00  0.00     0.180 C 
ENDROOT
BRANCH   1   2
ATOM      2  C5  <0> d           0.710  -2.708  -0.512  0.00  0.00    -0.016 A 
ATOM      3  C4  <0> d           1.077  -2.505  -1.829  0.00  0.00    -0.052 A 
ATOM      4  C3  <0> d           1.153  -1.221  -2.336  0.00  0.00     0.014 A 
ATOM      5  C16 <0> d           1.395  -3.684  -2.713  0.00  0.00     0.049 C 
ATOM      6  C2  <0> d           0.860  -0.140  -1.526  0.00  0.00    -0.061 A 
ATOM      7  C1  <0> d           0.942   1.260  -2.078  0.00  0.00     0.048 C 
ATOM      8  C7  <0> d           0.498  -0.342  -0.207  0.00  0.00     0.014 A 
ATOM      9  C6  <0> d           0.419  -1.627   0.298  0.00  0.00    -0.052 A 
ATOM     10  C8  <0> d           0.018  -1.847   1.734  0.00  0.00     0.049 C 
ENDBRANCH   1   2
BRANCH   1  11
ATOM     11  C10 <0> d          -0.841  -4.504   0.205  0.00  0.00     0.309 C 
BRANCH  11  12
ATOM     12  N1  <0> d          -0.927  -5.930   0.549  0.00  0.00     0.094 N 
ATOM     13  C14 <0> d          -2.289  -6.440   0.342  0.00  0.00     0.292 C 
ATOM     14  C13 <0> d          -2.297  -7.960   0.535  0.00  0.00     0.155 C 
ATOM     15  N2  <0> d          -1.711  -8.267   1.849  0.00  0.00    -0.356 N 
ATOM     16  C12 <0> d          -0.406  -7.677   2.184  0.00  0.00     0.155 C 
ATOM     17  C11 <0> d          -0.473  -6.168   1.925  0.00  0.00     0.292 C 
BRANCH  15  18
ATOM     18  C15 <0> d          -2.353  -9.067   2.723  0.00  0.00     0.350 C 
ATOM     19  O1  <0> d          -3.429  -9.545   2.431  0.00  0.00    -0.284 OA
ENDBRANCH  15  18
ENDBRANCH  11  12
ENDBRANCH   1  11
BRANCH   1  20
ATOM     20  O2  <0> d           1.280  -4.158   1.310  0.00  0.00    -0.389 OA
ATOM     21  H21 <0> d           0.815  -3.679   2.010  0.00  0.00     0.210 HD
ENDBRANCH   1  20
TORSDOF 5
