REMARK  4 active torsions:
REMARK  status: ('A' for Active; 'I' for Inactive)
REMARK    1  A    between atoms: C2_2  and  C3_3 
REMARK    2  A    between atoms: C3_3  and  C4_4 
REMARK    3  A    between atoms: C3_3  and  N3_17 
REMARK    4  A    between atoms: N2_12  and  C11_13 
ROOT
ATOM      1  C4  <0> d           0.657  -2.014   1.298  0.00  0.00     0.138 A 
ATOM      2  N1  <0> d           1.341  -2.828   0.548  0.00  0.00    -0.231 NA
ATOM      3  C5  <0> d           1.023  -4.111   0.858  0.00  0.00     0.087 A 
ATOM      4  C6  <0> d           1.447  -5.353   0.376  0.00  0.00     0.053 A 
ATOM      5  C7  <0> d           0.923  -6.508   0.909  0.00  0.00     0.013 A 
ATOM      6  C8  <0> d          -0.025  -6.451   1.922  0.00  0.00     0.021 A 
ATOM      7  C9  <0> d          -0.454  -5.235   2.409  0.00  0.00     0.033 A 
ATOM      8  C10 <0> d           0.064  -4.059   1.883  0.00  0.00     0.065 A 
ATOM      9  N2  <0> d          -0.143  -2.719   2.144  0.00  0.00    -0.327 N 
ATOM     10 Br1  <0> d           1.498  -8.188   0.256  0.00  0.00    -0.051 Br
ENDROOT
BRANCH   1  11
ATOM     11  C3  <0> d           0.742  -0.511   1.242  0.00  0.00     0.252 C 
BRANCH  11  12
ATOM     12  C2  <0> d           0.002  -0.004   0.002  0.00  0.00     0.036 C 
ATOM     13  C1  <0> d          -0.019   1.526   0.010  0.00  0.00     0.007 C 
ENDBRANCH  11  12
BRANCH  11  14
ATOM     14  N3  <0> d           2.151  -0.103   1.171  0.00  0.00    -0.068 N 
ATOM     15  H17 <0> d           2.574  -0.495   0.344  0.00  0.00     0.275 HD
ATOM     16  H18 <0> d           2.209   0.904   1.134  0.00  0.00     0.275 HD
ATOM     17  H19 <0> d           2.639  -0.437   1.989  0.00  0.00     0.275 HD
ENDBRANCH  11  14
ENDBRANCH   1  11
BRANCH   9  18
ATOM     18  C11 <0> d          -1.056  -2.158   3.143  0.00  0.00     0.083 C 
ATOM     19  C12 <0> d          -2.486  -2.610   2.836  0.00  0.00     0.032 C 
ATOM     20  C13 <0> d          -0.654  -2.650   4.534  0.00  0.00     0.032 C 
ENDBRANCH   9  18
TORSDOF 4
