REMARK  5 active torsions:
REMARK  status: ('A' for Active; 'I' for Inactive)
REMARK    1  A    between atoms: C2_2  and  C3_3 
REMARK    2  A    between atoms: C2_2  and  O2_6 
REMARK       I    between atoms: C3_3  and  N1_5 
REMARK    3  A    between atoms: O2_6  and  C4_7 
REMARK    4  A    between atoms: C4_7  and  C5_9 
REMARK    5  A    between atoms: C8_12  and  N2_15 
ROOT
ATOM      1  C5  <0> d          -1.860   5.699  -0.853  0.00  0.00     0.039 A 
ATOM      2  C6  <0> d          -0.708   6.318  -0.359  0.00  0.00     0.020 A 
ATOM      3  C7  <0> d          -0.543   7.677  -0.506  0.00  0.00     0.031 A 
ATOM      4  C8  <0> d          -1.524   8.435  -1.136  0.00  0.00     0.040 A 
ATOM      5  C9  <0> d          -2.674   7.823  -1.624  0.00  0.00     0.031 A 
ATOM      6  C10 <0> d          -2.844   6.464  -1.485  0.00  0.00     0.020 A 
ENDROOT
BRANCH   1   7
ATOM      7  C4  <0> d          -2.039   4.242  -0.703  0.00  0.00     0.294 C 
ATOM      8  O3  <0> d          -3.042   3.706  -1.128  0.00  0.00    -0.259 OA
BRANCH   7   9
ATOM      9  O2  <0> d          -1.089   3.506  -0.093  0.00  0.00    -0.303 OA
BRANCH   9  10
ATOM     10  C2  <0> d          -1.331   2.079   0.020  0.00  0.00     0.219 C 
ATOM     11  C1  <0> d          -2.068   1.789   1.329  0.00  0.00     0.050 C 
BRANCH  10  12
ATOM     12  C3  <0> d          -0.016   1.344   0.009  0.00  0.00     0.244 C 
ATOM     13  O1  <0> d           1.026   1.964   0.003  0.00  0.00    -0.271 OA
ATOM     14  N1  <0> d           0.002  -0.004   0.002  0.00  0.00    -0.368 N 
ATOM     15  H5  <0> d           0.849  -0.478  -0.009  0.00  0.00     0.159 HD
ATOM     16  H6  <0> d          -0.831  -0.500   0.007  0.00  0.00     0.159 HD
ENDBRANCH  10  12
ENDBRANCH   9  10
ENDBRANCH   7   9
ENDBRANCH   1   7
BRANCH   4  17
ATOM     17  N2  <0> d          -1.355   9.814  -1.278  0.00  0.00    -0.304 N 
ATOM     18  C13 <0> d          -1.013  10.706  -0.278  0.00  0.00     0.069 A 
ATOM     19  C12 <0> d          -0.958  11.970  -0.890  0.00  0.00     0.085 A 
ATOM     20  C14 <0> d          -0.732  10.578   1.074  0.00  0.00     0.032 A 
ATOM     21  N3  <0> d          -1.269  11.791  -2.200  0.00  0.00    -0.241 NA
ATOM     22  C17 <0> d          -0.628  13.091  -0.124  0.00  0.00     0.034 A 
ATOM     23  C11 <0> d          -1.502  10.532  -2.428  0.00  0.00     0.216 A 
ATOM     24  C16 <0> d          -0.357  12.945   1.218  0.00  0.00     0.002 A 
ATOM     25  C15 <0> d          -0.408  11.695   1.816  0.00  0.00     0.002 A 
ENDBRANCH   4  17
TORSDOF 5
