REMARK  4 active torsions:
REMARK  status: ('A' for Active; 'I' for Inactive)
REMARK    1  A    between atoms: N1_10  and  C11_12 
REMARK    2  A    between atoms: C12_13  and  N6_29 
REMARK    3  A    between atoms: C13_14  and  N4_18 
REMARK    4  A    between atoms: N4_18  and  C15_19 
ROOT
ATOM      1  C11 <0> d           0.349  -3.038  -2.372  0.00  0.00     0.164 A 
ATOM      2  C12 <0> d           1.314  -2.727  -3.324  0.00  0.00     0.194 A 
ATOM      3  C13 <0> d           1.575  -3.656  -4.327  0.00  0.00     0.162 A 
ATOM      4  N2  <0> d           0.896  -4.801  -4.338  0.00  0.00    -0.222 NA
ATOM      5  C14 <0> d          -0.011  -5.060  -3.418  0.00  0.00     0.237 A 
ATOM      6  N3  <0> d          -0.282  -4.208  -2.450  0.00  0.00    -0.222 NA
ENDROOT
BRANCH   3   7
ATOM      7  N4  <0> d           2.527  -3.392  -5.299  0.00  0.00    -0.368 N 
ATOM      8  H20 <0> d           3.017  -2.555  -5.284  0.00  0.00     0.161 HD
BRANCH   7   9
ATOM      9  C15 <0> d           2.794  -4.380  -6.353  0.00  0.00     0.088 C 
ATOM     10  C19 <0> d           3.357  -3.667  -7.581  0.00  0.00     0.063 C 
ATOM     11  C18 <0> d           3.707  -4.670  -8.676  0.00  0.00     0.121 C 
ATOM     12  N5  <0> d           4.521  -5.777  -8.200  0.00  0.00    -0.059 N 
ATOM     13  C20 <0> d           2.429  -5.160  -9.363  0.00  0.00     0.046 C 
ATOM     14  C21 <0> d           4.532  -3.913  -9.744  0.00  0.00     0.046 C 
ATOM     15  C17 <0> d           4.140  -6.405  -6.943  0.00  0.00     0.121 C 
ATOM     16  H24 <0> d           5.487  -5.453  -8.117  0.00  0.00     0.279 HD
ATOM     17  H39 <0> d           4.541  -6.498  -8.926  0.00  0.00     0.279 HD
ATOM     18  C16 <0> d           3.842  -5.376  -5.853  0.00  0.00     0.063 C 
ATOM     19  C22 <0> d           2.955  -7.356  -7.111  0.00  0.00     0.046 C 
ATOM     20  C23 <0> d           5.341  -7.250  -6.461  0.00  0.00     0.046 C 
ENDBRANCH   7   9
ENDBRANCH   3   7
BRANCH   2  21
ATOM     21  N6  <0> d           2.044  -1.440  -3.273  0.00  0.00    -0.108 N 
ATOM     22  O1  <0> d           3.078  -1.356  -2.651  0.00  0.00    -0.532 OA
ATOM     23  O2  <0> d           1.607  -0.473  -3.852  0.00  0.00    -0.532 OA
ENDBRANCH   2  21
BRANCH   1  24
ATOM     24  N1  <0> d           0.053  -2.147  -1.353  0.00  0.00    -0.358 N 
ATOM     25  C4  <0> d          -0.940  -2.353  -0.279  0.00  0.00     0.087 C 
ATOM     26  C3  <0> d          -1.342  -0.926   0.171  0.00  0.00     0.036 C 
ATOM     27  C5  <0> d          -0.259  -3.027   0.910  0.00  0.00     0.034 C 
ATOM     28  C2  <0> d           0.051  -0.240   0.132  0.00  0.00    -0.025 C 
ATOM     29  C1  <0> d          -0.053   1.292   0.088  0.00  0.00     0.017 C 
ATOM     30  C7  <0> d           0.842  -0.743   1.338  0.00  0.00     0.019 C 
ATOM     31  C10 <0> d           0.667  -0.824  -1.160  0.00  0.00     0.134 C 
ATOM     32  C6  <0> d           0.927  -2.253   1.457  0.00  0.00    -0.045 C 
ATOM     33  C8  <0> d           1.032  -2.588   2.966  0.00  0.00     0.015 C 
ATOM     34  C9  <0> d           2.223  -2.762   0.810  0.00  0.00     0.015 C 
ENDBRANCH   1  24
TORSDOF 4
