REMARK  7 active torsions:
REMARK  status: ('A' for Active; 'I' for Inactive)
REMARK    1  A    between atoms: C6_6  and  N1_9 
REMARK    2  A    between atoms: N2_12  and  C13_15 
REMARK    3  A    between atoms: C14_16  and  N6_33 
REMARK    4  A    between atoms: C15_17  and  N5_21 
REMARK    5  A    between atoms: N5_21  and  C18_23 
REMARK    6  A    between atoms: C23_28  and  C24_29 
REMARK    7  A    between atoms: C24_29  and  O2_31 
ROOT
ATOM      1  C13 <0> d           0.160  -5.871   4.380  0.00  0.00     0.157 A 
ATOM      2  C14 <0> d           1.233  -6.233   5.197  0.00  0.00     0.117 A 
ATOM      3  C15 <0> d           0.998  -7.146   6.226  0.00  0.00     0.139 A 
ATOM      4  N3  <0> d          -0.230  -7.634   6.388  0.00  0.00    -0.335 N 
ATOM      5  C16 <0> d          -1.214  -7.267   5.594  0.00  0.00     0.211 A 
ATOM      6  N4  <0> d          -1.037  -6.403   4.614  0.00  0.00    -0.224 NA
ATOM      7  H31 <0> d          -0.402  -8.270   7.100  0.00  0.00     0.168 HD
ENDROOT
BRANCH   1   8
ATOM      8  N2  <0> d           0.338  -4.966   3.341  0.00  0.00    -0.361 N 
ATOM      9  C10 <0> d           0.808  -5.420   2.025  0.00  0.00     0.144 C 
ATOM     10  C9  <0> d          -0.198  -4.966   0.961  0.00  0.00     0.143 C 
ATOM     11  N1  <0> d          -0.476  -3.536   1.158  0.00  0.00    -0.377 N 
ATOM     12  C12 <0> d          -0.941  -3.080   2.476  0.00  0.00     0.143 C 
ATOM     13  C11 <0> d           0.060  -3.536   3.538  0.00  0.00     0.144 C 
BRANCH  11  14
ATOM     14  C6  <0> d          -0.297  -2.626   0.114  0.00  0.00     0.036 A 
ATOM     15  C5  <0> d           0.932  -2.003  -0.063  0.00  0.00     0.030 A 
ATOM     16  C4  <0> d           1.106  -1.104  -1.097  0.00  0.00     0.003 A 
ATOM     17  C3  <0> d           0.059  -0.823  -1.955  0.00  0.00     0.007 A 
ATOM     18  C2  <0> d          -1.166  -1.442  -1.782  0.00  0.00    -0.054 A 
ATOM     19  C1  <0> d          -2.304  -1.133  -2.720  0.00  0.00     0.049 C 
ATOM     20  C7  <0> d          -1.348  -2.338  -0.747  0.00  0.00    -0.029 A 
ATOM     21  C8  <0> d          -2.685  -3.007  -0.555  0.00  0.00     0.051 C 
ENDBRANCH  11  14
ENDBRANCH   1   8
BRANCH   2  22
ATOM     22  N6  <0> d           2.512  -5.693   4.990  0.00  0.00    -0.393 N 
ATOM     23  H29 <0> d           2.655  -5.044   4.284  0.00  0.00     0.156 HD
ATOM     24  H30 <0> d           3.252  -5.969   5.553  0.00  0.00     0.156 HD
ENDBRANCH   2  22
BRANCH   3  25
ATOM     25  N5  <0> d           2.031  -7.541   7.069  0.00  0.00    -0.335 N 
ATOM     26  C17 <0> d           2.356  -6.742   8.254  0.00  0.00     0.158 C 
BRANCH  25  27
ATOM     27  C18 <0> d           2.756  -8.693   6.789  0.00  0.00     0.051 A 
ATOM     28  C23 <0> d           2.439  -9.900   7.431  0.00  0.00     0.066 A 
ATOM     29  C22 <0> d           3.172 -11.053   7.135  0.00  0.00     0.020 A 
ATOM     30  C21 <0> d           4.205 -10.995   6.226  0.00  0.00     0.001 A 
ATOM     31  C20 <0> d           4.519  -9.800   5.598  0.00  0.00     0.002 A 
ATOM     32  C19 <0> d           3.802  -8.655   5.875  0.00  0.00     0.031 A 
BRANCH  28  33
ATOM     33  C24 <0> d           1.336  -9.953   8.407  0.00  0.00     0.295 C 
ATOM     34  O1  <0> d           0.768  -8.931   8.738  0.00  0.00    -0.259 OA
BRANCH  33  35
ATOM     35  O2  <0> d           0.958 -11.135   8.933  0.00  0.00    -0.322 OA
ATOM     36  C25 <0> d          -0.118 -11.112   9.873  0.00  0.00     0.213 C 
ENDBRANCH  33  35
ENDBRANCH  28  33
ENDBRANCH  25  27
ENDBRANCH   3  25
TORSDOF 7
