REMARK  7 active torsions:
REMARK  status: ('A' for Active; 'I' for Inactive)
REMARK    1  A    between atoms: N1_2  and  C3_4 
REMARK    2  A    between atoms: C3_4  and  C4_5 
REMARK    3  A    between atoms: C4_5  and  N2_6 
REMARK    4  A    between atoms: C6_8  and  N4_11 
REMARK       I    between atoms: N4_11  and  C8_12 
REMARK    5  A    between atoms: C8_12  and  C9_14 
REMARK    6  A    between atoms: C9_14  and  N5_15 
REMARK    7  A    between atoms: N5_15  and  C11_17 
ROOT
ATOM      1  N4  <0> d           5.312  -2.886  -4.825  0.00  0.00    -0.323 N 
ATOM      2  C8  <0> d           5.740  -2.888  -6.103  0.00  0.00     0.240 C 
ATOM      3  O1  <0> d           6.008  -3.936  -6.651  0.00  0.00    -0.271 OA
ATOM      4  H13 <0> d           5.098  -2.047  -4.386  0.00  0.00     0.169 HD
ENDROOT
BRANCH   2   5
ATOM      5  C9  <0> d           5.884  -1.588  -6.851  0.00  0.00     0.227 C 
BRANCH   5   6
ATOM      6  N5  <0> d           6.360  -1.857  -8.210  0.00  0.00    -0.360 N 
ATOM      7  C10 <0> d           5.398  -2.089  -9.291  0.00  0.00     0.152 C 
BRANCH   6   8
ATOM      8  C11 <0> d           7.712  -1.891  -8.472  0.00  0.00     0.150 A 
ATOM      9  C13 <0> d           8.201  -2.262  -9.809  0.00  0.00     0.034 A 
ATOM     10  C12 <0> d           9.601  -2.237  -9.885  0.00  0.00     0.095 A 
ATOM     11  C14 <0> d           7.498  -2.617 -10.970  0.00  0.00     0.017 A 
ATOM     12  S1  <0> d          10.077  -1.759  -8.247  0.00  0.00     0.286 S 
ATOM     13  C17 <0> d          10.272  -2.543 -11.033  0.00  0.00     0.026 A 
ATOM     14  N6  <0> d           8.567  -1.603  -7.543  0.00  0.00    -0.141 NA
ATOM     15  O2  <0> d          10.655  -0.463  -8.324  0.00  0.00    -0.198 OA
ATOM     16  O3  <0> d          10.725  -2.870  -7.642  0.00  0.00    -0.198 OA
ATOM     17  C16 <0> d           9.560  -2.901 -12.169  0.00  0.00     0.002 A 
ATOM     18  C15 <0> d           8.178  -2.929 -12.126  0.00  0.00     0.001 A 
ENDBRANCH   6   8
ENDBRANCH   5   6
ENDBRANCH   2   5
BRANCH   1  19
ATOM     19  C6  <0> d           5.178  -4.100  -4.126  0.00  0.00     0.071 A 
ATOM     20  C5  <0> d           4.760  -4.242  -2.842  0.00  0.00     0.143 A 
ATOM     21  N2  <0> d           4.770  -5.568  -2.551  0.00  0.00    -0.277 N 
ATOM     22  N3  <0> d           5.212  -6.255  -3.690  0.00  0.00    -0.183 NA
ATOM     23  C7  <0> d           5.450  -5.379  -4.632  0.00  0.00     0.169 A 
BRANCH  21  24
ATOM     24  C4  <0> d           4.393  -6.173  -1.272  0.00  0.00     0.178 C 
BRANCH  24  25
ATOM     25  C3  <0> d           3.312  -7.230  -1.507  0.00  0.00     0.255 C 
BRANCH  25  26
ATOM     26  N1  <0> d           2.933  -7.837  -0.224  0.00  0.00    -0.077 N 
ATOM     27  C1  <0> d           2.304  -6.822   0.631  0.00  0.00     0.269 C 
ATOM     28  C2  <0> d           1.984  -8.933  -0.462  0.00  0.00     0.269 C 
ATOM     29  H23 <0> d           3.756  -8.199   0.233  0.00  0.00     0.279 HD
ENDBRANCH  25  26
ENDBRANCH  24  25
ENDBRANCH  21  24
ENDBRANCH   1  19
TORSDOF 7
