REMARK  3 active torsions:
REMARK  status: ('A' for Active; 'I' for Inactive)
REMARK    1  A    between atoms: N1_5  and  C5_7 
REMARK    2  A    between atoms: C5_7  and  C7_9 
REMARK       I    between atoms: C7_9  and  N3_11 
REMARK    3  A    between atoms: N3_11  and  C8_12 
ROOT
ATOM      1  C5  <0> d           0.053  -3.295   1.486  0.00  0.00     0.198 C 
ATOM      2  C6  <0> d          -1.192  -3.301   2.375  0.00  0.00     0.044 C 
ENDROOT
BRANCH   1   3
ATOM      3  N1  <0> d           0.034  -2.109   0.625  0.00  0.00    -0.259 N 
ATOM      4  C4  <0> d           0.027  -2.108  -0.725  0.00  0.00     0.047 A 
ATOM      5  C3  <0> d           0.008  -0.818  -1.136  0.00  0.00     0.060 A 
ATOM      6  C12 <0> d           0.039  -3.324  -1.615  0.00  0.00     0.071 C 
ATOM      7  C2  <0> d           0.002  -0.004   0.002  0.00  0.00     0.070 A 
ATOM      8 Br1  <0> d          -0.009  -0.222  -2.930  0.00  0.00    -0.047 Br
ATOM      9  C1  <0> d          -0.018   1.503   0.010  0.00  0.00     0.074 C 
ATOM     10  N2  <0> d           0.023  -0.777   1.058  0.00  0.00    -0.175 NA
ENDBRANCH   1   3
BRANCH   1  11
ATOM     11  C7  <0> d           1.288  -3.267   2.350  0.00  0.00     0.242 C 
ATOM     12  O1  <0> d           2.073  -2.348   2.256  0.00  0.00    -0.271 OA
ATOM     13  N3  <0> d           1.518  -4.264   3.227  0.00  0.00    -0.351 N 
ATOM     14  H8  <0> d           0.890  -4.999   3.302  0.00  0.00     0.163 HD
BRANCH  13  15
ATOM     15  C8  <0> d           2.718  -4.237   4.067  0.00  0.00     0.022 C 
ATOM     16  C9  <0> d           2.705  -2.977   4.935  0.00  0.00     0.037 C 
ATOM     17  C10 <0> d           2.739  -5.475   4.966  0.00  0.00     0.037 C 
ATOM     18  C11 <0> d           3.963  -4.231   3.179  0.00  0.00     0.037 C 
ENDBRANCH  13  15
ENDBRANCH   1  11
TORSDOF 3
