REMARK  5 active torsions:
REMARK  status: ('A' for Active; 'I' for Inactive)
REMARK    1  A    between atoms: C2_2  and  C3_3 
REMARK    2  A    between atoms: C2_2  and  N3_9 
REMARK    3  A    between atoms: C3_3  and  N1_4 
REMARK       I    between atoms: N3_9  and  C7_10 
REMARK    4  A    between atoms: C7_10  and  C8_12 
REMARK    5  A    between atoms: C8_12  and  C15_19 
ROOT
ATOM      1  N3  <0> d           0.667  -0.273   1.275  0.00  0.00    -0.354 N 
ATOM      2  C7  <0> d           0.002  -0.654   2.384  0.00  0.00     0.233 C 
ATOM      3  O1  <0> d          -1.203  -0.526   2.442  0.00  0.00    -0.272 OA
ATOM      4  H10 <0> d           1.635  -0.316   1.252  0.00  0.00     0.162 HD
ENDROOT
BRANCH   2   5
ATOM      5  C8  <0> d           0.755  -1.238   3.551  0.00  0.00     0.093 C 
ATOM      6  C14 <0> d          -0.158  -1.381   4.676  0.00  0.00     0.027 C 
ATOM      7  C13 <0> d          -0.787  -0.038   5.098  0.00  0.00     0.002 C 
ATOM      8  C12 <0> d           0.209   0.713   5.940  0.00  0.00     0.000 C 
ATOM      9  C11 <0> d           1.058   1.697   5.113  0.00  0.00     0.000 C 
ATOM     10  C10 <0> d           1.509   1.108   3.763  0.00  0.00     0.002 C 
ATOM     11  C9  <0> d           1.954  -0.325   3.879  0.00  0.00     0.027 C 
BRANCH   5  12
ATOM     12  C15 <0> d           1.272  -2.599   3.165  0.00  0.00     0.089 C 
ATOM     13  S1  <0> d           0.680  -3.908   3.868  0.00  0.00    -0.065 SA
ATOM     14  N4  <0> d           2.234  -2.714   2.228  0.00  0.00    -0.392 N 
ATOM     15  H23 <0> d           2.538  -1.929   1.747  0.00  0.00     0.156 HD
ATOM     16  H24 <0> d           2.621  -3.582   2.034  0.00  0.00     0.156 HD
ENDBRANCH   5  12
ENDBRANCH   2   5
BRANCH   1  17
ATOM     17  C2  <0> d          -0.073   0.204   0.104  0.00  0.00     0.098 C 
ATOM     18  C1  <0> d          -0.368   1.698   0.262  0.00  0.00     0.034 C 
BRANCH  17  19
ATOM     19  C3  <0> d           0.765  -0.019  -1.155  0.00  0.00     0.153 C 
BRANCH  19  20
ATOM     20  N1  <0> d           0.947  -1.457  -1.372  0.00  0.00    -0.350 N 
ATOM     21  C6  <0> d           0.139  -2.268  -2.090  0.00  0.00     0.182 A 
ATOM     22  N2  <0> d           0.625  -3.478  -2.057  0.00  0.00    -0.361 N 
ATOM     23  C5  <0> d           1.745  -3.485  -1.318  0.00  0.00     0.106 A 
ATOM     24  H25 <0> d           0.237  -4.251  -2.495  0.00  0.00     0.166 HD
ATOM     25  C4  <0> d           1.963  -2.231  -0.880  0.00  0.00     0.108 A 
ENDBRANCH  19  20
ENDBRANCH  17  19
ENDBRANCH   1  17
TORSDOF 5
