REMARK  4 active torsions:
REMARK  status: ('A' for Active; 'I' for Inactive)
REMARK    1  A    between atoms: C4_4  and  C7_7 
REMARK    2  A    between atoms: C7_7  and  C8_8 
REMARK    3  A    between atoms: C7_7  and  N2_12 
REMARK    4  A    between atoms: C8_8  and  C9_9 
ROOT
ATOM      1  C7  <0> d           3.711  -0.707  -0.038  0.00  0.00     0.150 C 
ENDROOT
BRANCH   1   2
ATOM      2  C4  <0> d           2.396   0.029  -0.020  0.00  0.00    -0.033 A 
ATOM      3  C3  <0> d           2.377   1.411  -0.013  0.00  0.00     0.009 A 
ATOM      4  C2  <0> d           1.171   2.086   0.002  0.00  0.00     0.001 A 
ATOM      5  C1  <0> d          -0.017   1.378   0.010  0.00  0.00     0.000 A 
ATOM      6  C6  <0> d           0.002  -0.004   0.002  0.00  0.00     0.001 A 
ATOM      7  C5  <0> d           1.208  -0.679  -0.012  0.00  0.00     0.009 A 
ENDBRANCH   1   2
BRANCH   1   8
ATOM      8  C8  <0> d           3.817  -1.592   1.206  0.00  0.00     0.101 C 
BRANCH   8   9
ATOM      9  C9  <0> d           5.181  -2.232   1.252  0.00  0.00     0.073 C 
ATOM     10  S1  <0> d           6.245  -1.931   0.098  0.00  0.00    -0.066 SA
ATOM     11  N1  <0> d           5.503  -3.059   2.267  0.00  0.00    -0.393 N 
ATOM     12  H9  <0> d           4.857  -3.242   2.967  0.00  0.00     0.156 HD
ATOM     13  H10 <0> d           6.380  -3.472   2.296  0.00  0.00     0.156 HD
ENDBRANCH   8   9
ENDBRANCH   1   8
BRANCH   1  14
ATOM     14  N2  <0> d           3.788  -1.542  -1.239  0.00  0.00    -0.253 N 
ATOM     15  N4  <0> d           4.388  -1.204  -2.463  0.00  0.00    -0.164 NA
ATOM     16  C11 <0> d           4.232  -2.231  -3.256  0.00  0.00     0.256 A 
ATOM     17  N3  <0> d           3.566  -3.183  -2.606  0.00  0.00    -0.234 NA
ATOM     18  C10 <0> d           3.292  -2.783  -1.391  0.00  0.00     0.230 A 
ENDBRANCH   1  14
TORSDOF 4
