REMARK  7 active torsions:
REMARK  status: ('A' for Active; 'I' for Inactive)
REMARK    1  A    between atoms: C2_2  and  C3_3 
REMARK    2  A    between atoms: C3_3  and  C4_4 
REMARK    3  A    between atoms: C3_3  and  C6_6 
REMARK    4  A    between atoms: C3_3  and  C7_10 
REMARK    5  A    between atoms: C6_6  and  N2_9 
REMARK    6  A    between atoms: N1_7  and  O1_8 
REMARK       I    between atoms: C7_10  and  N3_12 
REMARK    7  A    between atoms: N3_12  and  C8_13 
ROOT
ATOM      1  C7  <0> d          -1.705   0.628  -0.991  0.00  0.00     0.238 C 
ATOM      2  O2  <0> d          -2.037   1.764  -0.725  0.00  0.00    -0.272 OA
ATOM      3  N3  <0> d          -2.234   0.004  -2.062  0.00  0.00    -0.325 N 
ATOM      4  H14 <0> d          -2.000  -0.918  -2.251  0.00  0.00     0.169 HD
ENDROOT
BRANCH   1   5
ATOM      5  C3  <0> d          -0.701  -0.086  -0.123  0.00  0.00     0.102 C 
BRANCH   5   6
ATOM      6  C2  <0> d           0.517  -0.472  -0.965  0.00  0.00     0.023 C 
ATOM      7  C1  <0> d           1.155   0.790  -1.549  0.00  0.00     0.007 C 
ENDBRANCH   5   6
BRANCH   5   8
ATOM      8  C4  <0> d          -1.338  -1.348   0.461  0.00  0.00     0.023 C 
ATOM      9  C5  <0> d          -0.360  -2.010   1.434  0.00  0.00     0.007 C 
ENDBRANCH   5   8
BRANCH   5  10
ATOM     10  C6  <0> d          -0.269   0.824   0.998  0.00  0.00     0.143 C 
ATOM     11  N1  <0> d           0.986   1.066   1.185  0.00  0.00    -0.122 NA
BRANCH  11  12
ATOM     12  O1  <0> d           1.392   1.921   2.239  0.00  0.00    -0.265 OA
ATOM     13  H11 <0> d           2.350   2.042   2.300  0.00  0.00     0.247 HD
ENDBRANCH  11  12
BRANCH  10  14
ATOM     14  N2  <0> d          -1.212   1.397   1.822  0.00  0.00    -0.385 N 
ATOM     15  H12 <0> d          -2.156   1.261   1.647  0.00  0.00     0.157 HD
ATOM     16  H13 <0> d          -0.931   1.936   2.578  0.00  0.00     0.157 HD
ENDBRANCH  10  14
ENDBRANCH   5  10
ENDBRANCH   1   5
BRANCH   3  17
ATOM     17  C8  <0> d          -3.120   0.687  -2.903  0.00  0.00     0.046 A 
ATOM     18  C13 <0> d          -2.834   0.820  -4.255  0.00  0.00    -0.033 A 
ATOM     19  C12 <0> d          -3.713   1.491  -5.083  0.00  0.00     0.028 A 
ATOM     20  C14 <0> d          -1.569   0.228  -4.820  0.00  0.00     0.050 C 
ATOM     21  C11 <0> d          -4.873   2.039  -4.564  0.00  0.00     0.012 A 
ATOM     22  C10 <0> d          -5.158   1.913  -3.216  0.00  0.00     0.028 A 
ATOM     23 Br1  <0> d          -6.071   2.962  -5.699  0.00  0.00    -0.051 Br
ATOM     24  C9  <0> d          -4.285   1.239  -2.384  0.00  0.00    -0.033 A 
ATOM     25  C15 <0> d          -4.596   1.101  -0.916  0.00  0.00     0.050 C 
ENDBRANCH   3  17
TORSDOF 7
