REMARK  5 active torsions:
REMARK  status: ('A' for Active; 'I' for Inactive)
REMARK    1  A    between atoms: C2_2  and  C3_3 
REMARK    2  A    between atoms: C2_2  and  N1_8 
REMARK    3  A    between atoms: N1_8  and  C8_10 
REMARK    4  A    between atoms: C8_10  and  C9_11 
REMARK    5  A    between atoms: C12_14  and  N2_18 
ROOT
ATOM      1  C8  <0> d          -1.356  -1.981   0.004  0.00  0.00     0.275 C 
ENDROOT
BRANCH   1   2
ATOM      2  N1  <0> d          -1.376  -0.512   0.012  0.00  0.00    -0.063 N 
ATOM      3  C7  <0> d          -2.064  -0.039   1.221  0.00  0.00     0.270 C 
ATOM      4  H18 <0> d          -1.864  -0.178  -0.805  0.00  0.00     0.280 HD
BRANCH   2   5
ATOM      5  C2  <0> d           0.002  -0.004   0.002  0.00  0.00     0.223 C 
ATOM      6  C1  <0> d          -0.019   1.526   0.010  0.00  0.00     0.046 C 
BRANCH   5   7
ATOM      7  C3  <0> d           0.707  -0.490  -1.238  0.00  0.00     0.013 A 
ATOM      8  S1  <0> d           0.081  -0.638  -2.903  0.00  0.00    -0.104 SA
ATOM      9  C6  <0> d           1.561  -1.273  -3.674  0.00  0.00     0.050 A 
ATOM     10  C5  <0> d           2.418  -1.335  -2.625  0.00  0.00     0.008 A 
ATOM     11  C4  <0> d           1.980  -0.934  -1.377  0.00  0.00     0.017 A 
ENDBRANCH   5   7
ENDBRANCH   2   5
ENDBRANCH   1   2
BRANCH   1  12
ATOM     12  C9  <0> d          -2.766  -2.502  -0.109  0.00  0.00    -0.015 A 
ATOM     13  C14 <0> d          -3.392  -2.538  -1.342  0.00  0.00     0.021 A 
ATOM     14  C13 <0> d          -4.682  -3.020  -1.450  0.00  0.00     0.048 A 
ATOM     15 Br1  <0> d          -2.478  -1.932  -2.883  0.00  0.00    -0.050 Br
ATOM     16  C12 <0> d          -5.354  -3.459  -0.317  0.00  0.00     0.026 A 
ATOM     17  C11 <0> d          -4.724  -3.417   0.921  0.00  0.00     0.029 A 
ATOM     18  C10 <0> d          -3.433  -2.938   1.021  0.00  0.00     0.012 A 
BRANCH  16  19
ATOM     19  N2  <0> d          -6.660  -3.943  -0.421  0.00  0.00    -0.399 N 
ATOM     20  H16 <0> d          -7.129  -4.250   0.371  0.00  0.00     0.156 HD
ATOM     21  H17 <0> d          -7.099  -3.972  -1.286  0.00  0.00     0.156 HD
ENDBRANCH  16  19
ENDBRANCH   1  12
TORSDOF 5
