REMARK  7 active torsions:
REMARK  status: ('A' for Active; 'I' for Inactive)
REMARK    1  A    between atoms: N1_7  and  C5_8 
REMARK    2  A    between atoms: C5_8  and  C6_9 
REMARK    3  A    between atoms: C6_9  and  C7_10 
REMARK    4  A    between atoms: C7_10  and  O3_12 
REMARK    5  A    between atoms: O3_12  and  C8_13 
REMARK    6  A    between atoms: C8_13  and  C9_14 
REMARK    7  A    between atoms: C9_14  and  C10_16 
ROOT
ATOM      1  C9  <0> d          -3.884   2.113   6.638  0.00  0.00     0.192 C 
ATOM      2  O4  <0> d          -4.848   1.741   6.000  0.00  0.00    -0.290 OA
ENDROOT
BRANCH   1   3
ATOM      3  C8  <0> d          -2.493   1.887   6.103  0.00  0.00     0.263 C 
BRANCH   3   4
ATOM      4  O3  <0> d          -2.570   1.224   4.840  0.00  0.00    -0.314 OA
BRANCH   4   5
ATOM      5  C7  <0> d          -1.410   0.948   4.224  0.00  0.00     0.260 C 
ATOM      6  O2  <0> d          -0.363   1.259   4.741  0.00  0.00    -0.265 OA
BRANCH   5   7
ATOM      7  C6  <0> d          -1.413   0.250   2.889  0.00  0.00     0.131 C 
BRANCH   7   8
ATOM      8  C5  <0> d           0.028   0.057   2.411  0.00  0.00     0.142 C 
BRANCH   8   9
ATOM      9  N1  <0> d           0.025  -0.622   1.113  0.00  0.00    -0.312 N 
ATOM     10  C2  <0> d          -0.017   0.099  -0.044  0.00  0.00     0.018 A 
ATOM     11  C1  <0> d          -0.062   1.605  -0.030  0.00  0.00     0.069 C 
ATOM     12  C3  <0> d          -0.011  -0.587  -1.191  0.00  0.00     0.080 A 
ATOM     13  S1  <0> d           0.047  -2.272  -0.609  0.00  0.00    -0.039 SA
ATOM     14  C4  <0> d           0.059  -1.969   1.044  0.00  0.00     0.290 A 
ATOM     15  O1  <0> d           0.095  -2.772   1.960  0.00  0.00    -0.260 OA
ENDBRANCH   8   9
ENDBRANCH   7   8
ENDBRANCH   5   7
ENDBRANCH   4   5
ENDBRANCH   3   4
ENDBRANCH   1   3
BRANCH   1  16
ATOM     16  C10 <0> d          -4.066   2.755   7.881  0.00  0.00     0.124 A 
ATOM     17  C13 <0> d          -2.919   3.095   8.734  0.00  0.00     0.269 A 
ATOM     18  N3  <0> d          -3.150   3.713   9.911  0.00  0.00    -0.270 N 
ATOM     19  O6  <0> d          -1.784   2.827   8.385  0.00  0.00    -0.267 OA
ATOM     20  C12 <0> d          -4.401   4.005  10.302  0.00  0.00     0.332 A 
ATOM     21  C14 <0> d          -2.021   4.067  10.775  0.00  0.00     0.164 C 
ATOM     22  N2  <0> d          -5.476   3.707   9.556  0.00  0.00    -0.289 N 
ATOM     23  O5  <0> d          -4.566   4.558  11.372  0.00  0.00    -0.246 OA
ATOM     24  C11 <0> d          -5.351   3.086   8.346  0.00  0.00     0.124 A 
ATOM     25  C15 <0> d          -6.811   4.056  10.049  0.00  0.00     0.163 C 
ATOM     26  N4  <0> d          -6.451   2.792   7.602  0.00  0.00    -0.384 N 
ATOM     27  H17 <0> d          -6.360   2.283   6.782  0.00  0.00     0.157 HD
ATOM     28  H18 <0> d          -7.327   3.093   7.892  0.00  0.00     0.157 HD
ENDBRANCH   1  16
TORSDOF 7
