REMARK  5 active torsions:
REMARK  status: ('A' for Active; 'I' for Inactive)
REMARK       I    between atoms: N1_2  and  C3_4 
REMARK    1  A    between atoms: C3_4  and  C4_6 
REMARK    2  A    between atoms: C4_6  and  N2_7 
REMARK    3  A    between atoms: N3_10  and  C9_13 
REMARK    4  A    between atoms: N5_25  and  C18_26 
REMARK    5  A    between atoms: C18_26  and  C19_27 
REMARK       I    between atoms: C19_27  and  N6_29 
ROOT
ATOM      1  C9  <0> d          -5.481  -5.007  -1.670  0.00  0.00     0.709 A 
ATOM      2  N4  <0> d          -4.977  -5.499  -2.784  0.00  0.00    -0.056 NA
ATOM      3  C10 <0> d          -5.680  -6.341  -3.533  0.00  0.00     0.133 A 
ATOM      4  C11 <0> d          -6.977  -6.745  -3.184  0.00  0.00     0.076 A 
ATOM      5  C12 <0> d          -7.633  -7.681  -4.111  0.00  0.00    -0.026 A 
ATOM      6  C13 <0> d          -6.932  -8.057  -5.192  0.00  0.00    -0.008 A 
ATOM      7  S1  <0> d          -5.379  -7.202  -5.053  0.00  0.00    -0.073 SA
ATOM      8  C14 <0> d          -7.698  -9.017  -6.062  0.00  0.00     0.047 C 
ATOM      9  C15 <0> d          -8.835  -9.538  -5.155  0.00  0.00     0.010 C 
ATOM     10  C16 <0> d          -8.998  -8.375  -4.157  0.00  0.00     0.041 C 
ATOM     11  C17 <0> d          -7.499  -6.197  -1.970  0.00  0.00     0.276 A 
ATOM     12  O2  <0> d          -8.618  -6.493  -1.588  0.00  0.00    -0.266 OA
ATOM     13  N5  <0> d          -6.733  -5.352  -1.254  0.00  0.00    -0.136 N 
ENDROOT
BRANCH   1  14
ATOM     14  N3  <0> d          -4.733  -4.139  -0.915  0.00  0.00    -0.212 N 
ATOM     15  C6  <0> d          -4.788  -2.689  -1.152  0.00  0.00     0.169 C 
ATOM     16  C5  <0> d          -3.355  -2.162  -1.280  0.00  0.00     0.256 C 
ATOM     17  N2  <0> d          -2.584  -2.553  -0.092  0.00  0.00    -0.060 N 
ATOM     18  C8  <0> d          -2.464  -4.015  -0.033  0.00  0.00     0.256 C 
ATOM     19  H27 <0> d          -3.055  -2.221   0.736  0.00  0.00     0.280 HD
ATOM     20  C7  <0> d          -3.853  -4.633   0.156  0.00  0.00     0.169 C 
BRANCH  17  21
ATOM     21  C4  <0> d          -1.244  -1.956  -0.163  0.00  0.00     0.337 C 
BRANCH  21  22
ATOM     22  C3  <0> d          -1.359  -0.454  -0.100  0.00  0.00     0.245 C 
ATOM     23  N1  <0> d          -0.249   0.309  -0.149  0.00  0.00    -0.359 N 
ATOM     24  C1  <0> d          -0.361   1.768  -0.087  0.00  0.00     0.152 C 
ATOM     25  C2  <0> d           1.069  -0.321  -0.263  0.00  0.00     0.152 C 
ATOM     26  O1  <0> d          -2.450   0.067  -0.006  0.00  0.00    -0.272 OA
ENDBRANCH  21  22
ENDBRANCH  17  21
ENDBRANCH   1  14
BRANCH  13  27
ATOM     27  C18 <0> d          -7.256  -4.789  -0.007  0.00  0.00     0.253 C 
BRANCH  27  28
ATOM     28  C19 <0> d          -8.053  -3.547  -0.312  0.00  0.00     0.234 C 
ATOM     29  O3  <0> d          -8.172  -3.169  -1.459  0.00  0.00    -0.272 OA
ATOM     30  N6  <0> d          -8.633  -2.855   0.688  0.00  0.00    -0.369 N 
ATOM     31  H25 <0> d          -8.538  -3.157   1.605  0.00  0.00     0.159 HD
ATOM     32  H26 <0> d          -9.146  -2.056   0.492  0.00  0.00     0.159 HD
ENDBRANCH  27  28
ENDBRANCH  13  27
TORSDOF 5
