REMARK  5 active torsions:
REMARK  status: ('A' for Active; 'I' for Inactive)
REMARK    1  A    between atoms: C7_7  and  C15_18 
REMARK    2  A    between atoms: C8_8  and  C9_11 
REMARK    3  A    between atoms: C15_18  and  C16_20 
REMARK    4  A    between atoms: C16_20  and  N2_21 
REMARK    5  A    between atoms: N3_24  and  C21_27 
ROOT
ATOM      1  C1  <0> d          -0.017   1.374   0.010  0.00  0.00     0.001 A 
ATOM      2  C2  <0> d           1.172   2.089   0.002  0.00  0.00     0.002 A 
ATOM      3  C3  <0> d           2.385   1.435  -0.013  0.00  0.00     0.030 A 
ATOM      4  C4  <0> d           2.425   0.044  -0.021  0.00  0.00     0.044 A 
ATOM      5  C5  <0> d           1.221  -0.678  -0.013  0.00  0.00     0.007 A 
ATOM      6  C6  <0> d           0.002  -0.004   0.002  0.00  0.00     0.015 A 
ATOM      7  C7  <0> d           1.597  -2.104  -0.025  0.00  0.00     0.052 A 
ATOM      8  C8  <0> d           2.990  -2.138  -0.039  0.00  0.00     0.058 A 
ATOM      9  N1  <0> d           3.467  -0.863  -0.037  0.00  0.00    -0.354 N 
ATOM     10  H1  <0> d           4.407  -0.624  -0.045  0.00  0.00     0.166 HD
ENDROOT
BRANCH   7  11
ATOM     11  C15 <0> d           0.721  -3.212  -0.021  0.00  0.00     0.190 C 
ATOM     12  O1  <0> d           1.169  -4.341  -0.032  0.00  0.00    -0.290 OA
BRANCH  11  13
ATOM     13  C16 <0> d          -0.770  -2.994  -0.006  0.00  0.00     0.356 C 
BRANCH  13  14
ATOM     14  N2  <0> d          -1.455  -4.293  -0.005  0.00  0.00     0.099 N 
ATOM     15  C20 <0> d          -2.894  -4.130   0.248  0.00  0.00     0.300 C 
ATOM     16  C19 <0> d          -3.559  -5.507   0.300  0.00  0.00     0.265 C 
ATOM     17  N3  <0> d          -3.345  -6.203  -0.976  0.00  0.00    -0.063 N 
ATOM     18  C18 <0> d          -1.904  -6.380  -1.204  0.00  0.00     0.265 C 
ATOM     19  H27 <0> d          -3.739  -5.656  -1.727  0.00  0.00     0.280 HD
ATOM     20  C17 <0> d          -1.226  -5.010  -1.268  0.00  0.00     0.300 C 
BRANCH  17  21
ATOM     21  C21 <0> d          -3.999  -7.517  -0.933  0.00  0.00     0.203 C 
ATOM     22  C24 <0> d          -3.754  -8.257  -2.270  0.00  0.00     0.173 C 
ATOM     23  S1  <0> d          -5.282  -9.261  -2.463  0.00  0.00     0.146 S 
ATOM     24  C23 <0> d          -6.211  -8.690  -0.978  0.00  0.00     0.142 C 
ATOM     25  O2  <0> d          -4.957 -10.635  -2.305  0.00  0.00    -0.228 OA
ATOM     26  O3  <0> d          -5.971  -8.835  -3.631  0.00  0.00    -0.228 OA
ATOM     27  C22 <0> d          -5.508  -7.329  -0.708  0.00  0.00     0.049 C 
ENDBRANCH  17  21
ENDBRANCH  13  14
ENDBRANCH  11  13
ENDBRANCH   7  11
BRANCH   8  28
ATOM     28  C9  <0> d           3.816  -3.360  -0.053  0.00  0.00    -0.008 A 
ATOM     29  C14 <0> d           4.908  -3.458  -0.920  0.00  0.00     0.017 A 
ATOM     30  C13 <0> d           5.679  -4.601  -0.925  0.00  0.00     0.043 A 
ATOM     31  C12 <0> d           5.366  -5.656  -0.082  0.00  0.00     0.116 A 
ATOM     32  C11 <0> d           4.280  -5.566   0.776  0.00  0.00     0.043 A 
ATOM     33  F1  <0> d           6.123  -6.775  -0.095  0.00  0.00    -0.206 F 
ATOM     34  C10 <0> d           3.505  -4.427   0.794  0.00  0.00     0.017 A 
ENDBRANCH   8  28
TORSDOF 5
