REMARK  5 active torsions:
REMARK  status: ('A' for Active; 'I' for Inactive)
REMARK    1  A    between atoms: C4_4  and  C7_11 
REMARK    2  A    between atoms: C5_5  and  C6_7 
REMARK       I    between atoms: C7_11  and  N1_13 
REMARK    3  A    between atoms: C9_15  and  C16_23 
REMARK       I    between atoms: C16_23  and  N3_25 
REMARK    4  A    between atoms: N3_25  and  C17_26 
REMARK    5  A    between atoms: C17_26  and  C18_27 
ROOT
ATOM      1  C7  <0> d          -1.367  -3.430  -0.015  0.00  0.00     0.256 C 
ATOM      2  O2  <0> d          -0.814  -4.508  -0.125  0.00  0.00    -0.267 OA
ATOM      3  N1  <0> d          -2.708  -3.369   0.094  0.00  0.00    -0.346 N 
ATOM      4  C8  <0> d          -3.563  -2.159   0.118  0.00  0.00     0.141 C 
ATOM      5  C9  <0> d          -4.807  -2.543  -0.714  0.00  0.00     0.106 C 
ATOM      6  C10 <0> d          -4.868  -4.078  -0.643  0.00  0.00    -0.007 C 
ATOM      7  C11 <0> d          -3.663  -4.497   0.212  0.00  0.00     0.136 C 
ATOM      8  C12 <0> d          -4.749  -4.678  -2.041  0.00  0.00     0.039 C 
ATOM      9  C13 <0> d          -4.869  -6.202  -1.949  0.00  0.00     0.233 C 
ATOM     10  N2  <0> d          -6.161  -6.557  -1.351  0.00  0.00    -0.075 N 
ATOM     11  C14 <0> d          -6.230  -6.056   0.027  0.00  0.00     0.233 C 
ATOM     12  C15 <0> d          -6.168  -4.526   0.019  0.00  0.00     0.039 C 
ATOM     13  H15 <0> d          -6.906  -6.147  -1.894  0.00  0.00     0.277 HD
ATOM     14  H29 <0> d          -6.264  -7.561  -1.348  0.00  0.00     0.277 HD
ENDROOT
BRANCH   1  15
ATOM     15  C4  <0> d          -0.569  -2.191  -0.002  0.00  0.00     0.073 A 
ATOM     16  C3  <0> d          -0.934  -0.905   0.609  0.00  0.00     0.052 A 
ATOM     17  C2  <0> d           0.094  -0.077   0.370  0.00  0.00     0.051 A 
ATOM     18  C1  <0> d           0.177   1.363   0.807  0.00  0.00     0.076 C 
ATOM     19  O1  <0> d           1.035  -0.735  -0.326  0.00  0.00    -0.310 OA
ATOM     20  C5  <0> d           0.664  -1.998  -0.555  0.00  0.00     0.175 A 
BRANCH  20  21
ATOM     21  C6  <0> d           1.467  -3.032  -1.301  0.00  0.00     0.440 C 
ATOM     22  F1  <0> d           1.150  -2.975  -2.662  0.00  0.00    -0.164 F 
ATOM     23  F2  <0> d           2.832  -2.775  -1.129  0.00  0.00    -0.164 F 
ATOM     24  F3  <0> d           1.166  -4.304  -0.804  0.00  0.00    -0.164 F 
ENDBRANCH  20  21
ENDBRANCH   1  15
BRANCH   5  25
ATOM     25  C16 <0> d          -4.645  -2.088  -2.142  0.00  0.00     0.224 C 
ATOM     26  O3  <0> d          -3.550  -2.104  -2.663  0.00  0.00    -0.273 OA
ATOM     27  N3  <0> d          -5.717  -1.664  -2.840  0.00  0.00    -0.358 N 
ATOM     28  H20 <0> d          -6.593  -1.651  -2.423  0.00  0.00     0.162 HD
BRANCH  27  29
ATOM     29  C17 <0> d          -5.560  -1.222  -4.227  0.00  0.00     0.154 C 
BRANCH  29  30
ATOM     30  C18 <0> d          -6.919  -0.794  -4.784  0.00  0.00     0.139 C 
ATOM     31  O4  <0> d          -7.822  -1.911  -4.805  0.00  0.00    -0.384 OA
ATOM     32  C21 <0> d          -8.655  -1.844  -5.970  0.00  0.00     0.168 C 
ATOM     33  C20 <0> d          -8.224  -0.602  -6.780  0.00  0.00     0.029 C 
ATOM     34  C19 <0> d          -6.781  -0.355  -6.263  0.00  0.00     0.035 C 
ENDBRANCH  29  30
ENDBRANCH  27  29
ENDBRANCH   5  25
TORSDOF 5
