REMARK  3 active torsions:
REMARK  status: ('A' for Active; 'I' for Inactive)
REMARK    1  A    between atoms: C3_3  and  C5_6 
REMARK    2  A    between atoms: C5_6  and  C6_7 
REMARK    3  A    between atoms: C6_7  and  N1_8 
ROOT
ATOM      1  N1  <0> d           5.587   0.572   1.393  0.00  0.00    -0.273 N 
ATOM      2  C7  <0> d           6.341  -0.543   1.374  0.00  0.00     0.343 A 
ATOM      3  O2  <0> d           5.923  -1.685   1.367  0.00  0.00    -0.245 OA
ATOM      4  N2  <0> d           7.639  -0.178   1.365  0.00  0.00    -0.249 N 
ATOM      5  H1  <0> d           8.406  -0.772   1.351  0.00  0.00     0.192 HD
ATOM      6  N3  <0> d           7.672   1.225   1.379  0.00  0.00    -0.272 N 
ATOM      7  C8  <0> d           6.392   1.650   1.391  0.00  0.00     0.197 A 
ATOM      8  S1  <0> d           5.879   3.284   1.405  0.00  0.00    -0.039 SA
ATOM      9  H9  <0> d           8.465   1.784   1.376  0.00  0.00     0.189 HD
ENDROOT
BRANCH   1  10
ATOM     10  C6  <0> d           4.123   0.606   1.408  0.00  0.00     0.143 C 
BRANCH  10  11
ATOM     11  C5  <0> d           3.599   0.625  -0.029  0.00  0.00     0.085 C 
BRANCH  11  12
ATOM     12  C3  <0> d           2.092   0.660  -0.014  0.00  0.00     0.054 A 
ATOM     13  C2  <0> d           1.331   1.769  -0.001  0.00  0.00     0.034 A 
ATOM     14  C1  <0> d          -0.016   1.341   0.009  0.00  0.00     0.027 A 
ATOM     15  C4  <0> d           0.002  -0.004   0.002  0.00  0.00     0.142 A 
ATOM     16  O1  <0> d           1.282  -0.411  -0.012  0.00  0.00    -0.327 OA
ENDBRANCH  11  12
ENDBRANCH  10  11
ENDBRANCH   1  10
TORSDOF 3
