REMARK  4 active torsions:
REMARK  status: ('A' for Active; 'I' for Inactive)
REMARK    1  A    between atoms: C3_3  and  C7_9 
REMARK    2  A    between atoms: C7_9  and  N3_11 
REMARK    3  A    between atoms: N3_11  and  S1_12 
REMARK    4  A    between atoms: S1_12  and  C9_15 
REMARK       I    between atoms: N4_23  and  C17_24 
ROOT
ATOM      1  S1  <0> d          -2.926   3.767   0.339  0.00  0.00     0.259 S 
ATOM      2  O1  <0> d          -3.845   2.743   0.697  0.00  0.00    -0.201 OA
ATOM      3  O2  <0> d          -2.873   5.015   1.016  0.00  0.00    -0.201 OA
ENDROOT
BRANCH   1   4
ATOM      4  N3  <0> d          -3.196   4.107  -1.260  0.00  0.00    -0.306 N 
ATOM      5  H15 <0> d          -3.148   5.151  -1.602  0.00  0.00     0.173 HD
BRANCH   4   6
ATOM      6  C7  <0> d          -3.278   3.018  -2.236  0.00  0.00     0.126 C 
ATOM      7  C8  <0> d          -1.903   2.797  -2.870  0.00  0.00     0.038 C 
BRANCH   6   8
ATOM      8  C3  <0> d          -4.273   3.379  -3.309  0.00  0.00     0.015 A 
ATOM      9  C2  <0> d          -4.303   4.574  -4.034  0.00  0.00     0.061 A 
ATOM     10  C1  <0> d          -3.345   5.727  -3.879  0.00  0.00     0.073 C 
ATOM     11  N2  <0> d          -5.307   4.519  -4.872  0.00  0.00    -0.177 NA
ATOM     12  N1  <0> d          -5.948   3.284  -4.705  0.00  0.00    -0.278 N 
ATOM     13  C4  <0> d          -5.291   2.602  -3.744  0.00  0.00     0.036 A 
ATOM     14  C5  <0> d          -7.121   2.816  -5.447  0.00  0.00     0.179 C 
ATOM     15  C6  <0> d          -5.633   1.222  -3.244  0.00  0.00     0.070 C 
ENDBRANCH   6   8
ENDBRANCH   4   6
ENDBRANCH   1   4
BRANCH   1  16
ATOM     16  C9  <0> d          -1.315   3.061   0.456  0.00  0.00     0.080 A 
ATOM     17  C14 <0> d          -0.216   3.875   0.656  0.00  0.00     0.034 A 
ATOM     18  C13 <0> d           1.048   3.323   0.749  0.00  0.00    -0.028 A 
ATOM     19  C12 <0> d           1.226   1.953   0.643  0.00  0.00     0.044 A 
ATOM     20  C15 <0> d           2.398   3.969   0.961  0.00  0.00     0.066 A 
ATOM     21  C11 <0> d           0.110   1.138   0.443  0.00  0.00     0.032 A 
ATOM     22  N4  <0> d           2.573   1.598   0.763  0.00  0.00    -0.313 N 
ATOM     23  C10 <0> d          -1.148   1.693   0.346  0.00  0.00     0.027 A 
ATOM     24  C16 <0> d           3.392   2.796   0.965  0.00  0.00     0.093 A 
ATOM     25  C17 <0> d           3.048   0.338   0.702  0.00  0.00     0.220 C 
ATOM     26  C19 <0> d           4.120   2.723   2.309  0.00  0.00     0.033 C 
ATOM     27  O3  <0> d           2.279  -0.597   0.627  0.00  0.00    -0.273 OA
ATOM     28  C18 <0> d           4.535   0.091   0.727  0.00  0.00     0.117 C 
ENDBRANCH   1  16
TORSDOF 4
