REMARK  1 active torsions:
REMARK  status: ('A' for Active; 'I' for Inactive)
REMARK    1  A    between atoms: C9_13  and  C10_15 
ROOT
ATOM      1  C1  <0> d          -0.244   0.811   2.403  0.00  0.00     0.270 C 
ATOM      2  N1  <0> d          -0.696   1.557   1.221  0.00  0.00    -0.070 N 
ATOM      3  C2  <0> d          -0.013   1.086   0.008  0.00  0.00     0.239 C 
ATOM      4  C3  <0> d          -0.748   1.591  -1.236  0.00  0.00     0.068 C 
ATOM      5  C4  <0> d          -0.933   3.098  -1.102  0.00  0.00    -0.023 A 
ATOM      6  C5  <0> d          -0.806   3.689   0.109  0.00  0.00     0.018 A 
ATOM      7  S1  <0> d          -1.093   5.412  -0.192  0.00  0.00    -0.074 SA
ATOM      8  C6  <0> d          -1.374   5.346  -1.880  0.00  0.00     0.088 A 
ATOM      9  C7  <0> d          -1.248   3.986  -2.207  0.00  0.00     0.073 A 
ATOM     10  C8  <0> d          -1.435   3.604  -3.625  0.00  0.00     0.256 C 
ATOM     11  O1  <0> d          -1.221   2.469  -4.009  0.00  0.00    -0.267 OA
ATOM     12  N2  <0> d          -1.853   4.565  -4.474  0.00  0.00    -0.332 N 
ATOM     13  C9  <0> d          -2.345   5.868  -4.037  0.00  0.00     0.219 C 
ATOM     14  N3  <0> d          -1.660   6.312  -2.809  0.00  0.00    -0.358 N 
ATOM     15  C16 <0> d          -0.491   3.007   1.403  0.00  0.00     0.281 C 
ATOM     16  H9  <0> d          -1.810   4.326  -5.547  0.00  0.00     0.165 HD
ATOM     17  H10 <0> d          -1.406   7.374  -2.674  0.00  0.00     0.162 HD
ATOM     18  H17 <0> d          -1.773   1.370   1.099  0.00  0.00     0.279 HD
ENDROOT
BRANCH  13  19
ATOM     19  C10 <0> d          -3.825   5.773  -3.771  0.00  0.00    -0.016 A 
ATOM     20  C15 <0> d          -4.593   4.851  -4.457  0.00  0.00     0.014 A 
ATOM     21  C14 <0> d          -5.950   4.763  -4.214  0.00  0.00     0.043 A 
ATOM     22  C13 <0> d          -6.541   5.598  -3.281  0.00  0.00     0.116 A 
ATOM     23  C12 <0> d          -5.771   6.522  -2.594  0.00  0.00     0.043 A 
ATOM     24  F1  <0> d          -7.868   5.513  -3.043  0.00  0.00    -0.206 F 
ATOM     25  C11 <0> d          -4.413   6.604  -2.836  0.00  0.00     0.014 A 
ENDBRANCH  13  19
TORSDOF 1
