REMARK  7 active torsions:
REMARK  status: ('A' for Active; 'I' for Inactive)
REMARK    1  A    between atoms: C2_2  and  O1_3 
REMARK    2  A    between atoms: O1_3  and  C3_4 
REMARK    3  A    between atoms: C6_7  and  N1_10 
REMARK       I    between atoms: N1_10  and  C9_11 
REMARK    4  A    between atoms: C9_11  and  C10_13 
REMARK    5  A    between atoms: C11_14  and  N4_33 
REMARK    6  A    between atoms: N3_24  and  C20_26 
REMARK    7  A    between atoms: C20_26  and  C21_27 
ROOT
ATOM      1  C10 <0> d           1.650  -7.840  -3.181  0.00  0.00     0.102 A 
ATOM      2  C11 <0> d           2.151  -8.533  -4.261  0.00  0.00     0.062 A 
ATOM      3  C12 <0> d           2.051  -9.984  -4.257  0.00  0.00     0.028 A 
ATOM      4  C13 <0> d           2.486 -10.905  -5.240  0.00  0.00     0.027 A 
ATOM      5  C14 <0> d           2.292 -12.256  -5.036  0.00  0.00    -0.007 A 
ATOM      6  C15 <0> d           1.679 -12.701  -3.877  0.00  0.00     0.045 A 
ATOM      7  N2  <0> d           1.273 -11.835  -2.963  0.00  0.00    -0.245 NA
ATOM      8  C16 <0> d           1.435 -10.540  -3.114  0.00  0.00     0.111 A 
ATOM      9  S1  <0> d           1.030  -9.128  -2.116  0.00  0.00    -0.062 SA
ATOM     10  C17 <0> d           1.461 -14.171  -3.620  0.00  0.00     0.087 C 
ATOM     11  C18 <0> d           1.614 -14.953  -4.925  0.00  0.00     0.241 C 
ATOM     12  N3  <0> d           2.886 -14.569  -5.555  0.00  0.00    -0.063 N 
ATOM     13  C19 <0> d           2.760 -13.215  -6.100  0.00  0.00     0.275 C 
ATOM     14  H27 <0> d           3.623 -14.588  -4.866  0.00  0.00     0.280 HD
ENDROOT
BRANCH   1  15
ATOM     15  C9  <0> d           1.635  -6.440  -2.965  0.00  0.00     0.265 C 
ATOM     16  N1  <0> d           1.102  -5.937  -1.834  0.00  0.00    -0.322 N 
ATOM     17  H10 <0> d           0.797  -6.536  -1.134  0.00  0.00     0.169 HD
ATOM     18  O2  <0> d           2.105  -5.690  -3.802  0.00  0.00    -0.267 OA
BRANCH  16  19
ATOM     19  C6  <0> d           0.987  -4.551  -1.670  0.00  0.00     0.035 A 
ATOM     20  C5  <0> d           1.119  -3.989  -0.407  0.00  0.00     0.032 A 
ATOM     21  C4  <0> d           1.006  -2.622  -0.245  0.00  0.00     0.039 A 
ATOM     22  C3  <0> d           0.761  -1.811  -1.344  0.00  0.00     0.068 A 
ATOM     23  C8  <0> d           0.624  -2.373  -2.605  0.00  0.00     0.039 A 
ATOM     24  C7  <0> d           0.742  -3.739  -2.769  0.00  0.00     0.032 A 
BRANCH  22  25
ATOM     25  O1  <0> d           0.650  -0.465  -1.184  0.00  0.00    -0.352 OA
BRANCH  25  26
ATOM     26  C2  <0> d           0.803   0.045   0.142  0.00  0.00     0.171 C 
ATOM     27  C1  <0> d           0.647   1.567   0.123  0.00  0.00     0.034 C 
ENDBRANCH  25  26
ENDBRANCH  22  25
ENDBRANCH  16  19
ENDBRANCH   1  15
BRANCH   2  28
ATOM     28  N4  <0> d           2.737  -7.863  -5.326  0.00  0.00    -0.397 N 
ATOM     29  H25 <0> d           2.797  -6.894  -5.316  0.00  0.00     0.156 HD
ATOM     30  H26 <0> d           3.086  -8.362  -6.081  0.00  0.00     0.156 HD
ENDBRANCH   2  28
BRANCH  12  31
ATOM     31  C20 <0> d           3.201 -15.508  -6.639  0.00  0.00     0.273 C 
BRANCH  31  32
ATOM     32  C21 <0> d           4.562 -15.188  -7.202  0.00  0.00    -0.033 A 
ATOM     33  C26 <0> d           5.688 -15.787  -6.670  0.00  0.00     0.009 A 
ATOM     34  C25 <0> d           6.936 -15.496  -7.189  0.00  0.00     0.001 A 
ATOM     35  C24 <0> d           7.058 -14.601  -8.235  0.00  0.00     0.000 A 
ATOM     36  C23 <0> d           5.932 -13.999  -8.764  0.00  0.00     0.001 A 
ATOM     37  C22 <0> d           4.684 -14.292  -8.248  0.00  0.00     0.009 A 
ENDBRANCH  31  32
ENDBRANCH  12  31
TORSDOF 7
