REMARK  4 active torsions:
REMARK  status: ('A' for Active; 'I' for Inactive)
REMARK    1  A    between atoms: O1_2  and  C2_3 
REMARK    2  A    between atoms: C18_21  and  O4_28 
REMARK    3  A    between atoms: C19_22  and  O3_26 
REMARK    4  A    between atoms: C20_23  and  C21_24 
ROOT
ATOM      1  C2  <0> d          -1.975   1.163   1.348  0.00  0.00     0.070 A 
ATOM      2  C3  <0> d          -2.568   0.363   0.379  0.00  0.00     0.038 A 
ATOM      3  C4  <0> d          -3.867  -0.067   0.484  0.00  0.00     0.017 A 
ATOM      4  C5  <0> d          -4.583   0.348   1.611  0.00  0.00    -0.001 A 
ATOM      5  C6  <0> d          -3.987   1.170   2.603  0.00  0.00     0.046 A 
ATOM      6  C7  <0> d          -2.664   1.588   2.477  0.00  0.00     0.067 A 
ATOM      7  N1  <0> d          -4.930   1.400   3.563  0.00  0.00    -0.357 N 
ATOM      8  H1  <0> d          -4.795   1.933   4.362  0.00  0.00     0.166 HD
ATOM      9  C8  <0> d          -6.096   0.763   3.230  0.00  0.00     0.048 A 
ATOM     10  C9  <0> d          -5.939   0.110   2.055  0.00  0.00    -0.019 A 
ATOM     11  C10 <0> d          -7.032  -0.695   1.398  0.00  0.00     0.069 C 
ATOM     12  C11 <0> d          -8.367  -0.319   2.055  0.00  0.00     0.240 C 
ATOM     13  C12 <0> d          -7.389   0.751   4.006  0.00  0.00     0.238 C 
ATOM     14  C13 <0> d          -7.099   0.552   5.496  0.00  0.00     0.045 C 
ATOM     15  C14 <0> d          -8.427   0.511   6.258  0.00  0.00     0.010 C 
ATOM     16  C15 <0> d          -9.301  -0.614   5.698  0.00  0.00     0.019 C 
ATOM     17  C16 <0> d          -9.519  -0.385   4.199  0.00  0.00     0.240 C 
ATOM     18  C17 <0> d          -8.599  -1.958   5.902  0.00  0.00     0.041 C 
ATOM     19  C18 <0> d          -8.352  -2.188   7.394  0.00  0.00     0.148 C 
ATOM     20  C19 <0> d          -7.462  -1.068   7.939  0.00  0.00     0.164 C 
ATOM     21  C20 <0> d          -8.164   0.277   7.744  0.00  0.00     0.122 C 
ATOM     22  N2  <0> d          -8.200  -0.389   3.528  0.00  0.00    -0.061 N 
ATOM     23  H28 <0> d          -7.714  -1.263   3.762  0.00  0.00     0.280 HD
ENDROOT
BRANCH  21  24
ATOM     24  C21 <0> d          -7.289   1.381   8.278  0.00  0.00     0.180 C 
ATOM     25  O2  <0> d          -6.914   2.264   7.544  0.00  0.00    -0.648 OA
ATOM     26  O5  <0> d          -6.925   1.384   9.570  0.00  0.00    -0.648 OA
ENDBRANCH  21  24
BRANCH  20  27
ATOM     27  O3  <0> d          -7.222  -1.284   9.331  0.00  0.00    -0.387 OA
ATOM     28  C22 <0> d          -6.063  -2.074   9.605  0.00  0.00     0.202 C 
ENDBRANCH  20  27
BRANCH  19  29
ATOM     29  O4  <0> d          -9.600  -2.185   8.090  0.00  0.00    -0.393 OA
ATOM     30  H27 <0> d         -10.216  -2.870   7.794  0.00  0.00     0.210 HD
ENDBRANCH  19  29
BRANCH   1  31
ATOM     31  O1  <0> d          -0.682   1.547   1.184  0.00  0.00    -0.356 OA
ATOM     32  C1  <0> d          -0.013   1.086   0.008  0.00  0.00     0.210 C 
ENDBRANCH   1  31
TORSDOF 4
