REMARK  6 active torsions:
REMARK  status: ('A' for Active; 'I' for Inactive)
REMARK    1  A    between atoms: C2_2  and  O1_3 
REMARK    2  A    between atoms: O1_3  and  C3_4 
REMARK    3  A    between atoms: C3_4  and  C4_6 
REMARK    4  A    between atoms: C7_10  and  N1_11 
REMARK       I    between atoms: N1_11  and  C8_12 
REMARK    5  A    between atoms: C8_12  and  C9_14 
REMARK    6  A    between atoms: C12_17  and  N2_20 
ROOT
ATOM      1  C4  <0> d           1.316  -0.611  -0.021  0.00  0.00     0.080 A 
ATOM      2  C5  <0> d           0.002  -0.004   0.002  0.00  0.00    -0.021 A 
ATOM      3  C6  <0> d          -0.016   1.349   0.009  0.00  0.00     0.027 A 
ATOM      4  S1  <0> d           1.689   1.819  -0.004  0.00  0.00    -0.073 SA
ATOM      5  C7  <0> d           2.414   0.244  -0.025  0.00  0.00     0.094 A 
ATOM      6  C15 <0> d          -1.229   2.221   0.018  0.00  0.00     0.153 C 
ATOM      7  C16 <0> d          -2.322   0.119   0.809  0.00  0.00     0.124 C 
ATOM      8  C17 <0> d          -1.328  -0.746   0.025  0.00  0.00     0.079 C 
ATOM      9  C18 <0> d          -3.697  -0.572   0.750  0.00  0.00     0.046 C 
ATOM     10  C19 <0> d          -1.889   0.180   2.277  0.00  0.00     0.046 C 
ATOM     11  C20 <0> d          -1.069   3.301   1.099  0.00  0.00     0.052 C 
ATOM     12  C21 <0> d          -1.330   2.927  -1.347  0.00  0.00     0.052 C 
ATOM     13  N3  <0> d          -2.503   1.477   0.234  0.00  0.00    -0.054 N 
ATOM     14  H25 <0> d          -2.979   1.383  -0.671  0.00  0.00     0.279 HD
ATOM     15  H26 <0> d          -3.091   2.022   0.875  0.00  0.00     0.279 HD
ENDROOT
BRANCH   5  16
ATOM     16  N1  <0> d           3.758  -0.085  -0.043  0.00  0.00    -0.316 N 
ATOM     17  C8  <0> d           4.691   0.888  -0.044  0.00  0.00     0.256 C 
ATOM     18  O3  <0> d           4.351   2.055  -0.029  0.00  0.00    -0.267 OA
ATOM     19  H6  <0> d           4.029  -1.016  -0.054  0.00  0.00     0.169 HD
BRANCH  17  20
ATOM     20  C9  <0> d           6.126   0.537  -0.063  0.00  0.00     0.032 A 
ATOM     21  C14 <0> d           7.094   1.543  -0.065  0.00  0.00     0.019 A 
ATOM     22  C13 <0> d           8.432   1.208  -0.082  0.00  0.00     0.037 A 
ATOM     23  C12 <0> d           8.816  -0.122  -0.098  0.00  0.00     0.102 A 
ATOM     24  C11 <0> d           7.861  -1.124  -0.097  0.00  0.00     0.037 A 
ATOM     25  C10 <0> d           6.520  -0.802  -0.074  0.00  0.00     0.019 A 
BRANCH  23  26
ATOM     26  N2  <0> d          10.253  -0.474  -0.116  0.00  0.00    -0.116 N 
ATOM     27  O4  <0> d          11.096   0.406  -0.118  0.00  0.00    -0.532 OA
ATOM     28  O5  <0> d          10.594  -1.643  -0.131  0.00  0.00    -0.532 OA
ENDBRANCH  23  26
ENDBRANCH  17  20
ENDBRANCH   5  16
BRANCH   1  29
ATOM     29  C3  <0> d           1.497  -2.064  -0.041  0.00  0.00     0.296 C 
ATOM     30  O2  <0> d           1.560  -2.654  -1.103  0.00  0.00    -0.259 OA
BRANCH  29  31
ATOM     31  O1  <0> d           1.593  -2.748   1.117  0.00  0.00    -0.318 OA
BRANCH  31  32
ATOM     32  C2  <0> d           1.772  -4.186   1.021  0.00  0.00     0.174 C 
ATOM     33  C1  <0> d           1.860  -4.784   2.426  0.00  0.00     0.034 C 
ENDBRANCH  31  32
ENDBRANCH  29  31
ENDBRANCH   1  29
TORSDOF 6
