REMARK  6 active torsions:
REMARK  status: ('A' for Active; 'I' for Inactive)
REMARK    1  A    between atoms: C3_4  and  C7_11 
REMARK    2  A    between atoms: C7_11  and  N3_12 
REMARK    3  A    between atoms: N3_12  and  C8_13 
REMARK    4  A    between atoms: C8_13  and  C9_14 
REMARK    5  A    between atoms: C9_14  and  C10_15 
REMARK    6  A    between atoms: C9_14  and  O3_23 
ROOT
ATOM      1  N3  <0> d          -2.811  -3.178  -1.381  0.00  0.00     0.090 N 
ATOM      2  H11 <0> d          -2.873  -2.353  -1.959  0.00  0.00     0.316 HD
ENDROOT
BRANCH   1   3
ATOM      3  C7  <0> d          -2.448  -2.829  -0.002  0.00  0.00     0.315 C 
BRANCH   3   4
ATOM      4  C3  <0> d          -1.159  -2.048  -0.004  0.00  0.00     0.054 A 
ATOM      5  C2  <0> d          -1.177  -0.698   0.004  0.00  0.00     0.109 A 
ATOM      6  N1  <0> d           0.002  -0.004   0.002  0.00  0.00    -0.313 N 
ATOM      7  C1  <0> d          -0.018   1.461   0.010  0.00  0.00     0.160 C 
ATOM      8  C5  <0> d           1.180  -0.654  -0.013  0.00  0.00     0.330 A 
ATOM      9  N2  <0> d           1.227  -2.000  -0.016  0.00  0.00    -0.270 N 
ATOM     10  O2  <0> d           2.216  -0.018  -0.019  0.00  0.00    -0.246 OA
ATOM     11  C4  <0> d           0.087  -2.720  -0.014  0.00  0.00     0.260 A 
ATOM     12  C6  <0> d           2.522  -2.684  -0.026  0.00  0.00     0.164 C 
ATOM     13  O1  <0> d           0.129  -3.937  -0.022  0.00  0.00    -0.267 OA
ENDBRANCH   3   4
ENDBRANCH   1   3
BRANCH   1  14
ATOM     14  C8  <0> d          -4.065  -3.942  -1.418  0.00  0.00     0.306 C 
BRANCH  14  15
ATOM     15  C9  <0> d          -4.410  -4.287  -2.869  0.00  0.00     0.179 C 
BRANCH  15  16
ATOM     16  C10 <0> d          -5.697  -5.071  -2.906  0.00  0.00    -0.025 A 
ATOM     17  C15 <0> d          -5.663  -6.452  -2.933  0.00  0.00     0.055 A 
ATOM     18  C14 <0> d          -6.845  -7.173  -2.962  0.00  0.00     0.155 A 
ATOM     19  C13 <0> d          -8.061  -6.507  -2.976  0.00  0.00     0.154 A 
ATOM     20  F1  <0> d          -6.813  -8.523  -2.983  0.00  0.00    -0.203 F 
ATOM     21  C12 <0> d          -8.091  -5.123  -2.955  0.00  0.00     0.046 A 
ATOM     22  F2  <0> d          -9.215  -7.208  -3.009  0.00  0.00    -0.203 F 
ATOM     23  C11 <0> d          -6.910  -4.407  -2.920  0.00  0.00     0.013 A 
ENDBRANCH  15  16
BRANCH  15  24
ATOM     24  O3  <0> d          -4.564  -3.082  -3.621  0.00  0.00    -0.389 OA
ATOM     25  H17 <0> d          -5.263  -2.499  -3.292  0.00  0.00     0.210 HD
ENDBRANCH  15  24
ENDBRANCH  14  15
ENDBRANCH   1  14
TORSDOF 6
