REMARK  1 active torsions:
REMARK  status: ('A' for Active; 'I' for Inactive)
REMARK    1  A    between atoms: C2_3  and  C4_7 
ROOT
ATOM      1  C4  <0> d          -0.006  -0.350  -2.515  0.00  0.00     0.157 A 
ATOM      2  C5  <0> d          -1.389  -0.597  -3.139  0.00  0.00     0.074 A 
ATOM      3  C6  <0> d          -1.126  -1.555  -4.279  0.00  0.00    -0.029 A 
ATOM      4  C7  <0> d          -1.985  -2.132  -5.195  0.00  0.00     0.009 A 
ATOM      5  C8  <0> d          -1.495  -2.992  -6.160  0.00  0.00     0.001 A 
ATOM      6  C9  <0> d          -0.142  -3.275  -6.207  0.00  0.00     0.002 A 
ATOM      7  C10 <0> d           0.718  -2.703  -5.295  0.00  0.00     0.029 A 
ATOM      8  C11 <0> d           0.232  -1.833  -4.317  0.00  0.00     0.035 A 
ATOM      9  N4  <0> d           0.926  -1.154  -3.312  0.00  0.00    -0.378 N 
ATOM     10  H12 <0> d           1.883  -1.207  -3.162  0.00  0.00     0.160 HD
ENDROOT
BRANCH   1  11
ATOM     11  C2  <0> d           0.008  -0.804  -1.079  0.00  0.00     0.146 A 
ATOM     12  N1  <0> d           0.002  -0.004   0.002  0.00  0.00    -0.257 N 
ATOM     13  C1  <0> d          -0.018   1.461   0.010  0.00  0.00     0.181 C 
ATOM     14  N3  <0> d           0.025  -0.852   1.122  0.00  0.00    -0.165 NA
ATOM     15  C3  <0> d           0.035  -2.077   0.667  0.00  0.00     0.257 A 
ATOM     16  N2  <0> d           0.028  -2.045  -0.665  0.00  0.00    -0.223 NA
ENDBRANCH   1  11
TORSDOF 1
