REMARK  3 active torsions:
REMARK  status: ('A' for Active; 'I' for Inactive)
REMARK    1  A    between atoms: N1_2  and  C2_3 
REMARK    2  A    between atoms: N1_2  and  C11_15 
REMARK    3  A    between atoms: C7_8  and  N2_9 
ROOT
ATOM      1  C2  <0> d           0.023  -0.711   1.211  0.00  0.00     0.059 A 
ATOM      2  C3  <0> d          -1.166  -1.082   1.818  0.00  0.00     0.061 A 
ATOM      3  C4  <0> d          -1.142  -1.783   3.016  0.00  0.00     0.043 A 
ATOM      4  C5  <0> d           0.072  -2.112   3.605  0.00  0.00    -0.029 A 
ATOM      5  C6  <0> d           1.259  -1.742   3.001  0.00  0.00     0.040 A 
ATOM      6  C7  <0> d           1.241  -1.047   1.802  0.00  0.00     0.053 A 
ATOM      7  C8  <0> d           0.092  -2.874   4.905  0.00  0.00     0.050 C 
ATOM      8  C9  <0> d          -1.105  -2.458   5.761  0.00  0.00     0.108 C 
ATOM      9  C10 <0> d          -2.363  -2.496   4.935  0.00  0.00     0.222 C 
ATOM     10  O1  <0> d          -3.408  -2.834   5.451  0.00  0.00    -0.273 OA
ATOM     11  N3  <0> d          -2.342  -2.160   3.633  0.00  0.00    -0.327 N 
ATOM     12  H12 <0> d          -3.163  -2.180   3.117  0.00  0.00     0.169 HD
ENDROOT
BRANCH   1  13
ATOM     13  N1  <0> d           0.002  -0.004   0.002  0.00  0.00    -0.378 N 
ATOM     14  C1  <0> d          -0.018   1.461   0.010  0.00  0.00     0.150 C 
BRANCH  13  15
ATOM     15  C11 <0> d          -0.000  -0.730  -1.271  0.00  0.00     0.088 C 
ATOM     16  C15 <0> d          -1.263  -0.374  -2.061  0.00  0.00     0.051 C 
ATOM     17  C14 <0> d          -1.218  -1.074  -3.422  0.00  0.00     0.169 C 
ATOM     18  O2  <0> d          -0.033  -0.684  -4.119  0.00  0.00    -0.391 OA
ATOM     19  C13 <0> d           1.180  -1.034  -3.449  0.00  0.00     0.169 C 
ATOM     20  C12 <0> d           1.231  -0.331  -2.090  0.00  0.00     0.051 C 
ENDBRANCH  13  15
ENDBRANCH   1  13
BRANCH   6  21
ATOM     21  N2  <0> d           2.445  -0.677   1.187  0.00  0.00    -0.397 N 
ATOM     22  H6  <0> d           2.432  -0.187   0.350  0.00  0.00     0.156 HD
ATOM     23  H7  <0> d           3.292  -0.911   1.599  0.00  0.00     0.156 HD
ENDBRANCH   6  21
TORSDOF 3
