REMARK  6 active torsions:
REMARK  status: ('A' for Active; 'I' for Inactive)
REMARK    1  A    between atoms: C5_5  and  S1_9 
REMARK    2  A    between atoms: C7_7  and  N1_8 
REMARK    3  A    between atoms: S1_9  and  N2_12 
REMARK    4  A    between atoms: N2_12  and  C8_13 
REMARK    5  A    between atoms: C8_13  and  C10_15 
REMARK    6  A    between atoms: C10_15  and  N3_16 
ROOT
ATOM      1  S1  <0> d           0.065  -4.199   0.153  0.00  0.00     0.259 S 
ATOM      2  O1  <0> d          -0.461  -4.593   1.413  0.00  0.00    -0.201 OA
ATOM      3  O2  <0> d          -0.580  -4.514  -1.074  0.00  0.00    -0.201 OA
ENDROOT
BRANCH   1   4
ATOM      4  C5  <0> d           0.227  -2.445   0.201  0.00  0.00     0.081 A 
ATOM      5  C4  <0> d           0.234  -1.720  -0.976  0.00  0.00     0.026 A 
ATOM      6  C3  <0> d           0.360  -0.343  -0.943  0.00  0.00     0.010 A 
ATOM      7  C2  <0> d           0.480   0.312   0.268  0.00  0.00    -0.036 A 
ATOM      8  C1  <0> d           0.617   1.812   0.303  0.00  0.00     0.050 C 
ATOM      9  C7  <0> d           0.479  -0.414   1.452  0.00  0.00     0.033 A 
ATOM     10  C6  <0> d           0.347  -1.797   1.415  0.00  0.00     0.054 A 
BRANCH   9  11
ATOM     11  N1  <0> d           0.606   0.244   2.677  0.00  0.00    -0.399 N 
ATOM     12  H8  <0> d           0.695   1.210   2.701  0.00  0.00     0.156 HD
ATOM     13  H9  <0> d           0.605  -0.264   3.503  0.00  0.00     0.156 HD
ENDBRANCH   9  11
ENDBRANCH   1   4
BRANCH   1  14
ATOM     14  N2  <0> d           1.593  -4.830   0.060  0.00  0.00    -0.309 N 
ATOM     15  H10 <0> d           1.869  -5.318  -0.731  0.00  0.00     0.172 HD
BRANCH  14  16
ATOM     16  C8  <0> d           2.529  -4.650   1.173  0.00  0.00     0.115 C 
ATOM     17  C9  <0> d           2.442  -5.855   2.112  0.00  0.00     0.034 C 
BRANCH  16  18
ATOM     18  C10 <0> d           3.953  -4.530   0.628  0.00  0.00     0.260 C 
BRANCH  18  19
ATOM     19  N3  <0> d           4.018  -3.420  -0.332  0.00  0.00    -0.069 N 
ATOM     20  C15 <0> d           3.793  -2.152   0.373  0.00  0.00     0.235 C 
ATOM     21  C14 <0> d           3.779  -1.000  -0.633  0.00  0.00     0.028 C 
ATOM     22  C13 <0> d           5.126  -0.949  -1.361  0.00  0.00     0.003 C 
ATOM     23  C12 <0> d           5.384  -2.302  -2.031  0.00  0.00     0.028 C 
ATOM     24  C11 <0> d           5.339  -3.406  -0.973  0.00  0.00     0.235 C 
ATOM     25  H26 <0> d           3.306  -3.543  -1.036  0.00  0.00     0.280 HD
ENDBRANCH  18  19
ENDBRANCH  16  18
ENDBRANCH  14  16
ENDBRANCH   1  14
TORSDOF 6
