REMARK  8 active torsions:
REMARK  status: ('A' for Active; 'I' for Inactive)
REMARK    1  A    between atoms: C2_2  and  N1_4 
REMARK    2  A    between atoms: N1_4  and  S1_5 
REMARK    3  A    between atoms: S1_5  and  C4_8 
REMARK    4  A    between atoms: C6_10  and  C11_16 
REMARK    5  A    between atoms: C9_13  and  O3_14 
REMARK       I    between atoms: C11_16  and  N2_18 
REMARK    6  A    between atoms: N2_18  and  C12_19 
REMARK    7  A    between atoms: C12_19  and  C13_20 
REMARK    8  A    between atoms: C12_19  and  C19_27 
ROOT
ATOM      1  C11 <0> d           1.164  -0.857   3.483  0.00  0.00     0.252 C 
ATOM      2  O4  <0> d           0.988  -1.660   2.587  0.00  0.00    -0.268 OA
ATOM      3  N2  <0> d           1.124   0.464   3.221  0.00  0.00    -0.341 N 
ATOM      4  H16 <0> d           1.283   1.191   4.032  0.00  0.00     0.164 HD
ENDROOT
BRANCH   1   5
ATOM      5  C6  <0> d           1.423  -1.330   4.857  0.00  0.00     0.033 A 
ATOM      6  C5  <0> d           1.466  -2.699   5.130  0.00  0.00     0.045 A 
ATOM      7  C4  <0> d           1.708  -3.136   6.414  0.00  0.00     0.113 A 
ATOM      8  C9  <0> d           1.909  -2.217   7.436  0.00  0.00     0.091 A 
ATOM      9  C8  <0> d           1.867  -0.854   7.169  0.00  0.00     0.039 A 
ATOM     10  C7  <0> d           1.632  -0.409   5.887  0.00  0.00     0.020 A 
BRANCH   7  11
ATOM     11  S1  <0> d           1.762  -4.863   6.760  0.00  0.00     0.261 S 
ATOM     12  O1  <0> d           1.486  -5.531   5.536  0.00  0.00    -0.200 OA
ATOM     13  O2  <0> d           2.953  -5.092   7.500  0.00  0.00    -0.200 OA
BRANCH  11  14
ATOM     14  N1  <0> d           0.499  -5.198   7.778  0.00  0.00    -0.311 N 
ATOM     15  H9  <0> d           0.704  -5.397   8.840  0.00  0.00     0.172 HD
BRANCH  14  16
ATOM     16  C2  <0> d          -0.880  -5.016   7.319  0.00  0.00     0.085 C 
ATOM     17  C1  <0> d          -1.433  -6.353   6.821  0.00  0.00     0.032 C 
ATOM     18  C3  <0> d          -1.740  -4.508   8.477  0.00  0.00     0.032 C 
ENDBRANCH  14  16
ENDBRANCH  11  14
ENDBRANCH   7  11
BRANCH   8  19
ATOM     19  O3  <0> d           2.146  -2.652   8.700  0.00  0.00    -0.354 OA
ATOM     20  C10 <0> d           2.344  -1.653   9.703  0.00  0.00     0.210 C 
ENDBRANCH   8  19
ENDBRANCH   1   5
BRANCH   3  21
ATOM     21  C12 <0> d           0.867   0.933   1.857  0.00  0.00     0.188 C 
BRANCH  21  22
ATOM     22  C13 <0> d           1.454   2.310   1.681  0.00  0.00    -0.025 A 
ATOM     23  C18 <0> d           2.090   2.644   0.500  0.00  0.00     0.052 A 
ATOM     24  C17 <0> d           2.629   3.909   0.338  0.00  0.00     0.117 A 
ATOM     25  C16 <0> d           2.530   4.838   1.359  0.00  0.00     0.042 A 
ATOM     26  F1  <0> d           3.250   4.236  -0.816  0.00  0.00    -0.206 F 
ATOM     27  C15 <0> d           1.893   4.503   2.539  0.00  0.00     0.004 A 
ATOM     28  C14 <0> d           1.351   3.241   2.698  0.00  0.00     0.010 A 
ENDBRANCH  21  22
BRANCH  21  29
ATOM     29  C19 <0> d          -0.620   0.987   1.616  0.00  0.00     0.133 A 
ATOM     30  N4  <0> d          -1.254   0.535   0.512  0.00  0.00    -0.346 N 
ATOM     31  C21 <0> d          -2.591   0.775   0.688  0.00  0.00     0.111 A 
ATOM     32  C22 <0> d          -0.629  -0.088  -0.656  0.00  0.00     0.157 C 
ATOM     33  C20 <0> d          -2.727   1.355   1.895  0.00  0.00     0.136 A 
ATOM     34  N3  <0> d          -1.507   1.475   2.438  0.00  0.00    -0.243 NA
ENDBRANCH  21  29
ENDBRANCH   3  21
TORSDOF 8
