REMARK  4 active torsions:
REMARK  status: ('A' for Active; 'I' for Inactive)
REMARK    1  A    between atoms: O1_2  and  C2_3 
REMARK    2  A    between atoms: C5_6  and  C9_11 
REMARK    3  A    between atoms: C7_8  and  O2_9 
REMARK    4  A    between atoms: N2_19  and  C14_22 
ROOT
ATOM      1  C9  <0> d          -4.962  -2.613   0.036  0.00  0.00     0.079 C 
ATOM      2  N1  <0> d          -5.152  -3.988   0.042  0.00  0.00    -0.264 N 
ATOM      3  O3  <0> d          -6.473  -4.206  -0.495  0.00  0.00    -0.260 OA
ATOM      4  C10 <0> d          -7.188  -3.148   0.161  0.00  0.00     0.285 C 
ATOM      5  C11 <0> d          -6.174  -2.000   0.046  0.00  0.00     0.080 C 
ATOM      6  H2  <0> d          -4.526  -4.663   0.345  0.00  0.00     0.194 HD
ATOM      7  C12 <0> d          -7.001  -0.881  -0.091  0.00  0.00     0.266 C 
ATOM      8  O4  <0> d          -6.709   0.255   0.237  0.00  0.00    -0.267 OA
ATOM      9  N2  <0> d          -8.171  -1.256  -0.644  0.00  0.00    -0.246 N 
ATOM     10  C13 <0> d          -8.364  -2.610  -0.606  0.00  0.00     0.268 C 
ATOM     11  O5  <0> d          -9.282  -3.246  -1.078  0.00  0.00    -0.269 OA
ENDROOT
BRANCH   1  12
ATOM     12  C5  <0> d          -3.655  -1.929   0.027  0.00  0.00    -0.004 A 
ATOM     13  C4  <0> d          -3.595  -0.533   0.028  0.00  0.00     0.017 A 
ATOM     14  C3  <0> d          -2.373   0.105   0.020  0.00  0.00     0.040 A 
ATOM     15  C2  <0> d          -1.200  -0.637   0.010  0.00  0.00     0.101 A 
ATOM     16  C7  <0> d          -1.252  -2.030   0.003  0.00  0.00     0.102 A 
ATOM     17  C6  <0> d          -2.473  -2.676   0.017  0.00  0.00     0.053 A 
BRANCH  15  18
ATOM     18  O1  <0> d           0.002  -0.004   0.002  0.00  0.00    -0.353 OA
ATOM     19  C1  <0> d          -0.017   1.425   0.010  0.00  0.00     0.210 C 
ENDBRANCH  15  18
BRANCH  16  20
ATOM     20  O2  <0> d          -0.100  -2.754  -0.012  0.00  0.00    -0.353 OA
ATOM     21  C8  <0> d          -0.229  -4.177  -0.019  0.00  0.00     0.210 C 
ENDBRANCH  16  20
ENDBRANCH   1  12
BRANCH   9  22
ATOM     22  C14 <0> d          -9.095  -0.359  -1.197  0.00  0.00     0.045 A 
ATOM     23  C19 <0> d          -8.827   1.004  -1.196  0.00  0.00     0.032 A 
ATOM     24  C18 <0> d          -9.736   1.886  -1.747  0.00  0.00     0.026 A 
ATOM     25  C17 <0> d         -10.918   1.414  -2.288  0.00  0.00     0.034 A 
ATOM     26  C16 <0> d         -11.191   0.057  -2.285  0.00  0.00     0.026 A 
ATOM     27 Cl1  <0> d         -12.062   2.525  -2.974  0.00  0.00    -0.084 Cl
ATOM     28  C15 <0> d         -10.282  -0.830  -1.741  0.00  0.00     0.032 A 
ENDBRANCH   9  22
TORSDOF 4
