REMARK  6 active torsions:
REMARK  status: ('A' for Active; 'I' for Inactive)
REMARK    1  A    between atoms: C4_4  and  C7_7 
REMARK    2  A    between atoms: C7_7  and  C8_8 
REMARK    3  A    between atoms: C7_7  and  N1_10 
REMARK    4  A    between atoms: C8_8  and  O1_9 
REMARK    5  A    between atoms: N1_10  and  C9_11 
REMARK    6  A    between atoms: C17_19  and  O2_21 
ROOT
ATOM      1  N1  <0> d           3.531  -1.703  -0.932  0.00  0.00    -0.057 N 
ATOM      2  H11 <0> d           3.438  -0.765  -0.571  0.00  0.00     0.278 HD
ATOM      3  H22 <0> d           3.024  -2.343  -0.339  0.00  0.00     0.278 HD
ENDROOT
BRANCH   1   4
ATOM      4  C7  <0> d           2.984  -1.759  -2.294  0.00  0.00     0.243 C 
BRANCH   4   5
ATOM      5  C4  <0> d           1.492  -1.552  -2.245  0.00  0.00    -0.026 A 
ATOM      6  C3  <0> d           0.663  -2.298  -3.062  0.00  0.00     0.009 A 
ATOM      7  C2  <0> d          -0.705  -2.109  -3.016  0.00  0.00     0.001 A 
ATOM      8  C1  <0> d          -1.246  -1.174  -2.153  0.00  0.00     0.000 A 
ATOM      9  C6  <0> d          -0.417  -0.428  -1.336  0.00  0.00     0.001 A 
ATOM     10  C5  <0> d           0.952  -0.617  -1.382  0.00  0.00     0.009 A 
ENDBRANCH   4   5
BRANCH   4  11
ATOM     11  C8  <0> d           3.623  -0.661  -3.146  0.00  0.00     0.202 C 
BRANCH  11  12
ATOM     12  O1  <0> d           3.296   0.618  -2.599  0.00  0.00    -0.398 OA
ATOM     13  H10 <0> d           3.669   1.363  -3.090  0.00  0.00     0.209 HD
ENDBRANCH  11  12
ENDBRANCH   4  11
ENDBRANCH   1   4
BRANCH   1  14
ATOM     14  C9  <0> d           4.950  -2.079  -0.959  0.00  0.00     0.220 C 
ATOM     15  C14 <0> d           5.759  -0.931  -1.504  0.00  0.00    -0.021 A 
ATOM     16  C13 <0> d           6.788  -1.110  -2.402  0.00  0.00    -0.047 A 
ATOM     17  C15 <0> d           5.438   0.348  -1.070  0.00  0.00     0.012 A 
ATOM     18  C12 <0> d           7.185  -2.467  -2.920  0.00  0.00     0.039 C 
ATOM     19  C18 <0> d           7.500  -0.010  -2.861  0.00  0.00     0.044 A 
ATOM     20  C11 <0> d           6.626  -3.570  -2.022  0.00  0.00     0.007 C 
ATOM     21  C10 <0> d           5.126  -3.321  -1.830  0.00  0.00     0.038 C 
ATOM     22  C17 <0> d           7.180   1.264  -2.429  0.00  0.00     0.066 A 
ATOM     23  C16 <0> d           6.141   1.442  -1.527  0.00  0.00     0.037 A 
BRANCH  22  24
ATOM     24  O2  <0> d           7.882   2.336  -2.883  0.00  0.00    -0.361 OA
ATOM     25  H21 <0> d           8.652   2.559  -2.344  0.00  0.00     0.217 HD
ENDBRANCH  22  24
ENDBRANCH   1  14
TORSDOF 6
