REMARK  14 active torsions:
REMARK  status: ('A' for Active; 'I' for Inactive)
REMARK    1  A    between atoms: C2_2  and  C3_3 
REMARK    2  A    between atoms: C3_3  and  C4_4 
REMARK    3  A    between atoms: C4_4  and  C5_5 
REMARK    4  A    between atoms: C5_5  and  C6_6 
REMARK    5  A    between atoms: C6_6  and  C7_8 
REMARK    6  A    between atoms: C8_9  and  C9_10 
REMARK    7  A    between atoms: C10_11  and  O5_25 
REMARK    8  A    between atoms: C12_13  and  O4_24 
REMARK    9  A    between atoms: C13_14  and  C14_15 
REMARK   10  A    between atoms: C14_15  and  C15_16 
REMARK   11  A    between atoms: C16_17  and  C17_18 
REMARK   12  A    between atoms: C17_18  and  C18_19 
REMARK   13  A    between atoms: C18_19  and  C19_20 
REMARK   14  A    between atoms: C19_20  and  C20_21 
ROOT
ATOM      1  C9  <0> d           0.468  -2.181   2.825  0.00  0.00     0.044 C 
ATOM      2  C10 <0> d          -0.476  -2.964   3.761  0.00  0.00     0.128 C 
ATOM      3  C11 <0> d          -1.651  -1.988   4.019  0.00  0.00     0.064 C 
ATOM      4  C12 <0> d          -0.939  -0.615   4.119  0.00  0.00     0.125 C 
ATOM      5  C13 <0> d           0.173  -0.688   3.052  0.00  0.00     0.028 C 
ENDROOT
BRANCH   1   6
ATOM      6  C8  <0> d           1.904  -2.481   3.168  0.00  0.00    -0.015 C 
ATOM      7  C7  <0> d           2.541  -3.482   2.557  0.00  0.00     0.046 C 
BRANCH   7   8
ATOM      8  C6  <0> d           1.801  -4.398   1.690  0.00  0.00     0.149 C 
ATOM      9  O1  <0> d           0.615  -4.230   1.501  0.00  0.00    -0.293 OA
BRANCH   8  10
ATOM     10  C5  <0> d           2.513  -5.552   1.030  0.00  0.00     0.083 C 
BRANCH  10  11
ATOM     11  C4  <0> d           1.518  -6.348   0.184  0.00  0.00     0.008 C 
BRANCH  11  12
ATOM     12  C3  <0> d           2.240  -7.519  -0.486  0.00  0.00     0.000 C 
BRANCH  12  13
ATOM     13  C2  <0> d           1.245  -8.315  -1.332  0.00  0.00    -0.005 C 
ATOM     14  C1  <0> d           1.968  -9.486  -2.002  0.00  0.00     0.005 C 
ENDBRANCH  12  13
ENDBRANCH  11  12
ENDBRANCH  10  11
ENDBRANCH   8  10
ENDBRANCH   7   8
ENDBRANCH   1   6
BRANCH   5  15
ATOM     15  C14 <0> d          -0.307  -0.044   1.750  0.00  0.00     0.034 C 
BRANCH  15  16
ATOM     16  C15 <0> d           0.740  -0.230   0.682  0.00  0.00    -0.030 C 
ATOM     17  C16 <0> d           0.420  -0.789  -0.459  0.00  0.00    -0.031 C 
BRANCH  17  18
ATOM     18  C17 <0> d          -1.024  -1.076  -0.778  0.00  0.00     0.027 C 
BRANCH  18  19
ATOM     19  C18 <0> d          -1.372  -0.482  -2.145  0.00  0.00     0.014 C 
BRANCH  19  20
ATOM     20  C19 <0> d          -2.838  -0.773  -2.469  0.00  0.00     0.113 C 
BRANCH  20  21
ATOM     21  C20 <0> d          -3.181  -0.188  -3.815  0.00  0.00     0.172 C 
ATOM     22  O2  <0> d          -2.339   0.402  -4.449  0.00  0.00    -0.648 OA
ATOM     23  O3  <0> d          -4.422  -0.322  -4.309  0.00  0.00    -0.648 OA
ENDBRANCH  20  21
ENDBRANCH  19  20
ENDBRANCH  18  19
ENDBRANCH  17  18
ENDBRANCH  15  16
ENDBRANCH   5  15
BRANCH   2  24
ATOM     24  O5  <0> d           0.187  -3.283   4.986  0.00  0.00    -0.395 OA
ATOM     25  H31 <0> d          -0.345  -3.843   5.769  0.00  0.00     0.210 HD
ENDBRANCH   2  24
BRANCH   4  26
ATOM     26  O4  <0> d          -1.850   0.445   3.819  0.00  0.00    -0.395 OA
ATOM     27  H30 <0> d          -1.507   1.490   3.844  0.00  0.00     0.210 HD
ENDBRANCH   4  26
TORSDOF 14
