REMARK  7 active torsions:
REMARK  status: ('A' for Active; 'I' for Inactive)
REMARK    1  A    between atoms: C5_5  and  C9_9 
REMARK    2  A    between atoms: C11_11  and  C13_13 
REMARK    3  A    between atoms: C13_13  and  N1_14 
REMARK    4  A    between atoms: C13_13  and  C15_19 
REMARK    5  A    between atoms: N1_14  and  N2_15 
REMARK    6  A    between atoms: N2_15  and  C14_16 
REMARK    7  A    between atoms: C15_19  and  N4_20 
ROOT
ATOM      1  C13 <0> d           7.401   0.039   1.105  0.00  0.00     0.055 C 
ENDROOT
BRANCH   1   2
ATOM      2  C11 <0> d           6.169   0.727   1.633  0.00  0.00     0.039 C 
ATOM      3  C10 <0> d           4.934  -0.187   1.703  0.00  0.00     0.024 C 
ATOM      4  C9  <0> d           4.625   0.252   0.262  0.00  0.00    -0.015 C 
ATOM      5  C12 <0> d           5.411   1.538   0.569  0.00  0.00     0.024 C 
ATOM      6  C20 <0> d           5.282  -0.628  -0.803  0.00  0.00     0.020 C 
BRANCH   4   7
ATOM      7  C5  <0> d           3.159   0.488   0.003  0.00  0.00    -0.038 A 
ATOM      8  C4  <0> d           2.223  -0.429   0.443  0.00  0.00    -0.054 A 
ATOM      9  C3  <0> d           0.879  -0.213   0.205  0.00  0.00     0.014 A 
ATOM     10  C21 <0> d           2.669  -1.665   1.181  0.00  0.00     0.049 C 
ATOM     11  C2  <0> d           0.470   0.920  -0.472  0.00  0.00    -0.061 A 
ATOM     12  C1  <0> d          -0.996   1.159  -0.725  0.00  0.00     0.048 C 
ATOM     13  C7  <0> d           1.406   1.838  -0.912  0.00  0.00     0.014 A 
ATOM     14  C6  <0> d           2.751   1.622  -0.674  0.00  0.00    -0.054 A 
ATOM     15  C8  <0> d           3.771   2.622  -1.154  0.00  0.00     0.049 C 
ENDBRANCH   4   7
ENDBRANCH   1   2
BRANCH   1  16
ATOM     16  N1  <0> d           7.692   0.114  -0.140  0.00  0.00    -0.179 NA
BRANCH  16  17
ATOM     17  N2  <0> d           8.779  -0.608  -0.650  0.00  0.00    -0.254 N 
ATOM     18  H14 <0> d           9.267  -1.219  -0.076  0.00  0.00     0.191 HD
BRANCH  17  19
ATOM     19  C14 <0> d           9.145  -0.454  -1.938  0.00  0.00     0.185 C 
ATOM     20  S1  <0> d          10.474  -1.336  -2.561  0.00  0.00    -0.040 SA
ATOM     21  N3  <0> d           8.466   0.395  -2.735  0.00  0.00    -0.375 N 
ATOM     22  H15 <0> d           7.714   0.894  -2.381  0.00  0.00     0.158 HD
ATOM     23  H16 <0> d           8.730   0.505  -3.661  0.00  0.00     0.158 HD
ENDBRANCH  17  19
ENDBRANCH  16  17
ENDBRANCH   1  16
BRANCH   1  24
ATOM     24  C15 <0> d           8.292  -0.736   2.041  0.00  0.00     0.192 C 
BRANCH  24  25
ATOM     25  N4  <0> d           7.703  -0.741   3.383  0.00  0.00    -0.283 N 
ATOM     26  C19 <0> d           6.926  -1.736   3.829  0.00  0.00     0.227 A 
ATOM     27  C18 <0> d           6.488  -1.429   5.244  0.00  0.00     0.112 A 
ATOM     28  O2  <0> d           6.622  -2.726   3.199  0.00  0.00    -0.273 OA
ATOM     29  C17 <0> d           7.153  -0.069   5.542  0.00  0.00     0.112 A 
ATOM     30  C16 <0> d           7.902   0.246   4.265  0.00  0.00     0.227 A 
ATOM     31  O1  <0> d           8.574   1.236   4.072  0.00  0.00    -0.273 OA
ENDBRANCH  24  25
ENDBRANCH   1  24
TORSDOF 7
