REMARK  6 active torsions:
REMARK  status: ('A' for Active; 'I' for Inactive)
REMARK    1  A    between atoms: N1_5  and  C5_7 
REMARK    2  A    between atoms: C5_7  and  C6_8 
REMARK    3  A    between atoms: C6_8  and  C7_9 
REMARK    4  A    between atoms: C7_9  and  N3_10 
REMARK       I    between atoms: N3_10  and  C8_11 
REMARK    5  A    between atoms: C8_11  and  C9_13 
REMARK       I    between atoms: N4_15  and  C17_23 
REMARK    6  A    between atoms: C17_23  and  C18_25 
ROOT
ATOM      1  C9  <0> d           4.605  -6.762   4.024  0.00  0.00     0.106 C 
ATOM      2  C10 <0> d           5.297  -7.265   2.737  0.00  0.00     0.141 C 
ATOM      3  N4  <0> d           6.168  -8.375   3.190  0.00  0.00    -0.345 N 
ATOM      4  C11 <0> d           5.360  -9.083   4.212  0.00  0.00     0.136 C 
ATOM      5  C12 <0> d           4.647  -7.958   4.989  0.00  0.00    -0.007 C 
ATOM      6  C13 <0> d           3.232  -8.389   5.359  0.00  0.00     0.039 C 
ATOM      7  C14 <0> d           3.300  -9.542   6.365  0.00  0.00     0.233 C 
ATOM      8  N5  <0> d           4.030  -9.107   7.562  0.00  0.00    -0.075 N 
ATOM      9  C15 <0> d           5.418  -8.783   7.212  0.00  0.00     0.233 C 
ATOM     10  C16 <0> d           5.439  -7.598   6.242  0.00  0.00     0.039 C 
ATOM     11  C17 <0> d           7.412  -8.674   2.768  0.00  0.00     0.272 C 
ATOM     12  O2  <0> d           7.970  -9.672   3.178  0.00  0.00    -0.266 OA
ATOM     13  H21 <0> d           3.583  -8.290   7.949  0.00  0.00     0.277 HD
ATOM     14  H35 <0> d           4.021  -9.848   8.247  0.00  0.00     0.277 HD
ENDROOT
BRANCH   1  15
ATOM     15  C8  <0> d           3.178  -6.372   3.734  0.00  0.00     0.224 C 
ATOM     16  N3  <0> d           2.525  -5.537   4.566  0.00  0.00    -0.361 N 
ATOM     17  H12 <0> d           2.974  -5.187   5.351  0.00  0.00     0.162 HD
ATOM     18  O1  <0> d           2.617  -6.811   2.752  0.00  0.00    -0.273 OA
BRANCH  16  19
ATOM     19  C7  <0> d           1.138  -5.158   4.284  0.00  0.00     0.124 C 
BRANCH  19  20
ATOM     20  C6  <0> d           0.637  -4.210   5.375  0.00  0.00     0.041 C 
BRANCH  20  21
ATOM     21  C5  <0> d          -0.811  -3.814   5.080  0.00  0.00     0.152 C 
BRANCH  21  22
ATOM     22  N1  <0> d          -1.291  -2.906   6.125  0.00  0.00    -0.274 N 
ATOM     23  C4  <0> d          -1.200  -1.559   6.109  0.00  0.00     0.028 A 
ATOM     24  C3  <0> d          -1.758  -1.095   7.251  0.00  0.00     0.055 A 
ATOM     25  C27 <0> d          -0.587  -0.723   5.016  0.00  0.00     0.070 C 
ATOM     26  C2  <0> d          -2.205  -2.195   7.990  0.00  0.00     0.053 A 
ATOM     27  C1  <0> d          -2.890  -2.139   9.331  0.00  0.00     0.072 C 
ATOM     28  N2  <0> d          -1.921  -3.281   7.318  0.00  0.00    -0.177 NA
ENDBRANCH  21  22
ENDBRANCH  20  21
ENDBRANCH  19  20
ENDBRANCH  16  19
ENDBRANCH   1  15
BRANCH  11  29
ATOM     29  C18 <0> d           8.102  -7.783   1.804  0.00  0.00     0.125 A 
ATOM     30  N6  <0> d           7.526  -6.652   1.447  0.00  0.00    -0.243 NA
ATOM     31  C26 <0> d           8.111  -5.818   0.587  0.00  0.00     0.068 A 
ATOM     32  C21 <0> d           9.374  -6.147   0.029  0.00  0.00    -0.007 A 
ATOM     33  C25 <0> d           7.493  -4.609   0.214  0.00  0.00     0.032 A 
ATOM     34  C20 <0> d           9.994  -7.355   0.400  0.00  0.00     0.016 A 
ATOM     35  C22 <0> d           9.981  -5.266  -0.880  0.00  0.00     0.014 A 
ATOM     36  C19 <0> d           9.349  -8.166   1.289  0.00  0.00     0.038 A 
ATOM     37  C23 <0> d           9.351  -4.106  -1.216  0.00  0.00     0.001 A 
ATOM     38  C24 <0> d           8.110  -3.780  -0.670  0.00  0.00     0.002 A 
ENDBRANCH  11  29
TORSDOF 6
