REMARK  6 active torsions:
REMARK  status: ('A' for Active; 'I' for Inactive)
REMARK       I    between atoms: C2_2  and  N1_4 
REMARK    1  A    between atoms: C4_6  and  C11_14 
REMARK       I    between atoms: C11_14  and  N3_16 
REMARK    2  A    between atoms: N3_16  and  C12_17 
REMARK    3  A    between atoms: C12_17  and  C13_18 
REMARK    4  A    between atoms: C14_19  and  O5_28 
REMARK    5  A    between atoms: C16_21  and  O4_26 
REMARK    6  A    between atoms: C18_23  and  O3_24 
ROOT
ATOM      1  C11 <0> d           2.320  -0.421  -3.392  0.00  0.00     0.224 C 
ATOM      2  O2  <0> d           2.684   0.336  -2.517  0.00  0.00    -0.273 OA
ATOM      3  N3  <0> d           3.155  -0.732  -4.404  0.00  0.00    -0.356 N 
ATOM      4  H18 <0> d           2.864  -1.337  -5.104  0.00  0.00     0.162 HD
ENDROOT
BRANCH   1   5
ATOM      5  C4  <0> d           0.936  -1.015  -3.348  0.00  0.00     0.106 C 
ATOM      6  C3  <0> d          -0.043  -0.045  -2.648  0.00  0.00     0.140 C 
ATOM      7  N1  <0> d          -0.076  -0.500  -1.238  0.00  0.00    -0.351 N 
ATOM      8  C2  <0> d          -0.116   0.261  -0.126  0.00  0.00     0.215 C 
ATOM      9  C6  <0> d          -0.049  -1.980  -1.326  0.00  0.00     0.136 C 
ATOM     10  C1  <0> d          -0.138   1.763  -0.240  0.00  0.00     0.117 C 
ATOM     11  O1  <0> d          -0.133  -0.265   0.968  0.00  0.00    -0.274 OA
ATOM     12  C5  <0> d           0.922  -2.283  -2.477  0.00  0.00    -0.007 C 
ATOM     13  C10 <0> d           2.317  -2.559  -1.924  0.00  0.00     0.039 C 
ATOM     14  C7  <0> d           0.425  -3.475  -3.288  0.00  0.00     0.039 C 
ATOM     15  C9  <0> d           2.290  -3.856  -1.110  0.00  0.00     0.233 C 
ATOM     16  N2  <0> d           1.853  -4.965  -1.966  0.00  0.00    -0.075 N 
ATOM     17  C8  <0> d           0.476  -4.735  -2.419  0.00  0.00     0.233 C 
ATOM     18  H13 <0> d           1.895  -5.827  -1.444  0.00  0.00     0.277 HD
ATOM     19  H32 <0> d           2.462  -5.030  -2.768  0.00  0.00     0.277 HD
ENDBRANCH   1   5
BRANCH   3  20
ATOM     20  C12 <0> d           4.500  -0.155  -4.447  0.00  0.00     0.167 C 
BRANCH  20  21
ATOM     21  C13 <0> d           5.224  -0.658  -5.670  0.00  0.00     0.026 A 
ATOM     22  C18 <0> d           5.137   0.042  -6.864  0.00  0.00     0.081 A 
ATOM     23  C17 <0> d           5.806  -0.419  -7.988  0.00  0.00     0.074 A 
ATOM     24  C16 <0> d           6.554  -1.585  -7.920  0.00  0.00     0.073 A 
ATOM     25  C15 <0> d           6.637  -2.287  -6.727  0.00  0.00     0.074 A 
ATOM     26  C14 <0> d           5.971  -1.824  -5.602  0.00  0.00     0.081 A 
BRANCH  22  27
ATOM     27  O3  <0> d           4.399   1.181  -6.932  0.00  0.00    -0.355 OA
ATOM     28  C19 <0> d           4.354   1.851  -8.194  0.00  0.00     0.210 C 
ENDBRANCH  22  27
BRANCH  24  29
ATOM     29  O4  <0> d           7.207  -2.038  -9.022  0.00  0.00    -0.356 OA
ATOM     30  C20 <0> d           7.078  -1.264 -10.217  0.00  0.00     0.210 C 
ENDBRANCH  24  29
BRANCH  26  31
ATOM     31  O5  <0> d           6.052  -2.512  -4.433  0.00  0.00    -0.355 OA
ATOM     32  C21 <0> d           6.840  -3.705  -4.436  0.00  0.00     0.210 C 
ENDBRANCH  26  31
ENDBRANCH  20  21
ENDBRANCH   3  20
TORSDOF 6
