REMARK  4 active torsions:
REMARK  status: ('A' for Active; 'I' for Inactive)
REMARK    1  A    between atoms: C2_2  and  N1_5 
REMARK       I    between atoms: N1_5  and  C5_6 
REMARK    2  A    between atoms: C5_6  and  C6_8 
REMARK       I    between atoms: C6_8  and  N2_10 
REMARK    3  A    between atoms: N2_10  and  C7_11 
REMARK    4  A    between atoms: C7_11  and  C8_12 
ROOT
ATOM      1  N1  <0> d          -2.923   6.347  -4.438  0.00  0.00    -0.345 N 
ATOM      2  C5  <0> d          -3.018   5.216  -3.711  0.00  0.00     0.309 C 
ATOM      3  O1  <0> d          -4.074   4.622  -3.648  0.00  0.00    -0.262 OA
ATOM      4  H11 <0> d          -2.079   6.822  -4.488  0.00  0.00     0.163 HD
ENDROOT
BRANCH   2   5
ATOM      5  C6  <0> d          -1.822   4.694  -2.982  0.00  0.00     0.309 C 
ATOM      6  O2  <0> d          -0.766   5.289  -3.045  0.00  0.00    -0.262 OA
ATOM      7  N2  <0> d          -1.917   3.564  -2.255  0.00  0.00    -0.352 N 
ATOM      8  H12 <0> d          -2.761   3.089  -2.204  0.00  0.00     0.162 HD
BRANCH   7   9
ATOM      9  C7  <0> d          -0.744   3.052  -1.540  0.00  0.00     0.139 C 
BRANCH   9  10
ATOM     10  C8  <0> d          -1.119   1.767  -0.799  0.00  0.00     0.074 A 
ATOM     11  S1  <0> d          -1.306   1.883   0.999  0.00  0.00    -0.161 SA
ATOM     12  C9  <0> d          -0.013   1.086   0.008  0.00  0.00     0.091 A 
ENDBRANCH   9  10
ENDBRANCH   7   9
ENDBRANCH   2   5
BRANCH   1  13
ATOM     13  C2  <0> d          -4.095   6.859  -5.152  0.00  0.00     0.022 C 
ATOM     14  C1  <0> d          -5.213   7.156  -4.151  0.00  0.00     0.037 C 
ATOM     15  C3  <0> d          -3.720   8.144  -5.894  0.00  0.00     0.037 C 
ATOM     16  C4  <0> d          -4.577   5.812  -6.159  0.00  0.00     0.037 C 
ENDBRANCH   1  13
TORSDOF 4
