REMARK  4 active torsions:
REMARK  status: ('A' for Active; 'I' for Inactive)
REMARK       I    between atoms: N1_4  and  C7_9 
REMARK    1  A    between atoms: C7_9  and  C8_11 
REMARK    2  A    between atoms: C13_16  and  N2_17 
REMARK       I    between atoms: N2_17  and  C14_18 
REMARK    3  A    between atoms: C14_18  and  C15_20 
REMARK    4  A    between atoms: C17_22  and  C20_26 
ROOT
ATOM      1  C8  <0> d           5.671  -1.754  -0.703  0.00  0.00     0.059 A 
ATOM      2  C9  <0> d           7.052  -1.581  -0.581  0.00  0.00     0.019 A 
ATOM      3  C10 <0> d           7.612  -0.344  -0.814  0.00  0.00     0.001 A 
ATOM      4  C11 <0> d           6.813   0.731  -1.169  0.00  0.00     0.002 A 
ATOM      5  C12 <0> d           5.448   0.574  -1.298  0.00  0.00     0.030 A 
ATOM      6  C13 <0> d           4.865  -0.664  -1.063  0.00  0.00     0.050 A 
ENDROOT
BRANCH   6   7
ATOM      7  N2  <0> d           3.488  -0.824  -1.188  0.00  0.00    -0.321 N 
ATOM      8  C14 <0> d           2.776   0.035  -1.944  0.00  0.00     0.273 C 
ATOM      9  O3  <0> d           3.346   0.896  -2.588  0.00  0.00    -0.266 OA
ATOM     10  H17 <0> d           2.981  -1.652  -0.671  0.00  0.00     0.169 HD
BRANCH   8  11
ATOM     11  C15 <0> d           1.312  -0.066  -1.989  0.00  0.00     0.103 A 
ATOM     12  N3  <0> d           0.538  -0.911  -1.222  0.00  0.00    -0.356 N 
ATOM     13  C18 <0> d          -0.754  -0.732  -1.532  0.00  0.00     0.106 A 
ATOM     14  C19 <0> d           1.048  -1.856  -0.226  0.00  0.00     0.156 C 
ATOM     15  C17 <0> d          -0.836   0.243  -2.515  0.00  0.00     0.027 A 
ATOM     16  C16 <0> d           0.487   0.658  -2.796  0.00  0.00     0.052 A 
BRANCH  15  17
ATOM     17  C20 <0> d          -2.061   0.743  -3.147  0.00  0.00     0.157 C 
ATOM     18  O4  <0> d          -3.140   0.297  -2.817  0.00  0.00    -0.293 OA
ATOM     19  C21 <0> d          -1.980   1.812  -4.206  0.00  0.00     0.097 C 
ENDBRANCH  15  17
ENDBRANCH   8  11
ENDBRANCH   6   7
BRANCH   1  20
ATOM     20  C7  <0> d           5.065  -3.076  -0.455  0.00  0.00     0.256 C 
ATOM     21  N1  <0> d           5.386  -3.767   0.657  0.00  0.00    -0.343 N 
ATOM     22  C3  <0> d           4.889  -5.136   0.868  0.00  0.00     0.157 C 
ATOM     23  C4  <0> d           6.248  -3.176   1.693  0.00  0.00     0.157 C 
ATOM     24  C2  <0> d           4.261  -5.212   2.264  0.00  0.00     0.136 C 
ATOM     25  C1  <0> d           3.909  -6.665   2.588  0.00  0.00     0.041 C 
ATOM     26  O1  <0> d           5.195  -4.720   3.228  0.00  0.00    -0.378 OA
ATOM     27  C5  <0> d           5.549  -3.346   3.051  0.00  0.00     0.136 C 
ATOM     28  C6  <0> d           4.287  -2.483   3.094  0.00  0.00     0.041 C 
ATOM     29  O2  <0> d           4.276  -3.542  -1.254  0.00  0.00    -0.267 OA
ENDBRANCH   1  20
TORSDOF 4
