REMARK  3 active torsions:
REMARK  status: ('A' for Active; 'I' for Inactive)
REMARK    1  A    between atoms: C6_7  and  N1_11 
REMARK    2  A    between atoms: N1_11  and  C9_12 
REMARK    3  A    between atoms: C9_12  and  C10_13 
ROOT
ATOM      1  C1  <0> d          -0.019   1.526   0.010  0.00  0.00     0.079 C 
ATOM      2  C2  <0> d           0.002  -0.004   0.002  0.00  0.00     0.169 C 
ATOM      3  O1  <0> d           0.771  -0.493  -1.113  0.00  0.00    -0.312 OA
ATOM      4  C3  <0> d           2.045  -0.637  -0.641  0.00  0.00     0.106 A 
ATOM      5  C4  <0> d           3.257  -0.765  -1.299  0.00  0.00     0.042 A 
ATOM      6  C5  <0> d           4.428  -0.901  -0.577  0.00  0.00     0.032 A 
ATOM      7  C6  <0> d           4.392  -0.909   0.811  0.00  0.00     0.031 A 
ATOM      8  C7  <0> d           3.179  -0.781   1.474  0.00  0.00     0.069 A 
ATOM      9  C8  <0> d           2.006  -0.646   0.751  0.00  0.00     0.108 A 
ATOM     10  O2  <0> d           0.708  -0.507   1.152  0.00  0.00    -0.312 OA
ATOM     11  C13 <0> d          -1.423  -0.559  -0.039  0.00  0.00     0.079 C 
ENDROOT
BRANCH   7  12
ATOM     12  N1  <0> d           5.578  -1.046   1.541  0.00  0.00    -0.384 N 
ATOM     13  H7  <0> d           5.553  -1.052   2.511  0.00  0.00     0.160 HD
BRANCH  12  14
ATOM     14  C9  <0> d           6.857  -1.182   0.841  0.00  0.00     0.179 C 
BRANCH  14  15
ATOM     15  C10 <0> d           7.970  -1.314   1.849  0.00  0.00     0.059 A 
ATOM     16  N2  <0> d           8.537  -0.255   2.391  0.00  0.00    -0.256 NA
ATOM     17  C12 <0> d           9.501  -0.373   3.271  0.00  0.00     0.166 A 
ATOM     18  S1  <0> d           9.701  -2.039   3.398  0.00  0.00    -0.092 SA
ATOM     19  C11 <0> d           8.438  -2.528   2.235  0.00  0.00     0.080 A 
ENDBRANCH  14  15
ENDBRANCH  12  14
ENDBRANCH   7  12
TORSDOF 3
