REMARK  3 active torsions:
REMARK  status: ('A' for Active; 'I' for Inactive)
REMARK    1  A    between atoms: C3_3  and  N1_9 
REMARK       I    between atoms: N1_9  and  C8_10 
REMARK    2  A    between atoms: C8_10  and  C9_12 
REMARK    3  A    between atoms: C9_12  and  N2_13 
ROOT
ATOM      1  N1  <0> d          -0.010   0.011  -2.413  0.00  0.00    -0.325 N 
ATOM      2  C8  <0> d           0.095  -0.653  -3.581  0.00  0.00     0.242 C 
ATOM      3  O1  <0> d           0.112  -1.866  -3.590  0.00  0.00    -0.271 OA
ATOM      4  H7  <0> d          -0.104   0.977  -2.411  0.00  0.00     0.169 HD
ENDROOT
BRANCH   2   5
ATOM      5  C9  <0> d           0.192   0.111  -4.876  0.00  0.00     0.257 C 
BRANCH   5   6
ATOM      6  N2  <0> d           0.297  -0.832  -5.993  0.00  0.00    -0.222 N 
ATOM      7  N4  <0> d           1.553  -1.266  -6.427  0.00  0.00    -0.155 NA
ATOM      8  C15 <0> d           1.696  -2.100  -7.399  0.00  0.00     0.127 A 
ATOM      9  N3  <0> d           0.611  -2.608  -8.087  0.00  0.00    -0.304 N 
ATOM     10  C16 <0> d           3.084  -2.524  -7.803  0.00  0.00     0.093 C 
ATOM     11  C11 <0> d          -0.665  -2.221  -7.720  0.00  0.00     0.110 A 
ATOM     12  C14 <0> d           0.508  -3.474  -9.126  0.00  0.00     0.099 A 
ATOM     13  C10 <0> d          -0.821  -1.279  -6.609  0.00  0.00     0.291 A 
ATOM     14  C12 <0> d          -1.555  -2.861  -8.549  0.00  0.00     0.037 A 
ATOM     15  O2  <0> d          -1.925  -0.909  -6.250  0.00  0.00    -0.264 OA
ATOM     16  C13 <0> d          -0.802  -3.646  -9.429  0.00  0.00     0.020 A 
ENDBRANCH   5   6
ENDBRANCH   2   5
BRANCH   1  17
ATOM     17  C3  <0> d           0.017  -0.692  -1.204  0.00  0.00     0.042 A 
ATOM     18  C2  <0> d          -0.583  -0.153  -0.073  0.00  0.00    -0.013 A 
ATOM     19  C1  <0> d          -1.263   1.190  -0.146  0.00  0.00     0.052 C 
ATOM     20  C7  <0> d          -0.550  -0.848   1.122  0.00  0.00     0.042 A 
ATOM     21  C6  <0> d           0.069  -2.084   1.188  0.00  0.00     0.024 A 
ATOM     22 Cl1  <0> d          -1.293  -0.173   2.538  0.00  0.00    -0.084 Cl
ATOM     23  C5  <0> d           0.667  -2.621   0.064  0.00  0.00     0.004 A 
ATOM     24  C4  <0> d           0.642  -1.929  -1.132  0.00  0.00     0.030 A 
ENDBRANCH   1  17
TORSDOF 3
