REMARK  2 active torsions:
REMARK  status: ('A' for Active; 'I' for Inactive)
REMARK    1  A    between atoms: C2_2  and  C6_7 
REMARK       I    between atoms: C6_7  and  N2_9 
REMARK    2  A    between atoms: N2_9  and  C7_10 
ROOT
ATOM      1  C7  <0> d           0.754  -0.652  -3.619  0.00  0.00     0.098 A 
ATOM      2  C8  <0> d           0.377  -0.418  -4.928  0.00  0.00     0.085 A 
ATOM      3  C9  <0> d           1.188  -1.029  -5.979  0.00  0.00    -0.021 A 
ATOM      4  C10 <0> d           2.220  -1.759  -5.520  0.00  0.00    -0.007 A 
ATOM      5  S1  <0> d           2.114  -1.623  -3.753  0.00  0.00    -0.075 SA
ATOM      6  C11 <0> d           3.018  -2.369  -6.641  0.00  0.00     0.047 C 
ATOM      7  C12 <0> d           2.094  -2.273  -7.875  0.00  0.00     0.010 C 
ATOM      8  C13 <0> d           1.198  -1.074  -7.505  0.00  0.00     0.042 C 
ATOM      9  C14 <0> d          -0.763   0.391  -5.242  0.00  0.00     0.103 C 
ATOM     10  N3  <0> d          -1.667   1.032  -5.490  0.00  0.00    -0.191 NA
ENDROOT
BRANCH   1  11
ATOM     11  N2  <0> d           0.149  -0.185  -2.461  0.00  0.00    -0.319 N 
ATOM     12  C6  <0> d           0.659  -0.510  -1.256  0.00  0.00     0.232 C 
ATOM     13  O1  <0> d           1.647  -1.211  -1.185  0.00  0.00    -0.272 OA
ATOM     14  H11 <0> d          -0.641   0.375  -2.517  0.00  0.00     0.169 HD
BRANCH  12  15
ATOM     15  C2  <0> d           0.002  -0.004   0.002  0.00  0.00     0.063 C 
ATOM     16  C1  <0> d          -0.019   1.526   0.010  0.00  0.00     0.027 C 
ATOM     17  C5  <0> d           0.743  -0.535   1.243  0.00  0.00     0.251 C 
ATOM     18  N1  <0> d          -0.234  -1.320   2.029  0.00  0.00    -0.074 N 
ATOM     19  C4  <0> d          -1.257  -1.783   1.057  0.00  0.00     0.233 C 
ATOM     20  H8  <0> d          -0.661  -0.738   2.733  0.00  0.00     0.277 HD
ATOM     21  H18 <0> d           0.221  -2.111   2.459  0.00  0.00     0.277 HD
ATOM     22  C3  <0> d          -1.435  -0.561   0.121  0.00  0.00     0.048 C 
ENDBRANCH  12  15
ENDBRANCH   1  11
TORSDOF 2
