REMARK  6 active torsions:
REMARK  status: ('A' for Active; 'I' for Inactive)
REMARK    1  A    between atoms: N1_2  and  C3_4 
REMARK    2  A    between atoms: C3_4  and  C4_5 
REMARK    3  A    between atoms: C3_4  and  C16_21 
REMARK    4  A    between atoms: C4_5  and  N2_6 
REMARK       I    between atoms: N2_6  and  C5_7 
REMARK    5  A    between atoms: C5_7  and  C6_9 
REMARK       I    between atoms: C6_9  and  N3_11 
REMARK    6  A    between atoms: N3_11  and  C7_12 
ROOT
ATOM      1  N2  <0> d          -0.262  -2.829   0.854  0.00  0.00    -0.351 N 
ATOM      2  C5  <0> d          -0.054  -4.159   0.914  0.00  0.00     0.309 C 
ATOM      3  O1  <0> d          -0.556  -4.890   0.086  0.00  0.00    -0.262 OA
ATOM      4  H10 <0> d           0.140  -2.244   1.516  0.00  0.00     0.162 HD
ENDROOT
BRANCH   2   5
ATOM      5  C6  <0> d           0.794  -4.734   2.001  0.00  0.00     0.313 C 
ATOM      6  O2  <0> d           1.297  -4.003   2.829  0.00  0.00    -0.262 OA
ATOM      7  N3  <0> d           1.002  -6.064   2.061  0.00  0.00    -0.319 N 
ATOM      8  H11 <0> d           0.672  -6.639   1.353  0.00  0.00     0.169 HD
BRANCH   7   9
ATOM      9  C7  <0> d           1.694  -6.614   3.143  0.00  0.00     0.035 A 
ATOM     10  C12 <0> d           2.518  -7.715   2.955  0.00  0.00     0.037 A 
ATOM     11  C11 <0> d           3.208  -8.258   4.024  0.00  0.00    -0.050 A 
ATOM     12  C10 <0> d           3.068  -7.709   5.286  0.00  0.00    -0.052 A 
ATOM     13  C13 <0> d           4.158  -9.435   4.082  0.00  0.00     0.039 C 
ATOM     14  C9  <0> d           2.241  -6.613   5.476  0.00  0.00     0.010 A 
ATOM     15  C15 <0> d           3.914  -8.481   6.276  0.00  0.00     0.039 C 
ATOM     16  C8  <0> d           1.556  -6.065   4.411  0.00  0.00     0.030 A 
ATOM     17  C14 <0> d           4.918  -9.277   5.416  0.00  0.00     0.009 C 
ENDBRANCH   7   9
ENDBRANCH   2   5
BRANCH   1  18
ATOM     18  C4  <0> d          -1.095  -2.265  -0.212  0.00  0.00     0.161 C 
BRANCH  18  19
ATOM     19  C3  <0> d          -1.271  -0.763   0.020  0.00  0.00     0.244 C 
BRANCH  19  20
ATOM     20  N1  <0> d          -2.081  -0.192  -1.065  0.00  0.00    -0.068 N 
ATOM     21  C1  <0> d          -2.165   1.265  -0.899  0.00  0.00     0.270 C 
ATOM     22  C2  <0> d          -1.457  -0.503  -2.358  0.00  0.00     0.270 C 
ATOM     23  H24 <0> d          -3.009  -0.588  -1.036  0.00  0.00     0.279 HD
ENDBRANCH  19  20
BRANCH  19  24
ATOM     24  C16 <0> d          -1.966  -0.536   1.338  0.00  0.00     0.015 A 
ATOM     25  S1  <0> d          -3.705  -0.650   1.727  0.00  0.00    -0.104 SA
ATOM     26  C19 <0> d          -3.603  -0.234   3.460  0.00  0.00     0.050 A 
ATOM     27  C18 <0> d          -2.272  -0.032   3.622  0.00  0.00     0.008 A 
ATOM     28  C17 <0> d          -1.433  -0.187   2.534  0.00  0.00     0.017 A 
ENDBRANCH  19  24
ENDBRANCH  18  19
ENDBRANCH   1  18
TORSDOF 6
