REMARK  6 active torsions:
REMARK  status: ('A' for Active; 'I' for Inactive)
REMARK    1  A    between atoms: C5_6  and  C6_7 
REMARK    2  A    between atoms: C6_7  and  C7_8 
REMARK    3  A    between atoms: C8_9  and  O4_23 
REMARK    4  A    between atoms: N2_19  and  C15_20 
REMARK    5  A    between atoms: C15_20  and  C16_21 
REMARK    6  A    between atoms: C16_21  and  O3_22 
ROOT
ATOM      1  C7  <0> d           1.379   1.647   0.179  0.00  0.00     0.135 C 
ATOM      2  C8  <0> d           0.015   0.981   0.105  0.00  0.00     0.176 C 
ATOM      3  C9  <0> d          -0.966   1.485   1.121  0.00  0.00    -0.004 A 
ATOM      4  C10 <0> d          -1.994   0.624   1.500  0.00  0.00     0.011 A 
ATOM      5  C11 <0> d          -2.944   1.021   2.416  0.00  0.00     0.001 A 
ATOM      6  C12 <0> d          -2.888   2.287   2.970  0.00  0.00     0.002 A 
ATOM      7  C13 <0> d          -1.868   3.143   2.605  0.00  0.00     0.026 A 
ATOM      8  C14 <0> d          -0.911   2.739   1.690  0.00  0.00     0.088 A 
ATOM      9  S1  <0> d           0.388   3.861   1.266  0.00  0.00     0.262 S 
ATOM     10  O1  <0> d           1.268   3.917   2.380  0.00  0.00    -0.200 OA
ATOM     11  O2  <0> d          -0.225   5.016   0.710  0.00  0.00    -0.200 OA
ATOM     12  N2  <0> d           1.214   3.106   0.030  0.00  0.00    -0.297 N 
ENDROOT
BRANCH   1  13
ATOM     13  C6  <0> d           2.269   1.114  -0.946  0.00  0.00     0.086 C 
BRANCH  13  14
ATOM     14  C5  <0> d           2.522  -0.357  -0.733  0.00  0.00     0.013 A 
ATOM     15  N1  <0> d           3.601  -0.899  -0.100  0.00  0.00    -0.364 N 
ATOM     16  C1  <0> d           4.712  -0.147   0.488  0.00  0.00     0.155 C 
ATOM     17  C2  <0> d           3.473  -2.256  -0.102  0.00  0.00     0.090 A 
ATOM     18  C3  <0> d           2.327  -2.571  -0.739  0.00  0.00     0.019 A 
ATOM     19  C4  <0> d           1.722  -1.363  -1.140  0.00  0.00     0.026 A 
ENDBRANCH  13  14
ENDBRANCH   1  13
BRANCH  12  20
ATOM     20  C15 <0> d           1.741   3.840  -1.123  0.00  0.00     0.162 C 
BRANCH  20  21
ATOM     21  C16 <0> d           0.748   3.748  -2.283  0.00  0.00     0.184 C 
BRANCH  21  22
ATOM     22  O3  <0> d          -0.462   4.420  -1.928  0.00  0.00    -0.399 OA
ATOM     23  H19 <0> d          -1.139   4.402  -2.618  0.00  0.00     0.209 HD
ENDBRANCH  21  22
ENDBRANCH  20  21
ENDBRANCH  12  20
BRANCH   2  24
ATOM     24  O4  <0> d          -0.530   1.203  -1.198  0.00  0.00    -0.389 OA
ATOM     25  H20 <0> d          -1.388   0.782  -1.342  0.00  0.00     0.210 HD
ENDBRANCH   2  24
TORSDOF 6
