REMARK  5 active torsions:
REMARK  status: ('A' for Active; 'I' for Inactive)
REMARK    1  A    between atoms: C2_2  and  C3_3 
REMARK    2  A    between atoms: C6_6  and  C9_11 
REMARK       I    between atoms: C9_11  and  N2_13 
REMARK    3  A    between atoms: N2_13  and  C10_14 
REMARK    4  A    between atoms: C10_14  and  C11_15 
REMARK    5  A    between atoms: C15_20  and  N4_21 
ROOT
ATOM      1  C9  <0> d           2.326  -1.889  -5.011  0.00  0.00     0.257 C 
ATOM      2  O2  <0> d           3.440  -2.370  -5.100  0.00  0.00    -0.267 OA
ATOM      3  N2  <0> d           1.462  -1.998  -6.040  0.00  0.00    -0.352 N 
ATOM      4  H10 <0> d           0.552  -1.674  -5.945  0.00  0.00     0.163 HD
ENDROOT
BRANCH   1   5
ATOM      5  C6  <0> d           1.922  -1.190  -3.782  0.00  0.00     0.100 A 
ATOM      6  C5  <0> d           2.839  -0.975  -2.755  0.00  0.00     0.031 A 
ATOM      7  C4  <0> d           2.420  -0.307  -1.604  0.00  0.00    -0.038 A 
ATOM      8  C3  <0> d           1.137   0.122  -1.495  0.00  0.00     0.020 A 
ATOM      9  C18 <0> d           3.393  -0.062  -0.480  0.00  0.00     0.050 C 
ATOM     10  N1  <0> d           0.239  -0.088  -2.487  0.00  0.00    -0.321 N 
ATOM     11  C7  <0> d           0.592  -0.723  -3.621  0.00  0.00     0.263 A 
ATOM     12  C8  <0> d          -1.138   0.387  -2.326  0.00  0.00     0.159 C 
ATOM     13  O1  <0> d          -0.229  -0.899  -4.504  0.00  0.00    -0.267 OA
BRANCH   8  14
ATOM     14  C2  <0> d           0.702   0.842  -0.244  0.00  0.00     0.053 C 
ATOM     15  C1  <0> d           0.840   2.352  -0.451  0.00  0.00     0.011 C 
ENDBRANCH   8  14
ENDBRANCH   1   5
BRANCH   3  16
ATOM     16  C10 <0> d           1.896  -2.603  -7.301  0.00  0.00     0.165 C 
BRANCH  16  17
ATOM     17  C11 <0> d           0.750  -2.603  -8.279  0.00  0.00     0.004 A 
ATOM     18  C15 <0> d           0.400  -1.439  -8.956  0.00  0.00     0.110 A 
ATOM     19  N3  <0> d          -0.603  -1.438  -9.820  0.00  0.00    -0.352 N 
ATOM     20  C14 <0> d          -1.309  -2.526 -10.062  0.00  0.00     0.089 A 
ATOM     21  H25 <0> d          -0.827  -0.616 -10.284  0.00  0.00     0.166 HD
ATOM     22  C13 <0> d          -1.021  -3.714  -9.422  0.00  0.00     0.018 A 
ATOM     23  C12 <0> d           0.027  -3.760  -8.513  0.00  0.00     0.014 A 
BRANCH  18  24
ATOM     24  N4  <0> d           1.113  -0.269  -8.726  0.00  0.00    -0.376 N 
ATOM     25  C16 <0> d           2.232   0.091  -9.602  0.00  0.00     0.150 C 
ATOM     26  C17 <0> d           0.747   0.606  -7.609  0.00  0.00     0.150 C 
ENDBRANCH  18  24
ENDBRANCH  16  17
ENDBRANCH   3  16
TORSDOF 5
