REMARK  3 active torsions:
REMARK  status: ('A' for Active; 'I' for Inactive)
REMARK    1  A    between atoms: C4_4  and  C7_8 
REMARK       I    between atoms: C7_8  and  N1_10 
REMARK    2  A    between atoms: N1_10  and  C8_11 
REMARK    3  A    between atoms: C10_13  and  C11_17 
ROOT
ATOM      1  C8  <0> d           0.062  -5.354  -2.841  0.00  0.00     0.132 A 
ATOM      2  C9  <0> d           0.076  -6.705  -2.670  0.00  0.00     0.019 A 
ATOM      3  C10 <0> d           0.080  -7.297  -3.935  0.00  0.00     0.170 A 
ATOM      4  N2  <0> d           0.068  -6.349  -4.836  0.00  0.00    -0.168 NA
ATOM      5  N3  <0> d           0.051  -5.113  -4.177  0.00  0.00    -0.262 N 
ATOM      6  H1  <0> d           0.037  -4.240  -4.600  0.00  0.00     0.191 HD
ATOM      7  C12 <0> d           0.087  -7.432  -1.350  0.00  0.00     0.055 C 
ENDROOT
BRANCH   1   8
ATOM      8  N1  <0> d           0.054  -4.396  -1.829  0.00  0.00    -0.307 N 
ATOM      9  C7  <0> d           0.034  -3.085  -2.143  0.00  0.00     0.264 C 
ATOM     10  O1  <0> d           0.023  -2.739  -3.310  0.00  0.00    -0.267 OA
ATOM     11  H9  <0> d           0.063  -4.671  -0.899  0.00  0.00     0.170 HD
BRANCH   9  12
ATOM     12  C4  <0> d           0.026  -2.077  -1.080  0.00  0.00     0.073 A 
ATOM     13  C3  <0> d           0.006  -0.694  -1.186  0.00  0.00     0.032 A 
ATOM     14  C2  <0> d           0.002  -0.004   0.002  0.00  0.00    -0.048 A 
ATOM     15  C1  <0> d          -0.018   1.503   0.010  0.00  0.00     0.049 C 
ATOM     16  C5  <0> d           0.023  -0.698   1.167  0.00  0.00    -0.015 A 
ATOM     17  S1  <0> d           0.037  -2.308   0.688  0.00  0.00    -0.089 SA
ATOM     18  C6  <0> d           0.029  -0.149   2.571  0.00  0.00     0.057 C 
ENDBRANCH   9  12
ENDBRANCH   1   8
BRANCH   3  19
ATOM     19  C11 <0> d           0.094  -8.778  -4.215  0.00  0.00     0.436 C 
ATOM     20  F1  <0> d          -1.221  -9.250  -4.299  0.00  0.00    -0.164 F 
ATOM     21  F2  <0> d           0.753  -9.017  -5.426  0.00  0.00    -0.164 F 
ATOM     22  F3  <0> d           0.763  -9.442  -3.181  0.00  0.00    -0.164 F 
ENDBRANCH   3  19
TORSDOF 3
