REMARK  7 active torsions:
REMARK  status: ('A' for Active; 'I' for Inactive)
REMARK    1  A    between atoms: N1_2  and  C2_3 
REMARK       I    between atoms: N1_2  and  C13_20 
REMARK    2  A    between atoms: C3_4  and  N4_19 
REMARK    3  A    between atoms: N2_5  and  C6_12 
REMARK    4  A    between atoms: C6_12  and  C7_13 
REMARK    5  A    between atoms: C13_20  and  C14_22 
REMARK    6  A    between atoms: C14_22  and  S1_23 
REMARK    7  A    between atoms: S1_23  and  C15_24 
ROOT
ATOM      1  C2  <0> d           1.030   3.094   0.010  0.00  0.00     0.150 A 
ATOM      2  C3  <0> d           0.261   2.984  -1.130  0.00  0.00     0.138 A 
ATOM      3  N2  <0> d          -0.901   2.250  -1.088  0.00  0.00    -0.279 N 
ATOM      4  C4  <0> d          -1.282   1.642   0.050  0.00  0.00     0.331 A 
ATOM      5  O1  <0> d          -2.311   0.994   0.065  0.00  0.00    -0.246 OA
ATOM      6  N3  <0> d          -0.548   1.742   1.172  0.00  0.00    -0.273 N 
ATOM      7  H1  <0> d          -0.857   1.287   2.007  0.00  0.00     0.173 HD
ATOM      8  C5  <0> d           0.599   2.449   1.185  0.00  0.00     0.280 A 
ATOM      9  O2  <0> d           1.259   2.530   2.207  0.00  0.00    -0.265 OA
ENDROOT
BRANCH   1  10
ATOM     10  N1  <0> d           2.228   3.840  -0.001  0.00  0.00    -0.314 N 
ATOM     11  C1  <0> d           2.186   5.290  -0.200  0.00  0.00     0.159 C 
ATOM     12  C13 <0> d           3.412   3.216   0.172  0.00  0.00     0.233 C 
ATOM     13  O3  <0> d           3.455   2.006   0.249  0.00  0.00    -0.272 OA
BRANCH  12  14
ATOM     14  C14 <0> d           4.681   4.023   0.272  0.00  0.00     0.184 C 
BRANCH  14  15
ATOM     15  S1  <0> d           6.089   2.909   0.499  0.00  0.00    -0.100 SA
BRANCH  15  16
ATOM     16  C15 <0> d           7.399   4.083   0.582  0.00  0.00     0.108 A 
ATOM     17  N6  <0> d           7.148   5.379   0.471  0.00  0.00    -0.234 NA
ATOM     18  C20 <0> d           8.105   6.288   0.533  0.00  0.00     0.235 A 
ATOM     19  N5  <0> d           9.369   5.949   0.699  0.00  0.00    -0.234 NA
ATOM     20  C19 <0> d           9.707   4.678   0.812  0.00  0.00     0.113 A 
ATOM     21  C16 <0> d           8.744   3.655   0.762  0.00  0.00     0.043 A 
ATOM     22  S2  <0> d          11.228   3.798   1.039  0.00  0.00    -0.073 SA
ATOM     23  C17 <0> d           9.255   2.282   0.903  0.00  0.00    -0.029 A 
ATOM     24  C23 <0> d           8.619   0.889   0.919  0.00  0.00     0.041 C 
ATOM     25  C18 <0> d          10.581   2.142   1.063  0.00  0.00    -0.008 A 
ATOM     26  C22 <0> d           9.776  -0.096   0.660  0.00  0.00     0.010 C 
ATOM     27  C21 <0> d          10.989   0.698   1.192  0.00  0.00     0.047 C 
ENDBRANCH  15  16
ENDBRANCH  14  15
ENDBRANCH  12  14
ENDBRANCH   1  10
BRANCH   2  28
ATOM     28  N4  <0> d           0.652   3.602  -2.294  0.00  0.00    -0.383 N 
ATOM     29  H12 <0> d           1.453   4.149  -2.308  0.00  0.00     0.157 HD
ATOM     30  H13 <0> d           0.127   3.490  -3.102  0.00  0.00     0.157 HD
ENDBRANCH   2  28
BRANCH   3  31
ATOM     31  C6  <0> d          -1.728   2.125  -2.292  0.00  0.00     0.174 C 
BRANCH  31  32
ATOM     32  C7  <0> d          -1.289   0.918  -3.079  0.00  0.00    -0.040 A 
ATOM     33  C12 <0> d          -1.867  -0.314  -2.835  0.00  0.00     0.009 A 
ATOM     34  C11 <0> d          -1.465  -1.422  -3.557  0.00  0.00     0.001 A 
ATOM     35  C10 <0> d          -0.484  -1.298  -4.524  0.00  0.00     0.000 A 
ATOM     36  C9  <0> d           0.094  -0.066  -4.768  0.00  0.00     0.001 A 
ATOM     37  C8  <0> d          -0.312   1.042  -4.049  0.00  0.00     0.009 A 
ENDBRANCH  31  32
ENDBRANCH   3  31
TORSDOF 7
