REMARK  3 active torsions:
REMARK  status: ('A' for Active; 'I' for Inactive)
REMARK    1  A    between atoms: C4_5  and  C5_7 
REMARK    2  A    between atoms: C9_11  and  N2_13 
REMARK       I    between atoms: N2_13  and  C11_14 
REMARK    3  A    between atoms: C11_14  and  C12_16 
ROOT
ATOM      1  N2  <0> d           1.282  -6.934  -0.034  0.00  0.00    -0.323 N 
ATOM      2  C11 <0> d           2.083  -8.010  -0.161  0.00  0.00     0.260 C 
ATOM      3  O2  <0> d           3.292  -7.871  -0.175  0.00  0.00    -0.267 OA
ATOM      4  H9  <0> d           0.330  -7.053   0.107  0.00  0.00     0.169 HD
ENDROOT
BRANCH   1   5
ATOM      5  C9  <0> d           1.823  -5.647  -0.106  0.00  0.00     0.035 A 
ATOM      6  C8  <0> d           3.140  -5.424   0.280  0.00  0.00     0.029 A 
ATOM      7  C7  <0> d           3.680  -4.154   0.210  0.00  0.00     0.003 A 
ATOM      8  C6  <0> d           2.916  -3.098  -0.242  0.00  0.00     0.016 A 
ATOM      9  C5  <0> d           1.592  -3.311  -0.631  0.00  0.00     0.019 A 
ATOM     10  C10 <0> d           1.045  -4.591  -0.556  0.00  0.00     0.045 A 
BRANCH   9  11
ATOM     11  C4  <0> d           0.770  -2.181  -1.115  0.00  0.00     0.179 A 
ATOM     12  N1  <0> d          -0.481  -2.254  -1.502  0.00  0.00    -0.234 NA
ATOM     13  C3  <0> d          -0.889  -1.030  -1.871  0.00  0.00     0.151 A 
ATOM     14  C2  <0> d           0.144  -0.185  -1.705  0.00  0.00     0.069 A 
ATOM     15  C1  <0> d           0.143   1.294  -1.994  0.00  0.00     0.078 C 
ATOM     16  O1  <0> d           1.182  -0.907  -1.238  0.00  0.00    -0.295 OA
ENDBRANCH   9  11
ENDBRANCH   1   5
BRANCH   2  17
ATOM     17  C12 <0> d           1.498  -9.351  -0.282  0.00  0.00     0.079 A 
ATOM     18  C16 <0> d           2.365 -10.552  -0.299  0.00  0.00     0.158 A 
ATOM     19  N3  <0> d           1.780 -11.779  -0.444  0.00  0.00    -0.339 N 
ATOM     20  N4  <0> d           3.647 -10.332  -0.151  0.00  0.00    -0.145 NA
ATOM     21  C15 <0> d           0.418 -11.877  -0.528  0.00  0.00     0.092 A 
ATOM     22  C18 <0> d           2.526 -13.037  -0.538  0.00  0.00     0.147 C 
ATOM     23  C14 <0> d          -0.396 -10.803  -0.505  0.00  0.00     0.018 A 
ATOM     24  C13 <0> d           0.124  -9.513  -0.388  0.00  0.00     0.022 A 
ATOM     25  C17 <0> d           3.760 -13.005   0.356  0.00  0.00     0.185 C 
ATOM     26  S1  <0> d           4.754 -11.563  -0.142  0.00  0.00     0.254 S 
ATOM     27  O3  <0> d           5.679 -11.221   0.881  0.00  0.00    -0.204 OA
ATOM     28  O4  <0> d           5.175 -11.692  -1.493  0.00  0.00    -0.204 OA
ENDBRANCH   2  17
TORSDOF 3
