REMARK  4 active torsions:
REMARK  status: ('A' for Active; 'I' for Inactive)
REMARK    1  A    between atoms: O1_2  and  C2_3 
REMARK    2  A    between atoms: C2_3  and  O2_21 
REMARK    3  A    between atoms: C4_5  and  C8_12 
REMARK    4  A    between atoms: C6_7  and  N2_9 
ROOT
ATOM      1  C2  <0> d           0.126  -0.567  -1.282  0.00  0.00     0.294 A 
ATOM      2  C3  <0> d          -0.150  -2.046  -1.606  0.00  0.00     0.166 A 
ATOM      3  C4  <0> d           0.681  -2.717  -2.702  0.00  0.00     0.084 A 
ATOM      4  C5  <0> d          -0.619  -2.003  -3.073  0.00  0.00     0.146 A 
ATOM      5  C6  <0> d          -0.570  -0.548  -3.465  0.00  0.00     0.124 A 
ATOM      6  N1  <0> d          -0.172   0.191  -2.497  0.00  0.00    -0.209 NA
ATOM      7  C7  <0> d          -1.770  -2.797  -3.533  0.00  0.00     0.080 C 
ATOM      8  N3  <0> d          -2.658  -3.410  -3.888  0.00  0.00    -0.196 NA
ATOM      9  C14 <0> d          -0.825  -2.861  -0.583  0.00  0.00     0.080 C 
ATOM     10  N4  <0> d          -1.346  -3.490   0.207  0.00  0.00    -0.196 NA
ENDROOT
BRANCH   3  11
ATOM     11  C8  <0> d           0.684  -4.223  -2.749  0.00  0.00    -0.032 A 
ATOM     12  C13 <0> d           1.844  -4.903  -3.072  0.00  0.00     0.017 A 
ATOM     13  C12 <0> d           1.847  -6.286  -3.111  0.00  0.00     0.019 A 
ATOM     14 Br1  <0> d           3.428  -3.943  -3.455  0.00  0.00    -0.051 Br
ATOM     15  C11 <0> d           0.688  -6.987  -2.836  0.00  0.00     0.001 A 
ATOM     16  C10 <0> d          -0.472  -6.307  -2.517  0.00  0.00     0.001 A 
ATOM     17  C9  <0> d          -0.475  -4.925  -2.474  0.00  0.00     0.009 A 
ENDBRANCH   3  11
BRANCH   5  18
ATOM     18  N2  <0> d          -0.908  -0.074  -4.705  0.00  0.00    -0.386 N 
ATOM     19  H5  <0> d          -1.201  -0.688  -5.396  0.00  0.00     0.157 HD
ATOM     20  H6  <0> d          -0.853   0.876  -4.892  0.00  0.00     0.157 HD
ENDBRANCH   5  18
BRANCH   1  21
ATOM     21  O1  <0> d          -0.721  -0.134  -0.216  0.00  0.00    -0.340 OA
ATOM     22  C1  <0> d          -0.555   1.241   0.137  0.00  0.00     0.207 C 
ENDBRANCH   1  21
BRANCH   1  23
ATOM     23  O2  <0> d           1.497  -0.392  -0.920  0.00  0.00    -0.340 OA
ATOM     24  C15 <0> d           1.874  -1.076   0.277  0.00  0.00     0.207 C 
ENDBRANCH   1  23
TORSDOF 4
