REMARK  3 active torsions:
REMARK  status: ('A' for Active; 'I' for Inactive)
REMARK    1  A    between atoms: C12_15  and  C13_16 
REMARK    2  A    between atoms: N4_20  and  C17_23 
REMARK    3  A    between atoms: C20_26  and  O2_29 
ROOT
ATOM      1  C13 <0> d           2.502  -0.594   1.483  0.00  0.00     0.101 A 
ATOM      2  C14 <0> d           2.764   0.598   2.091  0.00  0.00     0.197 A 
ATOM      3  N3  <0> d           3.761   1.403   1.600  0.00  0.00    -0.285 N 
ATOM      4  C15 <0> d           4.476   1.022   0.525  0.00  0.00     0.336 A 
ATOM      5  N4  <0> d           4.232  -0.150  -0.089  0.00  0.00    -0.230 N 
ATOM      6  C16 <0> d           3.266  -0.972   0.365  0.00  0.00     0.269 A 
ATOM      7  O1  <0> d           3.053  -2.035  -0.192  0.00  0.00    -0.267 OA
ATOM      8  O3  <0> d           5.355   1.749   0.103  0.00  0.00    -0.246 OA
ATOM      9  O4  <0> d           2.048   0.983   3.169  0.00  0.00    -0.171 OA
ATOM     10  H21 <0> d           3.950   2.252   2.029  0.00  0.00     0.172 HD
ENDROOT
BRANCH   1  11
ATOM     11  C12 <0> d           1.413  -1.495   2.005  0.00  0.00     0.280 C 
ATOM     12  N1  <0> d           0.470  -1.809   0.920  0.00  0.00    -0.061 N 
ATOM     13  C1  <0> d          -0.251  -0.590   0.533  0.00  0.00     0.271 C 
ATOM     14  C2  <0> d          -0.493  -2.825   1.365  0.00  0.00     0.240 C 
ATOM     15  H22 <0> d           0.982  -2.162   0.125  0.00  0.00     0.280 HD
ATOM     16  C3  <0> d           0.207  -4.187   1.464  0.00  0.00     0.069 C 
ATOM     17  C4  <0> d           1.474  -3.997   2.259  0.00  0.00    -0.019 A 
ATOM     18  C11 <0> d           2.019  -2.784   2.506  0.00  0.00     0.053 A 
ATOM     19  C5  <0> d           2.324  -4.984   2.886  0.00  0.00    -0.001 A 
ATOM     20  N2  <0> d           3.158  -2.932   3.250  0.00  0.00    -0.356 N 
ATOM     21  C10 <0> d           3.377  -4.257   3.500  0.00  0.00     0.043 A 
ATOM     22  H1  <0> d           3.725  -2.206   3.553  0.00  0.00     0.166 HD
ATOM     23  C9  <0> d           4.382  -4.921   4.200  0.00  0.00     0.030 A 
ATOM     24  C8  <0> d           4.298  -6.301   4.262  0.00  0.00     0.002 A 
ATOM     25  C7  <0> d           3.268  -7.006   3.661  0.00  0.00     0.001 A 
ATOM     26  C6  <0> d           2.264  -6.379   2.965  0.00  0.00     0.014 A 
ENDBRANCH   1  11
BRANCH   5  27
ATOM     27  C17 <0> d           4.994  -0.521  -1.208  0.00  0.00     0.047 A 
ATOM     28  C22 <0> d           4.574  -0.167  -2.482  0.00  0.00     0.033 A 
ATOM     29  C21 <0> d           5.326  -0.528  -3.582  0.00  0.00     0.039 A 
ATOM     30  C20 <0> d           6.496  -1.254  -3.414  0.00  0.00     0.068 A 
ATOM     31  C19 <0> d           6.914  -1.613  -2.141  0.00  0.00     0.039 A 
ATOM     32  C18 <0> d           6.165  -1.247  -1.040  0.00  0.00     0.033 A 
BRANCH  30  33
ATOM     33  O2  <0> d           7.234  -1.613  -4.498  0.00  0.00    -0.356 OA
ATOM     34  C23 <0> d           6.745  -1.210  -5.779  0.00  0.00     0.210 C 
ENDBRANCH  30  33
ENDBRANCH   5  27
TORSDOF 3
