REMARK  7 active torsions:
REMARK  status: ('A' for Active; 'I' for Inactive)
REMARK    1  A    between atoms: C2_2  and  C3_3 
REMARK    2  A    between atoms: C3_3  and  C5_5 
REMARK    3  A    between atoms: C5_5  and  C6_6 
REMARK    4  A    between atoms: C5_5  and  N1_9 
REMARK       I    between atoms: N1_9  and  C7_10 
REMARK    5  A    between atoms: C7_10  and  C8_12 
REMARK    6  A    between atoms: C10_15  and  N3_17 
REMARK       I    between atoms: N3_17  and  C11_18 
REMARK    7  A    between atoms: C11_18  and  C12_20 
ROOT
ATOM      1  C8  <0> d          -0.614   5.609   1.198  0.00  0.00     0.133 A 
ATOM      2  C9  <0> d          -0.394   6.271   2.377  0.00  0.00     0.090 A 
ATOM      3  S1  <0> d          -0.162   7.901   1.824  0.00  0.00    -0.061 SA
ATOM      4  C10 <0> d          -0.379   7.598   0.078  0.00  0.00     0.173 A 
ATOM      5  N2  <0> d          -0.604   6.300   0.056  0.00  0.00    -0.218 NA
ENDROOT
BRANCH   1   6
ATOM      6  C7  <0> d          -0.863   4.158   1.192  0.00  0.00     0.271 C 
ATOM      7  N1  <0> d          -1.083   3.518   0.026  0.00  0.00    -0.341 N 
ATOM      8  H11 <0> d          -1.076   4.079  -0.920  0.00  0.00     0.163 HD
ATOM      9  O3  <0> d          -0.871   3.538   2.238  0.00  0.00    -0.266 OA
BRANCH   7  10
ATOM     10  C5  <0> d          -1.331   2.074   0.020  0.00  0.00     0.189 C 
BRANCH  10  11
ATOM     11  C3  <0> d          -2.134   1.700  -1.228  0.00  0.00     0.014 C 
ATOM     12  C4  <0> d          -1.293   1.972  -2.477  0.00  0.00     0.012 C 
BRANCH  11  13
ATOM     13  C2  <0> d          -2.501   0.215  -1.173  0.00  0.00     0.002 C 
ATOM     14  C1  <0> d          -3.408  -0.130  -2.356  0.00  0.00     0.005 C 
ENDBRANCH  11  13
ENDBRANCH  10  11
BRANCH  10  15
ATOM     15  C6  <0> d          -0.016   1.338   0.009  0.00  0.00     0.197 C 
ATOM     16  O1  <0> d           1.022   1.956   0.003  0.00  0.00    -0.646 OA
ATOM     17  O2  <0> d           0.002  -0.004   0.002  0.00  0.00    -0.646 OA
ENDBRANCH  10  15
ENDBRANCH   7  10
ENDBRANCH   1   6
BRANCH   4  18
ATOM     18  N3  <0> d          -0.326   8.495  -0.980  0.00  0.00    -0.305 N 
ATOM     19  C11 <0> d          -0.080   9.800  -0.746  0.00  0.00     0.227 C 
ATOM     20  O4  <0> d           0.095  10.189   0.390  0.00  0.00    -0.273 OA
ATOM     21  H13 <0> d          -0.484   8.142  -2.010  0.00  0.00     0.171 HD
BRANCH  19  22
ATOM     22  C12 <0> d          -0.022  10.774  -1.894  0.00  0.00     0.070 C 
ATOM     23  C13 <0> d          -1.364  10.777  -2.628  0.00  0.00     0.019 C 
ATOM     24  C14 <0> d           0.270  12.177  -1.358  0.00  0.00     0.019 C 
ENDBRANCH  19  22
ENDBRANCH   4  18
TORSDOF 7
