REMARK  4 active torsions:
REMARK  status: ('A' for Active; 'I' for Inactive)
REMARK    1  A    between atoms: C2_2  and  C3_3 
REMARK    2  A    between atoms: C3_3  and  C4_4 
REMARK    3  A    between atoms: C4_4  and  C5_5 
REMARK    4  A    between atoms: C4_4  and  N3_18 
ROOT
ATOM      1  C5  <0> d           1.334  -2.514  -2.561  0.00  0.00    -0.008 A 
ATOM      2  C6  <0> d           2.652  -2.927  -2.601  0.00  0.00     0.042 A 
ATOM      3  C7  <0> d           3.199  -3.375  -3.793  0.00  0.00     0.066 A 
ATOM      4  C8  <0> d           2.416  -3.408  -4.949  0.00  0.00     0.066 A 
ATOM      5  C9  <0> d           1.095  -2.992  -4.901  0.00  0.00     0.052 A 
ATOM      6  C10 <0> d           0.556  -2.552  -3.706  0.00  0.00     0.021 A 
ATOM      7 Br1  <0> d          -1.249  -1.992  -3.637  0.00  0.00    -0.050 Br
ATOM      8  N1  <0> d           3.227  -3.897  -5.971  0.00  0.00    -0.302 N 
ATOM      9  C11 <0> d           4.447  -4.150  -5.460  0.00  0.00     0.329 A 
ATOM     10  O1  <0> d           5.393  -4.587  -6.089  0.00  0.00    -0.246 OA
ATOM     11  N2  <0> d           4.461  -3.845  -4.149  0.00  0.00    -0.302 N 
ATOM     12  C12 <0> d           5.609  -3.984  -3.249  0.00  0.00     0.161 C 
ATOM     13  C13 <0> d           2.822  -4.101  -7.364  0.00  0.00     0.161 C 
ENDROOT
BRANCH   1  14
ATOM     14  C4  <0> d           0.739  -2.027  -1.265  0.00  0.00     0.217 C 
BRANCH  14  15
ATOM     15  C3  <0> d           0.718  -0.497  -1.257  0.00  0.00     0.037 C 
BRANCH  15  16
ATOM     16  C2  <0> d           0.002  -0.004   0.002  0.00  0.00    -0.002 C 
ATOM     17  C1  <0> d          -0.019   1.526   0.010  0.00  0.00     0.005 C 
ENDBRANCH  15  16
ENDBRANCH  14  15
BRANCH  14  18
ATOM     18  N3  <0> d           1.551  -2.512  -0.141  0.00  0.00    -0.071 N 
ATOM     19  H17 <0> d           1.152  -2.186   0.727  0.00  0.00     0.275 HD
ATOM     20  H18 <0> d           1.564  -3.521  -0.146  0.00  0.00     0.275 HD
ATOM     21  H19 <0> d           2.493  -2.163  -0.231  0.00  0.00     0.275 HD
ENDBRANCH  14  18
ENDBRANCH   1  14
TORSDOF 4
