REMARK  7 active torsions:
REMARK  status: ('A' for Active; 'I' for Inactive)
REMARK    1  A    between atoms: N1_4  and  C7_9 
REMARK    2  A    between atoms: C7_9  and  C8_10 
REMARK    3  A    between atoms: C8_10  and  C9_11 
REMARK    4  A    between atoms: C8_10  and  O3_21 
REMARK    5  A    between atoms: C9_11  and  N2_12 
REMARK    6  A    between atoms: N2_12  and  C11_14 
REMARK    7  A    between atoms: C11_14  and  C12_15 
ROOT
ATOM      1  C8  <0> d           4.197   0.234  -2.490  0.00  0.00     0.172 C 
ENDROOT
BRANCH   1   2
ATOM      2  C7  <0> d           2.832  -0.456  -2.443  0.00  0.00     0.305 C 
BRANCH   2   3
ATOM      3  N1  <0> d           2.120  -0.050  -1.224  0.00  0.00     0.096 N 
ATOM      4  C3  <0> d           0.720  -0.499  -1.256  0.00  0.00     0.303 C 
ATOM      5  C2  <0> d           0.002  -0.004   0.002  0.00  0.00     0.146 C 
ATOM      6  C1  <0> d          -0.019   1.526   0.010  0.00  0.00     0.041 C 
ATOM      7  O1  <0> d           0.695  -0.479   1.159  0.00  0.00    -0.378 OA
ATOM      8  C5  <0> d           2.062  -0.059   1.223  0.00  0.00     0.146 C 
ATOM      9  C4  <0> d           2.801  -0.554  -0.023  0.00  0.00     0.303 C 
ATOM     10  C6  <0> d           2.719  -0.646   2.474  0.00  0.00     0.041 C 
ENDBRANCH   2   3
ENDBRANCH   1   2
BRANCH   1  11
ATOM     11  C9  <0> d           4.938  -0.190  -3.760  0.00  0.00     0.268 C 
BRANCH  11  12
ATOM     12  N2  <0> d           6.293   0.377  -3.748  0.00  0.00    -0.067 N 
ATOM     13  C10 <0> d           7.058  -0.208  -2.638  0.00  0.00     0.270 C 
ATOM     14  H26 <0> d           6.239   1.377  -3.628  0.00  0.00     0.280 HD
BRANCH  12  15
ATOM     15  C11 <0> d           6.963   0.071  -5.019  0.00  0.00     0.299 C 
BRANCH  15  16
ATOM     16  C12 <0> d           8.306   0.755  -5.056  0.00  0.00     0.080 A 
ATOM     17  O2  <0> d           8.546   1.989  -5.529  0.00  0.00    -0.306 OA
ATOM     18  C15 <0> d           9.853   2.271  -5.400  0.00  0.00     0.121 A 
ATOM     19  C14 <0> d          10.465   1.207  -4.848  0.00  0.00     0.048 A 
ATOM     20 Br1  <0> d          10.692   3.886  -5.914  0.00  0.00    -0.023 Br
ATOM     21  C13 <0> d           9.468   0.230  -4.626  0.00  0.00     0.038 A 
ENDBRANCH  15  16
ENDBRANCH  12  15
ENDBRANCH  11  12
ENDBRANCH   1  11
BRANCH   1  22
ATOM     22  O3  <0> d           4.014   1.651  -2.495  0.00  0.00    -0.392 OA
ATOM     23  H25 <0> d           3.503   1.979  -3.247  0.00  0.00     0.210 HD
ENDBRANCH   1  22
TORSDOF 7
