REMARK  2 active torsions:
REMARK  status: ('A' for Active; 'I' for Inactive)
REMARK    1  A    between atoms: C10_12  and  N2_13 
REMARK    2  A    between atoms: N2_13  and  C11_14 
ROOT
ATOM      1  C1  <0> d          -0.018   1.503   0.010  0.00  0.00     0.049 C 
ATOM      2  C2  <0> d           0.002  -0.004   0.002  0.00  0.00    -0.054 A 
ATOM      3  C3  <0> d           0.006  -0.685  -1.202  0.00  0.00     0.008 A 
ATOM      4  C4  <0> d           0.024  -2.069  -1.210  0.00  0.00     0.012 A 
ATOM      5  C5  <0> d           0.039  -2.762  -0.020  0.00  0.00     0.009 A 
ATOM      6  C6  <0> d           0.036  -2.090   1.195  0.00  0.00     0.050 A 
ATOM      7  C7  <0> d           0.023  -0.696   1.195  0.00  0.00    -0.029 A 
ATOM      8  C8  <0> d           0.025   0.056   2.501  0.00  0.00     0.051 C 
ATOM      9  N1  <0> d           0.053  -3.002   2.251  0.00  0.00    -0.324 N 
ATOM     10  C9  <0> d           0.069  -4.275   1.823  0.00  0.00     0.257 A 
ATOM     11  O1  <0> d           0.086  -5.269   2.518  0.00  0.00    -0.270 OA
ATOM     12  C10 <0> d           0.061  -4.237   0.310  0.00  0.00     0.313 A 
ATOM     13  H10 <0> d           0.055  -2.746   3.187  0.00  0.00     0.169 HD
ENDROOT
BRANCH  12  14
ATOM     14  N2  <0> d          -1.140  -4.900  -0.216  0.00  0.00    -0.054 N 
ATOM     15  H11 <0> d          -1.956  -4.541   0.256  0.00  0.00     0.279 HD
ATOM     16  H24 <0> d          -1.218  -4.719  -1.206  0.00  0.00     0.279 HD
BRANCH  14  17
ATOM     17  C11 <0> d          -1.040  -6.347   0.011  0.00  0.00     0.190 C 
ATOM     18  C15 <0> d          -2.342  -7.025  -0.422  0.00  0.00     0.063 C 
ATOM     19  C14 <0> d          -2.210  -8.539  -0.240  0.00  0.00     0.274 C 
ATOM     20  N3  <0> d          -1.087  -9.034  -1.048  0.00  0.00     0.084 N 
ATOM     21  C13 <0> d           0.181  -8.432  -0.618  0.00  0.00     0.274 C 
ATOM     22  C16 <0> d          -1.016 -10.500  -1.006  0.00  0.00     0.309 C 
ATOM     23  C12 <0> d           0.120  -6.915  -0.811  0.00  0.00     0.063 C 
ENDBRANCH  14  17
ENDBRANCH  12  14
TORSDOF 2
