REMARK  3 active torsions:
REMARK  status: ('A' for Active; 'I' for Inactive)
REMARK    1  A    between atoms: C3_5  and  N3_7 
REMARK       I    between atoms: N3_7  and  C4_8 
REMARK       I    between atoms: C4_8  and  N4_10 
REMARK    2  A    between atoms: N4_10  and  C5_11 
REMARK    3  A    between atoms: C5_11  and  C6_12 
ROOT
ATOM      1  N3  <0> d           0.060  -3.893   0.865  0.00  0.00    -0.286 N 
ATOM      2  C4  <0> d           0.070  -4.889  -0.043  0.00  0.00     0.322 C 
ATOM      3  O1  <0> d           0.062  -4.630  -1.230  0.00  0.00    -0.247 OA
ATOM      4  N4  <0> d           0.089  -6.173   0.366  0.00  0.00    -0.338 N 
ATOM      5  H4  <0> d           0.066  -4.100   1.813  0.00  0.00     0.172 HD
ATOM      6  H5  <0> d           0.096  -6.380   1.314  0.00  0.00     0.164 HD
ENDROOT
BRANCH   1   7
ATOM      7  C3  <0> d           0.040  -2.568   0.443  0.00  0.00     0.197 A 
ATOM      8  N2  <0> d           0.028  -2.086  -0.784  0.00  0.00    -0.123 NA
ATOM      9  N1  <0> d           0.010  -0.844  -1.014  0.00  0.00    -0.145 NA
ATOM     10  C2  <0> d           0.002  -0.004   0.002  0.00  0.00     0.097 A 
ATOM     11  C1  <0> d          -0.018   1.503   0.010  0.00  0.00     0.081 C 
ATOM     12  S1  <0> d           0.031  -1.158   1.367  0.00  0.00    -0.034 SA
ENDBRANCH   1   7
BRANCH   4  13
ATOM     13  C5  <0> d           0.101  -7.256  -0.620  0.00  0.00     0.169 C 
BRANCH  13  14
ATOM     14  C6  <0> d           0.122  -8.584   0.092  0.00  0.00    -0.003 C 
ATOM     15  C7  <0> d          -0.896  -9.403  -0.018  0.00  0.00     0.028 C 
ATOM     16 Br1  <0> d           1.617  -9.070   1.143  0.00  0.00    -0.055 Br
ENDBRANCH  13  14
ENDBRANCH   4  13
TORSDOF 3
