REMARK  2 active torsions:
REMARK  status: ('A' for Active; 'I' for Inactive)
REMARK    1  A    between atoms: C2_2  and  C4_4 
REMARK    2  A    between atoms: N1_9  and  C9_12 
ROOT
ATOM      1  C4  <0> d          -1.343  -0.540  -0.002  0.00  0.00     0.239 C 
ATOM      2  C5  <0> d          -1.402  -2.075   0.145  0.00  0.00     0.129 A 
ATOM      3  C6  <0> d          -2.622  -2.341   1.071  0.00  0.00     0.147 A 
ATOM      4  C7  <0> d          -1.994  -2.939   2.311  0.00  0.00     0.239 A 
ATOM      5  O1  <0> d          -2.599  -3.303   3.296  0.00  0.00    -0.272 OA
ATOM      6  N1  <0> d          -0.667  -3.004   2.150  0.00  0.00    -0.252 N 
ATOM      7  C8  <0> d          -0.218  -2.545   0.959  0.00  0.00     0.238 A 
ATOM      8  O2  <0> d           0.939  -2.510   0.598  0.00  0.00    -0.272 OA
ATOM      9  C15 <0> d          -3.180  -0.946   1.382  0.00  0.00     0.279 A 
ATOM     10  N2  <0> d          -2.046  -0.011   1.197  0.00  0.00     0.114 N 
ATOM     11  C16 <0> d          -4.347  -0.612   0.496  0.00  0.00     0.017 A 
ATOM     12  C17 <0> d          -4.503  -0.511  -0.868  0.00  0.00     0.012 A 
ATOM     13  C18 <0> d          -5.735  -0.176  -1.401  0.00  0.00     0.001 A 
ATOM     14  C19 <0> d          -6.808   0.059  -0.560  0.00  0.00     0.002 A 
ATOM     15  C20 <0> d          -6.656  -0.040   0.807  0.00  0.00     0.030 A 
ATOM     16  C21 <0> d          -5.419  -0.377   1.352  0.00  0.00     0.044 A 
ATOM     17  N3  <0> d          -5.020  -0.535   2.681  0.00  0.00    -0.324 N 
ATOM     18  C22 <0> d          -3.719  -0.869   2.785  0.00  0.00     0.267 A 
ATOM     19  O3  <0> d          -3.101  -1.068   3.809  0.00  0.00    -0.270 OA
ATOM     20  H14 <0> d          -1.436  -0.004   2.001  0.00  0.00     0.318 HD
ATOM     21  H19 <0> d          -5.611  -0.418   3.441  0.00  0.00     0.169 HD
ENDROOT
BRANCH   1  22
ATOM     22  C2  <0> d           0.111  -0.063  -0.020  0.00  0.00     0.011 C 
ATOM     23  C1  <0> d           0.776  -0.504  -1.325  0.00  0.00     0.012 C 
ATOM     24  C3  <0> d           0.148   1.464   0.081  0.00  0.00     0.012 C 
ENDBRANCH   1  22
BRANCH   6  25
ATOM     25  C9  <0> d           0.192  -3.513   3.135  0.00  0.00     0.047 A 
ATOM     26  C14 <0> d           1.091  -2.672   3.775  0.00  0.00     0.057 A 
ATOM     27  C13 <0> d           1.934  -3.175   4.748  0.00  0.00     0.074 A 
ATOM     28  C12 <0> d           1.888  -4.521   5.077  0.00  0.00     0.138 A 
ATOM     29 Cl1  <0> d           3.054  -2.123   5.555  0.00  0.00    -0.081 Cl
ATOM     30  C11 <0> d           0.995  -5.362   4.435  0.00  0.00     0.046 A 
ATOM     31  F1  <0> d           2.715  -5.012   6.025  0.00  0.00    -0.204 F 
ATOM     32  C10 <0> d           0.148  -4.861   3.466  0.00  0.00     0.033 A 
ENDBRANCH   6  25
TORSDOF 2
