REMARK  5 active torsions:
REMARK  status: ('A' for Active; 'I' for Inactive)
REMARK    1  A    between atoms: C8_10  and  C10_15 
REMARK    2  A    between atoms: C9_12  and  N5_14 
REMARK    3  A    between atoms: C13_18  and  C14_20 
REMARK    4  A    between atoms: C14_20  and  S1_21 
REMARK    5  A    between atoms: S1_21  and  C15_22 
ROOT
ATOM      1  C1  <0> d          -0.017   1.373   0.010  0.00  0.00     0.002 A 
ATOM      2  C2  <0> d           1.170   2.091   0.002  0.00  0.00     0.002 A 
ATOM      3  C3  <0> d           2.384   1.436  -0.013  0.00  0.00     0.033 A 
ATOM      4  C4  <0> d           2.425   0.049  -0.021  0.00  0.00     0.083 A 
ATOM      5  C5  <0> d           1.223  -0.684  -0.014  0.00  0.00     0.103 A 
ATOM      6  C6  <0> d           0.002  -0.004   0.002  0.00  0.00     0.034 A 
ATOM      7  N1  <0> d           1.550  -2.004  -0.026  0.00  0.00    -0.062 NA
ATOM      8  C7  <0> d           2.850  -2.135  -0.051  0.00  0.00     0.724 A 
ATOM      9  N2  <0> d           3.434  -0.883  -0.033  0.00  0.00    -0.150 N 
ATOM     10  C8  <0> d           4.891  -0.705  -0.021  0.00  0.00     0.282 C 
ATOM     11  N3  <0> d           5.471  -1.938  -0.584  0.00  0.00    -0.198 N 
ATOM     12  C9  <0> d           4.897  -3.150  -0.308  0.00  0.00     0.688 C 
ATOM     13  N4  <0> d           3.600  -3.262  -0.075  0.00  0.00    -0.021 N 
ATOM     14  H6  <0> d           6.258  -1.890  -1.149  0.00  0.00     0.180 HD
ATOM     15  H14 <0> d           3.196  -4.131   0.076  0.00  0.00     0.203 HD
ENDROOT
BRANCH  10  16
ATOM     16  C10 <0> d           5.374  -0.506   1.393  0.00  0.00     0.097 A 
ATOM     17  O1  <0> d           5.577  -1.478   2.297  0.00  0.00    -0.315 OA
ATOM     18  C13 <0> d           6.011  -0.936   3.447  0.00  0.00     0.063 A 
ATOM     19  C12 <0> d           6.081   0.398   3.288  0.00  0.00     0.036 A 
ATOM     20  C11 <0> d           5.671   0.675   1.964  0.00  0.00     0.039 A 
BRANCH  18  21
ATOM     21  C14 <0> d           6.356  -1.693   4.703  0.00  0.00     0.144 C 
BRANCH  21  22
ATOM     22  S1  <0> d           4.876  -1.848   5.741  0.00  0.00    -0.094 SA
BRANCH  22  23
ATOM     23  C15 <0> d           5.453  -2.771   7.193  0.00  0.00     0.416 C 
ATOM     24  F1  <0> d           5.946  -4.016   6.788  0.00  0.00    -0.203 F 
ATOM     25  F2  <0> d           6.470  -2.051   7.829  0.00  0.00    -0.203 F 
ENDBRANCH  22  23
ENDBRANCH  21  22
ENDBRANCH  18  21
ENDBRANCH  10  16
BRANCH  12  26
ATOM     26  N5  <0> d           5.682  -4.270  -0.272  0.00  0.00    -0.234 N 
ATOM     27  H7  <0> d           6.635  -4.199  -0.442  0.00  0.00     0.174 HD
ATOM     28  H8  <0> d           5.287  -5.134  -0.077  0.00  0.00     0.174 HD
ENDBRANCH  12  26
TORSDOF 5
