REMARK  7 active torsions:
REMARK  status: ('A' for Active; 'I' for Inactive)
REMARK    1  A    between atoms: C2_2  and  C3_3 
REMARK    2  A    between atoms: C3_3  and  C4_4 
REMARK    3  A    between atoms: C4_4  and  N1_5 
REMARK    4  A    between atoms: C8_10  and  C9_12 
REMARK       I    between atoms: C9_12  and  N3_14 
REMARK    5  A    between atoms: N3_14  and  N4_15 
REMARK       I    between atoms: N4_15  and  C10_16 
REMARK    6  A    between atoms: C10_16  and  C11_18 
REMARK    7  A    between atoms: N5_21  and  C14_23 
ROOT
ATOM      1  N4  <0> d          -1.666  -3.326  -6.934  0.00  0.00    -0.262 N 
ATOM      2  C10 <0> d          -2.992  -3.093  -6.881  0.00  0.00     0.293 C 
ATOM      3  O3  <0> d          -3.500  -2.701  -5.848  0.00  0.00    -0.264 OA
ATOM      4  H13 <0> d          -1.261  -3.639  -7.758  0.00  0.00     0.190 HD
ENDROOT
BRANCH   1   5
ATOM      5  N3  <0> d          -0.872  -3.117  -5.798  0.00  0.00    -0.262 N 
ATOM      6  C9  <0> d           0.454  -3.350  -5.851  0.00  0.00     0.290 C 
ATOM      7  O2  <0> d           0.962  -3.742  -6.884  0.00  0.00    -0.264 OA
ATOM      8  H12 <0> d          -1.277  -2.805  -4.974  0.00  0.00     0.190 HD
BRANCH   6   9
ATOM      9  C8  <0> d           1.292  -3.130  -4.653  0.00  0.00     0.146 A 
ATOM     10  C7  <0> d           2.685  -3.376  -4.710  0.00  0.00     0.044 A 
ATOM     11  C6  <0> d           3.425  -3.161  -3.586  0.00  0.00     0.078 A 
ATOM     12  C5  <0> d           2.754  -2.705  -2.429  0.00  0.00     0.263 A 
ATOM     13  N1  <0> d           1.425  -2.500  -2.470  0.00  0.00    -0.234 N 
ATOM     14  O1  <0> d           3.376  -2.500  -1.400  0.00  0.00    -0.267 OA
ATOM     15  N2  <0> d           0.740  -2.711  -3.536  0.00  0.00    -0.164 NA
BRANCH  13  16
ATOM     16  C4  <0> d           0.739  -2.027  -1.265  0.00  0.00     0.155 C 
BRANCH  16  17
ATOM     17  C3  <0> d           0.718  -0.497  -1.257  0.00  0.00     0.022 C 
BRANCH  17  18
ATOM     18  C2  <0> d           0.002  -0.004   0.002  0.00  0.00    -0.003 C 
ATOM     19  C1  <0> d          -0.019   1.526   0.010  0.00  0.00     0.005 C 
ENDBRANCH  17  18
ENDBRANCH  16  17
ENDBRANCH  13  16
ENDBRANCH   6   9
ENDBRANCH   1   5
BRANCH   2  20
ATOM     20  C11 <0> d          -3.828  -3.313  -8.076  0.00  0.00     0.184 A 
ATOM     21  N6  <0> d          -3.412  -3.733  -9.257  0.00  0.00    -0.159 NA
ATOM     22  N5  <0> d          -4.402  -3.818 -10.071  0.00  0.00    -0.242 N 
ATOM     23  C13 <0> d          -5.553  -3.437  -9.452  0.00  0.00     0.161 A 
ATOM     24  C12 <0> d          -5.227  -3.107  -8.176  0.00  0.00     0.160 A 
ATOM     25  O4  <0> d          -6.067  -2.671  -7.198  0.00  0.00    -0.188 OA
BRANCH  22  26
ATOM     26  C14 <0> d          -4.310  -4.236 -11.405  0.00  0.00     0.058 A 
ATOM     27  C19 <0> d          -3.080  -4.603 -11.936  0.00  0.00     0.031 A 
ATOM     28  C18 <0> d          -2.993  -5.020 -13.250  0.00  0.00     0.002 A 
ATOM     29  C17 <0> d          -4.128  -5.061 -14.040  0.00  0.00     0.000 A 
ATOM     30  C16 <0> d          -5.353  -4.691 -13.516  0.00  0.00     0.002 A 
ATOM     31  C15 <0> d          -5.447  -4.279 -12.201  0.00  0.00     0.031 A 
ENDBRANCH  22  26
ENDBRANCH   2  20
TORSDOF 7
