REMARK  5 active torsions:
REMARK  status: ('A' for Active; 'I' for Inactive)
REMARK    1  A    between atoms: C3_3  and  C5_6 
REMARK    2  A    between atoms: C5_6  and  N1_7 
REMARK    3  A    between atoms: N1_7  and  C6_8 
REMARK       I    between atoms: N1_7  and  C10_13 
REMARK    4  A    between atoms: C10_13  and  C11_15 
REMARK    5  A    between atoms: C14_18  and  N2_21 
ROOT
ATOM      1  N1  <0> d           4.689  -0.664   0.778  0.00  0.00    -0.344 N 
ATOM      2  C10 <0> d           4.625  -0.668   2.124  0.00  0.00     0.224 C 
ATOM      3  O2  <0> d           4.549  -1.720   2.724  0.00  0.00    -0.273 OA
ENDROOT
BRANCH   1   4
ATOM      4  C5  <0> d           4.645   0.605   0.047  0.00  0.00     0.158 C 
BRANCH   4   5
ATOM      5  C3  <0> d           3.224   0.849  -0.465  0.00  0.00     0.139 C 
ATOM      6  C2  <0> d           3.103   2.264  -1.086  0.00  0.00     0.035 C 
ATOM      7  C1  <0> d           1.910   2.092  -2.057  0.00  0.00     0.029 C 
ATOM      8  C4  <0> d           1.837   0.571  -2.298  0.00  0.00     0.168 C 
ATOM      9  O1  <0> d           2.920  -0.030  -1.569  0.00  0.00    -0.384 OA
ENDBRANCH   4   5
ENDBRANCH   1   4
BRANCH   1  10
ATOM     10  C6  <0> d           4.804  -1.927   0.045  0.00  0.00     0.097 C 
ATOM     11  C9  <0> d           3.659  -2.859   0.487  0.00  0.00     0.099 C 
ATOM     12  S1  <0> d           4.537  -4.267   1.278  0.00  0.00    -0.167 SA
ATOM     13  C8  <0> d           6.169  -3.444   1.540  0.00  0.00     0.076 C 
ATOM     14  C7  <0> d           6.193  -2.514   0.295  0.00  0.00     0.036 C 
ENDBRANCH   1  10
BRANCH   2  15
ATOM     15  C11 <0> d           4.646   0.633   2.884  0.00  0.00     0.078 C 
ATOM     16  C16 <0> d           5.127   0.380   4.314  0.00  0.00     0.016 C 
ATOM     17  C15 <0> d           5.149   1.701   5.086  0.00  0.00     0.033 C 
ATOM     18  C14 <0> d           3.740   2.295   5.120  0.00  0.00     0.183 C 
ATOM     19  C13 <0> d           3.259   2.548   3.689  0.00  0.00     0.033 C 
ATOM     20  C12 <0> d           3.237   1.227   2.918  0.00  0.00     0.016 C 
BRANCH  18  21
ATOM     21  N2  <0> d           3.761   3.563   5.861  0.00  0.00    -0.075 N 
ATOM     22  H27 <0> d           2.832   3.956   5.883  0.00  0.00     0.274 HD
ATOM     23  H28 <0> d           4.078   3.397   6.804  0.00  0.00     0.274 HD
ATOM     24  H29 <0> d           4.388   4.209   5.404  0.00  0.00     0.274 HD
ENDBRANCH  18  21
ENDBRANCH   2  15
TORSDOF 5
