REMARK  6 active torsions:
REMARK  status: ('A' for Active; 'I' for Inactive)
REMARK    1  A    between atoms: C4_5  and  C6_8 
REMARK    2  A    between atoms: C6_8  and  N3_28 
REMARK    3  A    between atoms: C15_17  and  C16_18 
REMARK    4  A    between atoms: C15_17  and  N4_30 
REMARK    5  A    between atoms: C20_22  and  O2_26 
REMARK    6  A    between atoms: C21_23  and  O1_24 
ROOT
ATOM      1  C7  <0> d          -2.953   0.477  -3.378  0.00  0.00     0.236 C 
ATOM      2  C8  <0> d          -2.985   1.670  -2.389  0.00  0.00     0.040 C 
ATOM      3  C9  <0> d          -2.207   1.127  -1.173  0.00  0.00     0.009 C 
ATOM      4  C10 <0> d          -2.279  -0.403  -1.288  0.00  0.00     0.246 C 
ATOM      5  C11 <0> d          -0.756   1.595  -1.232  0.00  0.00     0.014 C 
ATOM      6  C12 <0> d          -0.013   1.086   0.008  0.00  0.00     0.029 C 
ATOM      7  C13 <0> d          -0.731   1.581   1.266  0.00  0.00     0.235 C 
ATOM      8  C14 <0> d          -2.868   1.593   0.120  0.00  0.00     0.246 C 
ATOM      9  N3  <0> d          -3.085  -0.679  -2.484  0.00  0.00    -0.066 N 
ATOM     10  H33 <0> d          -4.069  -0.802  -2.218  0.00  0.00     0.280 HD
ATOM     11  N4  <0> d          -2.112   1.050   1.270  0.00  0.00    -0.066 N 
ATOM     12  H34 <0> d          -2.076   0.027   1.192  0.00  0.00     0.280 HD
ENDROOT
BRANCH  11  13
ATOM     13  C15 <0> d          -2.787   1.412   2.534  0.00  0.00     0.276 C 
BRANCH  13  14
ATOM     14  C16 <0> d          -1.875   1.093   3.690  0.00  0.00     0.004 A 
ATOM     15  C21 <0> d          -0.864   1.974   4.038  0.00  0.00     0.109 A 
ATOM     16  C20 <0> d          -0.024   1.676   5.107  0.00  0.00     0.102 A 
ATOM     17  C19 <0> d          -0.202   0.500   5.817  0.00  0.00     0.039 A 
ATOM     18  C18 <0> d          -1.212  -0.375   5.465  0.00  0.00     0.003 A 
ATOM     19  C17 <0> d          -2.050  -0.077   4.407  0.00  0.00     0.012 A 
BRANCH  15  20
ATOM     20  O1  <0> d          -0.694   3.127   3.338  0.00  0.00    -0.352 OA
ATOM     21  C22 <0> d          -1.408   4.276   3.797  0.00  0.00     0.210 C 
ENDBRANCH  15  20
BRANCH  16  22
ATOM     22  O2  <0> d           0.970   2.538   5.452  0.00  0.00    -0.353 OA
ATOM     23  C23 <0> d           1.794   2.167   6.560  0.00  0.00     0.210 C 
ENDBRANCH  16  22
ENDBRANCH  13  14
ENDBRANCH  11  13
BRANCH   9  24
ATOM     24  C6  <0> d          -2.601  -1.923  -3.157  0.00  0.00     0.276 C 
BRANCH  24  25
ATOM     25  C4  <0> d          -3.583  -2.338  -4.221  0.00  0.00     0.003 A 
ATOM     26  C3  <0> d          -3.466  -1.865  -5.519  0.00  0.00     0.129 A 
ATOM     27  N1  <0> d          -4.347  -2.252  -6.427  0.00  0.00    -0.245 NA
ATOM     28  C2  <0> d          -5.327  -3.075  -6.110  0.00  0.00     0.121 A 
ATOM     29  C1  <0> d          -6.309  -3.490  -7.175  0.00  0.00     0.093 C 
ATOM     30  N2  <0> d          -5.469  -3.545  -4.887  0.00  0.00    -0.245 NA
ATOM     31  C5  <0> d          -4.623  -3.207  -3.928  0.00  0.00     0.129 A 
ENDBRANCH  24  25
ENDBRANCH   9  24
TORSDOF 6
