REMARK  5 active torsions:
REMARK  status: ('A' for Active; 'I' for Inactive)
REMARK    1  A    between atoms: S1_2  and  C2_5 
REMARK    2  A    between atoms: C2_5  and  C3_6 
REMARK    3  A    between atoms: C3_6  and  N1_7 
REMARK    4  A    between atoms: N2_10  and  C8_13 
REMARK    5  A    between atoms: C11_16  and  N3_19 
ROOT
ATOM      1  N1  <0> d           1.689  -2.201  -2.959  0.00  0.00     0.092 N 
ATOM      2  C4  <0> d           0.921  -1.764  -4.133  0.00  0.00     0.292 C 
ATOM      3  C5  <0> d           1.773  -1.946  -5.394  0.00  0.00     0.153 C 
ATOM      4  N2  <0> d           2.245  -3.338  -5.441  0.00  0.00    -0.378 N 
ATOM      5  C6  <0> d           2.905  -3.891  -4.248  0.00  0.00     0.153 C 
ATOM      6  C7  <0> d           2.008  -3.633  -3.033  0.00  0.00     0.292 C 
ENDROOT
BRANCH   4   7
ATOM      7  C8  <0> d           2.072  -4.117  -6.592  0.00  0.00     0.030 A 
ATOM      8  C13 <0> d           2.628  -5.387  -6.661  0.00  0.00     0.031 A 
ATOM      9  C12 <0> d           2.453  -6.157  -7.794  0.00  0.00     0.031 A 
ATOM     10  C11 <0> d           1.730  -5.657  -8.868  0.00  0.00     0.025 A 
ATOM     11  C10 <0> d           1.179  -4.384  -8.802  0.00  0.00     0.031 A 
ATOM     12  C9  <0> d           1.350  -3.616  -7.667  0.00  0.00     0.031 A 
BRANCH  10  13
ATOM     13  N3  <0> d           1.556  -6.435 -10.019  0.00  0.00    -0.399 N 
ATOM     14  H20 <0> d           1.051  -6.086 -10.769  0.00  0.00     0.156 HD
ATOM     15  H21 <0> d           1.941  -7.324 -10.066  0.00  0.00     0.156 HD
ENDBRANCH  10  13
ENDBRANCH   4   7
BRANCH   1  16
ATOM     16  C3  <0> d           0.975  -1.883  -1.715  0.00  0.00     0.287 C 
BRANCH  16  17
ATOM     17  C2  <0> d           0.881  -0.365  -1.554  0.00  0.00     0.170 C 
BRANCH  17  18
ATOM     18  S1  <0> d          -0.001   0.027  -0.018  0.00  0.00     0.142 S 
ATOM     19  C1  <0> d          -0.008   1.841  -0.011  0.00  0.00     0.161 C 
ATOM     20  O1  <0> d           0.783  -0.424   1.078  0.00  0.00    -0.228 OA
ATOM     21  O2  <0> d          -1.342  -0.427  -0.142  0.00  0.00    -0.228 OA
ENDBRANCH  17  18
ENDBRANCH  16  17
ENDBRANCH   1  16
TORSDOF 5
