REMARK  8 active torsions:
REMARK  status: ('A' for Active; 'I' for Inactive)
REMARK    1  A    between atoms: C3_3  and  N1_8 
REMARK    2  A    between atoms: N1_8  and  C7_9 
REMARK    3  A    between atoms: C8_12  and  S2_14 
REMARK    4  A    between atoms: S2_14  and  C9_15 
REMARK    5  A    between atoms: C9_15  and  C10_16 
REMARK    6  A    between atoms: C10_16  and  C11_18 
REMARK    7  A    between atoms: C14_21  and  O3_25 
REMARK    8  A    between atoms: C15_22  and  O2_24 
ROOT
ATOM      1  C7  <0> d           0.000  -0.020   0.186  0.00  0.00     0.195 A 
ATOM      2  N2  <0> d           1.297  -0.260   0.165  0.00  0.00    -0.122 NA
ATOM      3  N3  <0> d           2.187   0.769   0.367  0.00  0.00    -0.133 NA
ATOM      4  C8  <0> d           1.739   1.992   0.582  0.00  0.00     0.160 A 
ATOM      5  S1  <0> d          -0.027   1.738   0.505  0.00  0.00    -0.022 SA
ENDROOT
BRANCH   4   6
ATOM      6  S2  <0> d           2.642   3.478   0.867  0.00  0.00    -0.093 SA
BRANCH   6   7
ATOM      7  C9  <0> d           4.378   2.955   0.803  0.00  0.00     0.165 C 
BRANCH   7   8
ATOM      8  C10 <0> d           5.271   4.147   1.035  0.00  0.00     0.169 C 
ATOM      9  O1  <0> d           4.783   5.242   1.225  0.00  0.00    -0.291 OA
BRANCH   8  10
ATOM     10  C11 <0> d           6.730   3.984   1.031  0.00  0.00     0.013 A 
ATOM     11  C16 <0> d           7.561   5.091   1.246  0.00  0.00     0.054 A 
ATOM     12  C15 <0> d           8.932   4.931   1.241  0.00  0.00     0.099 A 
ATOM     13  C14 <0> d           9.487   3.670   1.022  0.00  0.00     0.098 A 
ATOM     14  C13 <0> d           8.663   2.572   0.807  0.00  0.00     0.040 A 
ATOM     15  C12 <0> d           7.295   2.721   0.817  0.00  0.00     0.018 A 
BRANCH  12  16
ATOM     16  O2  <0> d           9.742   6.003   1.450  0.00  0.00    -0.358 OA
ATOM     17  H11 <0> d           9.961   6.155   2.380  0.00  0.00     0.217 HD
ENDBRANCH  12  16
BRANCH  13  18
ATOM     18  O3  <0> d          10.835   3.516   1.017  0.00  0.00    -0.358 OA
ATOM     19  H12 <0> d          11.211   3.313   1.884  0.00  0.00     0.217 HD
ENDBRANCH  13  18
ENDBRANCH   8  10
ENDBRANCH   7   8
ENDBRANCH   6   7
ENDBRANCH   4   6
BRANCH   1  20
ATOM     20  N1  <0> d          -1.062  -0.900   0.008  0.00  0.00    -0.334 N 
ATOM     21  H5  <0> d          -1.970  -0.561  -0.036  0.00  0.00     0.168 HD
BRANCH  20  22
ATOM     22  C3  <0> d          -0.821  -2.271  -0.107  0.00  0.00     0.037 A 
ATOM     23  C2  <0> d           0.313  -2.829   0.470  0.00  0.00     0.029 A 
ATOM     24  C1  <0> d           0.549  -4.186   0.355  0.00  0.00     0.005 A 
ATOM     25  C6  <0> d          -0.342  -4.989  -0.333  0.00  0.00     0.042 A 
ATOM     26  C5  <0> d          -1.473  -4.436  -0.910  0.00  0.00     0.118 A 
ATOM     27  C4  <0> d          -1.717  -3.080  -0.794  0.00  0.00     0.071 A 
ATOM     28  F1  <0> d          -2.342  -5.223  -1.582  0.00  0.00    -0.206 F 
ENDBRANCH  20  22
ENDBRANCH   1  20
TORSDOF 8
