REMARK  4 active torsions:
REMARK  status: ('A' for Active; 'I' for Inactive)
REMARK    1  A    between atoms: C3_5  and  C13_19 
REMARK    2  A    between atoms: C4_6  and  O4_18 
REMARK    3  A    between atoms: N2_7  and  C6_10 
REMARK    4  A    between atoms: C9_13  and  O3_16 
ROOT
ATOM      1  C1  <0> d           0.056   1.457  -0.031  0.00  0.00     0.164 C 
ATOM      2  N1  <0> d           0.024  -0.008  -0.025  0.00  0.00    -0.274 N 
ATOM      3  C2  <0> d          -1.162  -0.644  -0.045  0.00  0.00     0.238 C 
ATOM      4  O1  <0> d          -2.189  -0.009  -0.150  0.00  0.00    -0.272 OA
ATOM      5  C3  <0> d          -1.211  -2.148   0.061  0.00  0.00     0.163 C 
ATOM      6  C4  <0> d           0.010  -2.743  -0.643  0.00  0.00     0.245 C 
ATOM      7  N2  <0> d           1.214  -2.018  -0.231  0.00  0.00    -0.272 N 
ATOM      8  C5  <0> d           1.178  -0.696  -0.004  0.00  0.00     0.333 C 
ATOM      9  O2  <0> d           2.215  -0.107   0.231  0.00  0.00    -0.246 OA
ENDROOT
BRANCH   5  10
ATOM     10  C13 <0> d          -1.202  -2.557   1.535  0.00  0.00     0.264 C 
ATOM     11  N4  <0> d          -0.043  -1.952   2.211  0.00  0.00     0.091 N 
ATOM     12  C23 <0> d           0.127  -2.411   3.592  0.00  0.00     0.274 C 
ATOM     13  H24 <0> d           0.801  -2.092   1.676  0.00  0.00     0.316 HD
ATOM     14  C22 <0> d          -1.061  -1.949   4.455  0.00  0.00     0.067 C 
ATOM     15  C15 <0> d          -2.308  -2.347   3.704  0.00  0.00    -0.041 A 
ATOM     16  C14 <0> d          -2.475  -2.051   2.218  0.00  0.00     0.146 A 
ATOM     17  C16 <0> d          -3.375  -3.043   4.071  0.00  0.00    -0.005 A 
ATOM     18  N3  <0> d          -3.670  -2.776   1.787  0.00  0.00    -0.379 N 
ATOM     19  C21 <0> d          -4.207  -3.324   2.861  0.00  0.00     0.039 A 
ATOM     20  H25 <0> d          -3.998  -2.839   0.877  0.00  0.00     0.160 HD
ATOM     21  C20 <0> d          -5.406  -4.081   3.000  0.00  0.00     0.030 A 
ATOM     22  C19 <0> d          -5.737  -4.503   4.247  0.00  0.00     0.002 A 
ATOM     23  C18 <0> d          -4.983  -4.244   5.395  0.00  0.00     0.001 A 
ATOM     24  C17 <0> d          -3.821  -3.538   5.383  0.00  0.00     0.014 A 
ENDBRANCH   5  10
BRANCH   6  25
ATOM     25  O4  <0> d           0.140  -4.121  -0.289  0.00  0.00    -0.375 OA
ATOM     26  H15 <0> d           0.837  -4.587  -0.771  0.00  0.00     0.212 HD
ENDBRANCH   6  25
BRANCH   7  27
ATOM     27  C6  <0> d           2.420  -2.713  -0.076  0.00  0.00     0.041 A 
ATOM     28  C11 <0> d           3.035  -3.291  -1.178  0.00  0.00     0.032 A 
ATOM     29  C10 <0> d           4.227  -3.972  -1.026  0.00  0.00     0.039 A 
ATOM     30  C9  <0> d           4.804  -4.089   0.231  0.00  0.00     0.068 A 
ATOM     31  C8  <0> d           4.187  -3.517   1.333  0.00  0.00     0.039 A 
ATOM     32  C7  <0> d           2.998  -2.830   1.181  0.00  0.00     0.032 A 
BRANCH  30  33
ATOM     33  O3  <0> d           5.974  -4.764   0.381  0.00  0.00    -0.356 OA
ATOM     34  C12 <0> d           6.554  -5.327  -0.797  0.00  0.00     0.210 C 
ENDBRANCH  30  33
ENDBRANCH   7  27
TORSDOF 4
