REMARK  3 active torsions:
REMARK  status: ('A' for Active; 'I' for Inactive)
REMARK    1  A    between atoms: C4_4  and  N3_8 
REMARK    2  A    between atoms: N3_8  and  C6_9 
REMARK    3  A    between atoms: C6_9  and  C7_10 
ROOT
ATOM      1  N3  <0> d           0.030  -2.832  -2.322  0.00  0.00    -0.373 N 
ATOM      2  H7  <0> d           0.043  -3.801  -2.283  0.00  0.00     0.161 HD
ENDROOT
BRANCH   1   3
ATOM      3  C4  <0> d           0.026  -2.092  -1.150  0.00  0.00     0.126 A 
ATOM      4  C3  <0> d           0.006  -0.696  -1.193  0.00  0.00     0.077 A 
ATOM      5  C2  <0> d           0.002  -0.004   0.002  0.00  0.00     0.035 A 
ATOM      6  C1  <0> d          -0.018   1.503   0.010  0.00  0.00     0.070 C 
ATOM      7  N2  <0> d           0.022  -0.681   1.141  0.00  0.00    -0.247 NA
ATOM      8  C5  <0> d           0.035  -1.999   1.148  0.00  0.00     0.235 A 
ATOM      9  N1  <0> d           0.040  -2.699   0.033  0.00  0.00    -0.225 NA
ENDBRANCH   1   3
BRANCH   1  10
ATOM     10  C6  <0> d           0.014  -2.151  -3.619  0.00  0.00     0.154 C 
BRANCH  10  11
ATOM     11  C7  <0> d           0.022  -3.190  -4.741  0.00  0.00     0.203 C 
ATOM     12  N4  <0> d          -1.097  -4.121  -4.553  0.00  0.00    -0.069 N 
ATOM     13  C11 <0> d          -1.052  -5.168  -5.581  0.00  0.00     0.233 C 
ATOM     14  H18 <0> d          -1.030  -4.546  -3.640  0.00  0.00     0.277 HD
ATOM     15  H19 <0> d          -1.968  -3.617  -4.625  0.00  0.00     0.277 HD
ATOM     16  C10 <0> d          -1.234  -4.538  -6.964  0.00  0.00     0.027 C 
ATOM     17  C9  <0> d          -0.109  -3.528  -7.211  0.00  0.00     0.004 C 
ATOM     18  C8  <0> d          -0.119  -2.484  -6.091  0.00  0.00     0.035 C 
ENDBRANCH  10  11
ENDBRANCH   1  10
TORSDOF 3
