REMARK  7 active torsions:
REMARK  status: ('A' for Active; 'I' for Inactive)
REMARK    1  A    between atoms: C2_2  and  C3_3 
REMARK    2  A    between atoms: C3_3  and  N3_31 
REMARK    3  A    between atoms: C8_9  and  N2_14 
REMARK    4  A    between atoms: C9_10  and  C10_11 
REMARK       I    between atoms: C10_11  and  N1_13 
REMARK       I    between atoms: N2_14  and  C11_15 
REMARK    5  A    between atoms: C11_15  and  C12_17 
REMARK    6  A    between atoms: C16_21  and  O4_25 
REMARK    7  A    between atoms: C17_22  and  O3_23 
ROOT
ATOM      1  C4  <0> d           2.487  -6.719   0.387  0.00  0.00     0.240 C 
ATOM      2  C5  <0> d           3.123  -5.397  -0.052  0.00  0.00     0.068 C 
ATOM      3  C6  <0> d           2.041  -4.323  -0.040  0.00  0.00    -0.023 A 
ATOM      4  C7  <0> d           0.735  -4.676  -0.030  0.00  0.00     0.018 A 
ATOM      5  S1  <0> d          -0.146  -3.142  -0.006  0.00  0.00    -0.074 SA
ATOM      6  C8  <0> d           1.197  -2.047  -0.020  0.00  0.00     0.093 A 
ATOM      7  C9  <0> d           2.297  -2.895  -0.035  0.00  0.00     0.073 A 
ATOM      8  C20 <0> d           0.191  -6.070  -0.034  0.00  0.00     0.281 C 
ATOM      9  N3  <0> d           1.288  -6.984  -0.435  0.00  0.00    -0.066 N 
ATOM     10  H26 <0> d           1.517  -6.818  -1.422  0.00  0.00     0.280 HD
ENDROOT
BRANCH   6  11
ATOM     11  N2  <0> d           1.178  -0.662  -0.013  0.00  0.00    -0.316 N 
ATOM     12  C11 <0> d           0.002  -0.004   0.002  0.00  0.00     0.259 C 
ATOM     13  O2  <0> d          -1.043  -0.626   0.009  0.00  0.00    -0.267 OA
ATOM     14  H14 <0> d           2.012  -0.166  -0.018  0.00  0.00     0.169 HD
BRANCH  12  15
ATOM     15  C12 <0> d          -0.018   1.471   0.010  0.00  0.00     0.068 A 
ATOM     16  C17 <0> d          -1.238   2.158   0.020  0.00  0.00     0.117 A 
ATOM     17  C16 <0> d          -1.244   3.549   0.033  0.00  0.00     0.102 A 
ATOM     18  C15 <0> d          -0.049   4.247   0.026  0.00  0.00     0.040 A 
ATOM     19  C14 <0> d           1.159   3.567   0.010  0.00  0.00     0.004 A 
ATOM     20  C13 <0> d           1.181   2.190   0.003  0.00  0.00     0.020 A 
BRANCH  16  21
ATOM     21  O3  <0> d          -2.408   1.470   0.021  0.00  0.00    -0.352 OA
ATOM     22  C18 <0> d          -2.962   1.134   1.295  0.00  0.00     0.210 C 
ENDBRANCH  16  21
BRANCH  17  23
ATOM     23  O4  <0> d          -2.425   4.224   0.048  0.00  0.00    -0.353 OA
ATOM     24  C19 <0> d          -2.357   5.651   0.056  0.00  0.00     0.210 C 
ENDBRANCH  17  23
ENDBRANCH  12  15
ENDBRANCH   6  11
BRANCH   7  25
ATOM     25  C10 <0> d           3.665  -2.368  -0.046  0.00  0.00     0.252 C 
ATOM     26  O1  <0> d           4.243  -2.154   1.004  0.00  0.00    -0.268 OA
ATOM     27  N1  <0> d           4.282  -2.119  -1.218  0.00  0.00    -0.366 N 
ATOM     28  H12 <0> d           3.822  -2.290  -2.054  0.00  0.00     0.159 HD
ATOM     29  H13 <0> d           5.187  -1.770  -1.225  0.00  0.00     0.159 HD
ENDBRANCH   7  25
BRANCH   9  30
ATOM     30  C3  <0> d           0.862  -8.390  -0.270  0.00  0.00     0.234 C 
BRANCH  30  31
ATOM     31  C2  <0> d           0.614  -8.703   1.207  0.00  0.00     0.023 C 
ATOM     32  C1  <0> d           0.176 -10.162   1.352  0.00  0.00     0.007 C 
ENDBRANCH  30  31
ENDBRANCH   9  30
TORSDOF 7
