REMARK  3 active torsions:
REMARK  status: ('A' for Active; 'I' for Inactive)
REMARK    1  A    between atoms: C2_2  and  C3_3 
REMARK    2  A    between atoms: N2_7  and  C6_8 
REMARK    3  A    between atoms: C6_8  and  C11_16 
ROOT
ATOM      1  C6  <0> d          -1.772  -0.875   2.753  0.00  0.00     0.128 C 
ATOM      2  C7  <0> d          -0.469  -1.649   2.934  0.00  0.00     0.058 C 
ATOM      3  C8  <0> d          -0.585  -3.028   2.279  0.00  0.00     0.143 C 
ATOM      4  S1  <0> d          -1.884  -3.974   3.127  0.00  0.00     0.144 S 
ATOM      5  O1  <0> d          -1.514  -4.129   4.490  0.00  0.00    -0.228 OA
ATOM      6  O2  <0> d          -2.180  -5.129   2.353  0.00  0.00    -0.228 OA
ATOM      7  C9  <0> d          -3.300  -2.838   3.037  0.00  0.00     0.143 C 
ATOM      8  C10 <0> d          -2.881  -1.480   3.608  0.00  0.00     0.058 C 
ENDROOT
BRANCH   1   9
ATOM      9  N2  <0> d          -2.169  -0.921   1.344  0.00  0.00    -0.325 N 
ATOM     10  C3  <0> d          -3.336  -0.483   0.825  0.00  0.00     0.083 A 
ATOM     11  N1  <0> d          -3.324  -0.686  -0.464  0.00  0.00    -0.354 N 
ATOM     12  C4  <0> d          -2.163  -1.260  -0.810  0.00  0.00     0.106 A 
ATOM     13  H16 <0> d          -4.042  -0.458  -1.075  0.00  0.00     0.166 HD
ATOM     14  C5  <0> d          -1.427  -1.419   0.307  0.00  0.00     0.111 A 
BRANCH  10  15
ATOM     15  C2  <0> d          -4.463   0.143   1.605  0.00  0.00     0.072 C 
ATOM     16  C1  <0> d          -5.545  -0.907   1.870  0.00  0.00     0.013 C 
ENDBRANCH  10  15
ENDBRANCH   1   9
BRANCH   1  17
ATOM     17  C11 <0> d          -1.556   0.559   3.161  0.00  0.00     0.203 C 
ATOM     18  O3  <0> d          -1.587   1.443   2.322  0.00  0.00    -0.646 OA
ATOM     19  O4  <0> d          -1.351   0.836   4.331  0.00  0.00    -0.646 OA
ENDBRANCH   1  17
TORSDOF 3
