REMARK  0 active torsions:
REMARK  status: ('A' for Active; 'I' for Inactive)
ROOT
ATOM      1  C1  <0> d          -0.017   1.381   0.010  0.00  0.00     0.050 A 
ATOM      2  C2  <0> d           1.167   2.095   0.002  0.00  0.00    -0.018 A 
ATOM      3  C3  <0> d           2.386   1.435  -0.013  0.00  0.00     0.038 A 
ATOM      4  C4  <0> d           2.403   0.039  -0.023  0.00  0.00     0.069 A 
ATOM      5  C5  <0> d           1.219  -0.676  -0.017  0.00  0.00     0.104 A 
ATOM      6  C6  <0> d           0.002  -0.004   0.002  0.00  0.00     0.102 A 
ATOM      7  O1  <0> d          -1.174  -0.690   0.017  0.00  0.00    -0.346 OA
ATOM      8  C7  <0> d          -1.120  -2.069  -0.367  0.00  0.00     0.202 C 
ATOM      9  C8  <0> d           0.065  -2.723   0.357  0.00  0.00     0.202 C 
ATOM     10  O2  <0> d           1.261  -2.037  -0.031  0.00  0.00    -0.346 OA
ATOM     11  N1  <0> d           3.459   2.333  -0.016  0.00  0.00    -0.388 N 
ATOM     12  C9  <0> d           2.960   3.711  -0.004  0.00  0.00     0.134 A 
ATOM     13  C10 <0> d           1.432   3.580   0.007  0.00  0.00     0.009 A 
ATOM     14  C11 <0> d           0.855   4.222   1.266  0.00  0.00     0.042 C 
ATOM     15  C12 <0> d           1.100   5.734   1.219  0.00  0.00     0.168 C 
ATOM     16  O3  <0> d           0.524   6.270   0.025  0.00  0.00    -0.391 OA
ATOM     17  C13 <0> d           1.082   5.744  -1.181  0.00  0.00     0.168 C 
ATOM     18  C14 <0> d           0.836   4.233  -1.238  0.00  0.00     0.042 C 
ATOM     19  H7  <0> d           4.396   2.080  -0.025  0.00  0.00     0.159 HD
ENDROOT
TORSDOF 0
