REMARK  7 active torsions:
REMARK  status: ('A' for Active; 'I' for Inactive)
REMARK    1  A    between atoms: N1_6  and  C7_8 
REMARK    2  A    between atoms: C7_8  and  C8_9 
REMARK    3  A    between atoms: C8_9  and  C9_10 
REMARK    4  A    between atoms: C9_10  and  N2_11 
REMARK       I    between atoms: N2_11  and  C10_12 
REMARK    5  A    between atoms: C10_12  and  C11_14 
REMARK    6  A    between atoms: C18_24  and  C19_26 
REMARK    7  A    between atoms: C24_31  and  N5_32 
REMARK       I    between atoms: N5_32  and  C25_33 
ROOT
ATOM      1  C11 <0> d          -6.682   0.964  -3.353  0.00  0.00     0.034 A 
ATOM      2  C12 <0> d          -5.295   0.765  -3.328  0.00  0.00     0.019 A 
ATOM      3  C13 <0> d          -4.578   1.040  -2.204  0.00  0.00     0.035 A 
ATOM      4  C14 <0> d          -5.224   1.528  -1.055  0.00  0.00     0.084 A 
ATOM      5  C15 <0> d          -6.618   1.730  -1.074  0.00  0.00     0.065 A 
ATOM      6  C16 <0> d          -7.340   1.447  -2.226  0.00  0.00     0.049 A 
ATOM      7  N3  <0> d          -7.266   2.211   0.050  0.00  0.00    -0.320 N 
ATOM      8  H3  <0> d          -8.354   2.368   0.032  0.00  0.00     0.169 HD
ATOM      9  C17 <0> d          -6.543   2.480   1.159  0.00  0.00     0.275 A 
ATOM     10  O2  <0> d          -7.088   2.903   2.162  0.00  0.00    -0.266 OA
ATOM     11  C18 <0> d          -5.085   2.254   1.138  0.00  0.00     0.138 A 
ATOM     12  N4  <0> d          -4.506   1.802   0.050  0.00  0.00    -0.240 NA
ENDROOT
BRANCH   1  13
ATOM     13  C10 <0> d          -7.447   0.661  -4.581  0.00  0.00     0.251 C 
ATOM     14  N2  <0> d          -6.812   0.194  -5.674  0.00  0.00    -0.357 N 
ATOM     15  H19 <0> d          -5.723   0.038  -5.652  0.00  0.00     0.162 HD
ATOM     16  O1  <0> d          -8.651   0.834  -4.605  0.00  0.00    -0.268 OA
BRANCH  14  17
ATOM     17  C9  <0> d          -7.571  -0.106  -6.890  0.00  0.00     0.124 C 
BRANCH  17  18
ATOM     18  C8  <0> d          -6.618  -0.618  -7.973  0.00  0.00     0.047 C 
BRANCH  18  19
ATOM     19  C7  <0> d          -7.411  -0.931  -9.243  0.00  0.00     0.236 C 
BRANCH  19  20
ATOM     20  N1  <0> d          -6.496  -1.422 -10.282  0.00  0.00    -0.070 N 
ATOM     21  C5  <0> d          -7.241  -1.955 -11.430  0.00  0.00     0.239 C 
ATOM     22  C4  <0> d          -6.264  -2.587 -12.424  0.00  0.00     0.008 C 
ATOM     23  C3  <0> d          -5.261  -1.529 -12.890  0.00  0.00     0.011 C 
ATOM     24  C27 <0> d          -5.516  -3.736 -11.745  0.00  0.00     0.011 C 
ATOM     25  C2  <0> d          -4.533  -0.955 -11.671  0.00  0.00     0.008 C 
ATOM     26  C1  <0> d          -3.571   0.146 -12.122  0.00  0.00     0.011 C 
ATOM     27  C6  <0> d          -5.560  -0.370 -10.699  0.00  0.00     0.239 C 
ATOM     28  H34 <0> d          -5.905  -2.246  -9.854  0.00  0.00     0.279 HD
ENDBRANCH  19  20
ENDBRANCH  18  19
ENDBRANCH  17  18
ENDBRANCH  14  17
ENDBRANCH   1  13
BRANCH  11  29
ATOM     29  C19 <0> d          -4.275   2.541   2.339  0.00  0.00     0.025 A 
ATOM     30  C24 <0> d          -4.453   1.786   3.508  0.00  0.00     0.047 A 
ATOM     31  C23 <0> d          -3.691   2.069   4.632  0.00  0.00     0.030 A 
ATOM     32  C22 <0> d          -2.755   3.083   4.596  0.00  0.00     0.002 A 
ATOM     33  C21 <0> d          -2.575   3.831   3.443  0.00  0.00     0.001 A 
ATOM     34  C20 <0> d          -3.328   3.567   2.319  0.00  0.00     0.016 A 
BRANCH  30  35
ATOM     35  N5  <0> d          -5.397   0.759   3.541  0.00  0.00    -0.327 N 
ATOM     36  C25 <0> d          -6.048   0.479   4.687  0.00  0.00     0.218 C 
ATOM     37  O3  <0> d          -5.764   1.072   5.706  0.00  0.00    -0.274 OA
ATOM     38  C26 <0> d          -7.128  -0.571   4.703  0.00  0.00     0.117 C 
ATOM     39  H27 <0> d          -5.609   0.178   2.631  0.00  0.00     0.169 HD
ENDBRANCH  30  35
ENDBRANCH  11  29
TORSDOF 7
