REMARK  5 active torsions:
REMARK  status: ('A' for Active; 'I' for Inactive)
REMARK    1  A    between atoms: C2_2  and  C3_3 
REMARK    2  A    between atoms: C2_2  and  O2_13 
REMARK       I    between atoms: C3_3  and  N1_5 
REMARK    3  A    between atoms: N1_5  and  N2_6 
REMARK    4  A    between atoms: N2_6  and  C4_7 
REMARK    5  A    between atoms: O2_13  and  C8_14 
ROOT
ATOM      1  C3  <0> d          -1.469  -0.321   0.136  0.00  0.00     0.265 C 
ATOM      2  O1  <0> d          -1.896  -0.800   1.165  0.00  0.00    -0.269 OA
ATOM      3  N1  <0> d          -2.309  -0.063  -0.887  0.00  0.00    -0.253 N 
ATOM      4  H5  <0> d          -1.968   0.320  -1.710  0.00  0.00     0.190 HD
ENDROOT
BRANCH   1   5
ATOM      5  C2  <0> d          -0.000  -0.013  -0.000  0.00  0.00     0.218 C 
ATOM      6  C1  <0> d           0.194   1.499  -0.139  0.00  0.00     0.050 C 
BRANCH   5   7
ATOM      7  O2  <0> d           0.693  -0.477   1.160  0.00  0.00    -0.335 OA
BRANCH   7   8
ATOM      8  C8  <0> d           2.014  -0.764   1.016  0.00  0.00     0.087 A 
ATOM      9  C13 <0> d           2.724  -1.320   2.071  0.00  0.00     0.047 A 
ATOM     10  C12 <0> d           4.066  -1.616   1.921  0.00  0.00     0.064 A 
ATOM     11 Br1  <0> d           1.853  -1.680   3.711  0.00  0.00    -0.048 Br
ATOM     12  C11 <0> d           4.704  -1.347   0.722  0.00  0.00     0.117 A 
ATOM     13  C10 <0> d           3.999  -0.787  -0.329  0.00  0.00     0.045 A 
ATOM     14  F1  <0> d           6.017  -1.632   0.579  0.00  0.00    -0.206 F 
ATOM     15  C9  <0> d           2.656  -0.496  -0.184  0.00  0.00     0.041 A 
ENDBRANCH   7   8
ENDBRANCH   5   7
ENDBRANCH   1   5
BRANCH   3  16
ATOM     16  N2  <0> d          -3.674  -0.349  -0.760  0.00  0.00    -0.126 N 
ATOM     17  H6  <0> d          -4.016  -0.733   0.063  0.00  0.00     0.206 HD
BRANCH  16  18
ATOM     18  C4  <0> d          -4.537  -0.085  -1.810  0.00  0.00     0.740 A 
ATOM     19  N4  <0> d          -5.825  -0.362  -1.674  0.00  0.00    -0.074 NA
ATOM     20  C7  <0> d          -6.677  -0.116  -2.656  0.00  0.00     0.138 A 
ATOM     21  C6  <0> d          -6.205   0.426  -3.841  0.00  0.00     0.040 A 
ATOM     22  C5  <0> d          -4.850   0.698  -3.952  0.00  0.00     0.138 A 
ATOM     23  N3  <0> d          -4.053   0.434  -2.929  0.00  0.00    -0.074 NA
ENDBRANCH  16  18
ENDBRANCH   3  16
TORSDOF 5
