REMARK  3 active torsions:
REMARK  status: ('A' for Active; 'I' for Inactive)
REMARK    1  A    between atoms: C2_3  and  C15_21 
REMARK    2  A    between atoms: C3_4  and  C5_7 
REMARK       I    between atoms: C5_7  and  N3_9 
REMARK    3  A    between atoms: N3_9  and  C6_10 
ROOT
ATOM      1  C5  <0> d           0.038  -3.294  -1.522  0.00  0.00     0.259 C 
ATOM      2  O1  <0> d           0.021  -3.176  -2.732  0.00  0.00    -0.267 OA
ATOM      3  N3  <0> d           0.061  -4.521  -0.964  0.00  0.00    -0.323 N 
ATOM      4  H5  <0> d           0.142  -4.615  -0.002  0.00  0.00     0.169 HD
ENDROOT
BRANCH   3   5
ATOM      5  C6  <0> d          -0.033  -5.660  -1.774  0.00  0.00     0.035 A 
ATOM      6  C11 <0> d          -0.709  -6.776  -1.317  0.00  0.00     0.043 A 
ATOM      7  C10 <0> d          -0.804  -7.907  -2.134  0.00  0.00     0.000 A 
ATOM      8  C9  <0> d          -0.204  -7.908  -3.405  0.00  0.00     0.089 A 
ATOM      9  C12 <0> d          -1.518  -9.105  -1.683  0.00  0.00     0.020 A 
ATOM     10  C8  <0> d           0.476  -6.779  -3.844  0.00  0.00     0.040 A 
ATOM     11  O3  <0> d          -0.294  -9.005  -4.189  0.00  0.00    -0.275 OA
ATOM     12  C7  <0> d           0.560  -5.666  -3.035  0.00  0.00     0.032 A 
ATOM     13  C14 <0> d          -0.946 -10.105  -3.783  0.00  0.00     0.288 A 
ATOM     14  C13 <0> d          -1.571 -10.173  -2.519  0.00  0.00     0.083 A 
ATOM     15  O2  <0> d          -1.000 -11.070  -4.524  0.00  0.00    -0.260 OA
ENDBRANCH   3   5
BRANCH   1  16
ATOM     16  C3  <0> d           0.035  -2.095  -0.664  0.00  0.00     0.081 A 
ATOM     17  C2  <0> d           0.013  -0.782  -1.091  0.00  0.00     0.111 A 
ATOM     18  N1  <0> d           0.017  -0.004   0.003  0.00  0.00    -0.272 N 
ATOM     19  C1  <0> d          -0.000   1.461   0.011  0.00  0.00     0.180 C 
ATOM     20  N2  <0> d           0.047  -0.828   1.133  0.00  0.00    -0.184 NA
ATOM     21  C4  <0> d           0.052  -2.074   0.748  0.00  0.00     0.158 A 
BRANCH  17  22
ATOM     22  C15 <0> d          -0.011  -0.310  -2.522  0.00  0.00     0.405 C 
ATOM     23  F1  <0> d           0.632   0.929  -2.615  0.00  0.00    -0.207 F 
ATOM     24  F2  <0> d           0.649  -1.240  -3.332  0.00  0.00    -0.207 F 
ENDBRANCH  17  22
ENDBRANCH   1  16
TORSDOF 3
