REMARK  2 active torsions:
REMARK  status: ('A' for Active; 'I' for Inactive)
REMARK    1  A    between atoms: C6_6  and  N1_7 
REMARK       I    between atoms: N1_7  and  C7_8 
REMARK    2  A    between atoms: C7_8  and  C8_10 
ROOT
ATOM      1  C1  <0> d          -0.013   1.374   0.194  0.00  0.00     0.032 A 
ATOM      2  C2  <0> d           1.172   2.083   0.192  0.00  0.00     0.032 A 
ATOM      3  C3  <0> d           2.377   1.420   0.003  0.00  0.00     0.041 A 
ATOM      4  C4  <0> d           2.391   0.043  -0.184  0.00  0.00    -0.029 A 
ATOM      5  C5  <0> d           1.207  -0.665  -0.182  0.00  0.00     0.039 A 
ATOM      6  C6  <0> d           0.001  -0.002   0.007  0.00  0.00     0.035 A 
ATOM      7  C11 <0> d           3.700  -0.673  -0.387  0.00  0.00     0.050 C 
ATOM      8  C12 <0> d           4.662   0.231  -1.159  0.00  0.00     0.108 C 
ATOM      9  C13 <0> d           4.692   1.600  -0.536  0.00  0.00     0.222 C 
ATOM     10  O2  <0> d           5.729   2.228  -0.516  0.00  0.00    -0.273 OA
ATOM     11  N3  <0> d           3.580   2.136   0.001  0.00  0.00    -0.327 N 
ATOM     12  H11 <0> d           3.613   3.025   0.388  0.00  0.00     0.169 HD
ENDROOT
BRANCH   6  13
ATOM     13  N1  <0> d          -1.201  -0.721   0.009  0.00  0.00    -0.322 N 
ATOM     14  C7  <0> d          -2.326  -0.154  -0.471  0.00  0.00     0.275 C 
ATOM     15  O1  <0> d          -2.279   0.944  -0.993  0.00  0.00    -0.266 OA
ATOM     16  H4  <0> d          -1.224  -1.626   0.356  0.00  0.00     0.169 HD
BRANCH  14  17
ATOM     17  C8  <0> d          -3.611  -0.864  -0.363  0.00  0.00     0.131 A 
ATOM     18  N2  <0> d          -3.708  -2.071   0.203  0.00  0.00    -0.248 NA
ATOM     19  C10 <0> d          -4.884  -2.634   0.266  0.00  0.00     0.166 A 
ATOM     20  S1  <0> d          -5.902  -1.519  -0.468  0.00  0.00    -0.092 SA
ATOM     21  C9  <0> d          -4.777  -0.328  -0.841  0.00  0.00     0.088 A 
ENDBRANCH  14  17
ENDBRANCH   6  13
TORSDOF 2
