REMARK  6 active torsions:
REMARK  status: ('A' for Active; 'I' for Inactive)
REMARK    1  A    between atoms: C2_2  and  C3_3 
REMARK    2  A    between atoms: C3_3  and  N1_5 
REMARK       I    between atoms: N1_5  and  C5_6 
REMARK    3  A    between atoms: C5_6  and  C6_8 
REMARK       I    between atoms: N3_15  and  C13_18 
REMARK       I    between atoms: C13_18  and  N4_20 
REMARK    4  A    between atoms: N4_20  and  C14_21 
REMARK    5  A    between atoms: C15_22  and  C23_30 
REMARK    6  A    between atoms: C19_26  and  C20_27 
ROOT
ATOM      1  C6  <0> d           0.537  -0.113  -4.561  0.00  0.00     0.322 C 
ATOM      2  C7  <0> d          -0.914   0.382  -4.832  0.00  0.00     0.122 C 
ATOM      3  S1  <0> d          -1.002  -0.001  -6.639  0.00  0.00    -0.125 SA
ATOM      4  C8  <0> d           0.782   0.246  -7.011  0.00  0.00     0.209 C 
ATOM      5  N2  <0> d           1.418   0.221  -5.685  0.00  0.00     0.117 N 
ATOM      6  C9  <0> d           1.283  -0.894  -7.885  0.00  0.00     0.073 C 
ATOM      7  C10 <0> d           2.775  -0.696  -8.178  0.00  0.00     0.131 C 
ATOM      8  N3  <0> d           2.972   0.651  -8.732  0.00  0.00    -0.334 N 
ATOM      9  C11 <0> d           2.469   1.808  -7.979  0.00  0.00     0.131 C 
ATOM     10  C12 <0> d           0.979   1.595  -7.688  0.00  0.00     0.073 C 
ATOM     11  C13 <0> d           3.601   0.821  -9.912  0.00  0.00     0.322 C 
ATOM     12  O2  <0> d           4.096  -0.133 -10.480  0.00  0.00    -0.247 OA
ATOM     13  N4  <0> d           3.683   2.050 -10.461  0.00  0.00    -0.308 N 
ATOM     14  H14 <0> d           1.921   1.078  -5.508  0.00  0.00     0.319 HD
ATOM     15  H23 <0> d           3.356   2.821  -9.973  0.00  0.00     0.170 HD
ENDROOT
BRANCH  13  16
ATOM     16  C14 <0> d           4.239   2.211 -11.735  0.00  0.00     0.049 A 
ATOM     17  C19 <0> d           3.567   1.735 -12.853  0.00  0.00    -0.027 A 
ATOM     18  C18 <0> d           4.116   1.900 -14.109  0.00  0.00     0.010 A 
ATOM     19  C17 <0> d           5.339   2.530 -14.253  0.00  0.00     0.001 A 
ATOM     20  C16 <0> d           6.013   3.000 -13.141  0.00  0.00     0.010 A 
ATOM     21  C15 <0> d           5.467   2.843 -11.883  0.00  0.00    -0.027 A 
BRANCH  17  22
ATOM     22  C20 <0> d           2.238   1.043 -12.696  0.00  0.00     0.013 C 
ATOM     23  C21 <0> d           1.182   1.771 -13.531  0.00  0.00     0.015 C 
ATOM     24  C22 <0> d           2.357  -0.406 -13.174  0.00  0.00     0.015 C 
ENDBRANCH  17  22
BRANCH  21  25
ATOM     25  C23 <0> d           6.202   3.357 -10.672  0.00  0.00     0.013 C 
ATOM     26  C24 <0> d           7.510   2.582 -10.502  0.00  0.00     0.015 C 
ATOM     27  C25 <0> d           6.510   4.844 -10.855  0.00  0.00     0.015 C 
ENDBRANCH  21  25
ENDBRANCH  13  16
BRANCH   1  28
ATOM     28  C5  <0> d           1.060   0.543  -3.309  0.00  0.00     0.252 C 
ATOM     29  N1  <0> d           0.425   0.355  -2.135  0.00  0.00    -0.355 N 
ATOM     30  H11 <0> d          -0.368  -0.202  -2.096  0.00  0.00     0.162 HD
ATOM     31  O1  <0> d           2.052   1.239  -3.358  0.00  0.00    -0.271 OA
BRANCH  29  32
ATOM     32  C3  <0> d           0.933   0.993  -0.918  0.00  0.00     0.080 C 
ATOM     33  C4  <0> d           2.025   0.116  -0.300  0.00  0.00     0.032 C 
BRANCH  32  34
ATOM     34  C2  <0> d          -0.210   1.164   0.084  0.00  0.00     0.020 C 
ATOM     35  C1  <0> d          -1.243   2.140  -0.484  0.00  0.00     0.007 C 
ENDBRANCH  32  34
ENDBRANCH  29  32
ENDBRANCH   1  28
TORSDOF 6
