REMARK  7 active torsions:
REMARK  status: ('A' for Active; 'I' for Inactive)
REMARK    1  A    between atoms: C8_9  and  C9_11 
REMARK    2  A    between atoms: C9_11  and  N3_13 
REMARK       I    between atoms: N3_13  and  C11_14 
REMARK    3  A    between atoms: C11_14  and  C12_16 
REMARK       I    between atoms: N4_18  and  C20_26 
REMARK    4  A    between atoms: C20_26  and  C21_28 
REMARK    5  A    between atoms: C21_28  and  C22_29 
REMARK    6  A    between atoms: C22_29  and  C23_30 
REMARK    7  A    between atoms: C23_30  and  C24_31 
ROOT
ATOM      1  C12 <0> d          -1.623  -8.782   1.003  0.00  0.00     0.106 C 
ATOM      2  C13 <0> d          -0.558  -9.300   0.011  0.00  0.00     0.140 C 
ATOM      3  N4  <0> d          -0.007 -10.516   0.656  0.00  0.00    -0.351 N 
ATOM      4  C14 <0> d          -1.187 -11.177   1.265  0.00  0.00     0.136 C 
ATOM      5  C15 <0> d          -2.036 -10.017   1.821  0.00  0.00    -0.007 C 
ATOM      6  C16 <0> d          -3.521 -10.308   1.626  0.00  0.00     0.039 C 
ATOM      7  C17 <0> d          -3.920 -11.504   2.495  0.00  0.00     0.233 C 
ATOM      8  N5  <0> d          -3.642 -11.203   3.904  0.00  0.00    -0.075 N 
ATOM      9  C18 <0> d          -2.199 -11.015   4.100  0.00  0.00     0.233 C 
ATOM     10  C19 <0> d          -1.727  -9.798   3.299  0.00  0.00     0.039 C 
ATOM     11  C20 <0> d           1.276 -10.928   0.682  0.00  0.00     0.219 C 
ATOM     12  O2  <0> d           1.571 -11.955   1.255  0.00  0.00    -0.273 OA
ATOM     13  H21 <0> d          -4.128 -10.359   4.168  0.00  0.00     0.277 HD
ATOM     14  H37 <0> d          -3.962 -11.967   4.480  0.00  0.00     0.277 HD
ENDROOT
BRANCH   1  15
ATOM     15  C11 <0> d          -1.032  -7.728   1.904  0.00  0.00     0.224 C 
ATOM     16  N3  <0> d          -1.820  -6.765   2.421  0.00  0.00    -0.349 N 
ATOM     17  H12 <0> d          -2.768  -6.749   2.213  0.00  0.00     0.163 HD
ATOM     18  O1  <0> d           0.152  -7.748   2.164  0.00  0.00    -0.273 OA
BRANCH  16  19
ATOM     19  C9  <0> d          -1.246  -5.741   3.298  0.00  0.00     0.150 C 
ATOM     20  C10 <0> d          -0.668  -4.608   2.447  0.00  0.00     0.040 C 
BRANCH  19  21
ATOM     21  C8  <0> d          -2.320  -5.193   4.202  0.00  0.00     0.127 A 
ATOM     22  N1  <0> d          -2.100  -4.621   5.416  0.00  0.00    -0.341 N 
ATOM     23  C6  <0> d          -3.329  -4.251   5.925  0.00  0.00     0.063 A 
ATOM     24  H38 <0> d          -1.239  -4.496   5.845  0.00  0.00     0.167 HD
ATOM     25  C5  <0> d          -4.277  -4.629   4.960  0.00  0.00     0.085 A 
ATOM     26  C7  <0> d          -3.744  -3.632   7.096  0.00  0.00     0.038 A 
ATOM     27  C4  <0> d          -5.633  -4.380   5.194  0.00  0.00     0.034 A 
ATOM     28  N2  <0> d          -3.593  -5.198   3.934  0.00  0.00    -0.231 NA
ATOM     29  C3  <0> d          -6.023  -3.775   6.354  0.00  0.00     0.009 A 
ATOM     30  C2  <0> d          -5.086  -3.401   7.308  0.00  0.00    -0.060 A 
ATOM     31  C1  <0> d          -5.539  -2.734   8.581  0.00  0.00     0.048 C 
ENDBRANCH  19  21
ENDBRANCH  16  19
ENDBRANCH   1  15
BRANCH  11  32
ATOM     32  C21 <0> d           2.343 -10.113  -0.002  0.00  0.00     0.103 C 
BRANCH  32  33
ATOM     33  C22 <0> d           3.700 -10.797   0.176  0.00  0.00     0.014 C 
BRANCH  33  34
ATOM     34  C23 <0> d           4.783  -9.970  -0.518  0.00  0.00     0.039 C 
BRANCH  34  35
ATOM     35  C24 <0> d           6.120 -10.644  -0.342  0.00  0.00    -0.058 A 
ATOM     36  C29 <0> d           6.555 -11.569  -1.273  0.00  0.00     0.007 A 
ATOM     37  C28 <0> d           7.783 -12.184  -1.114  0.00  0.00     0.001 A 
ATOM     38  C27 <0> d           8.571 -11.880  -0.020  0.00  0.00     0.000 A 
ATOM     39  C26 <0> d           8.134 -10.959   0.914  0.00  0.00     0.001 A 
ATOM     40  C25 <0> d           6.908 -10.341   0.752  0.00  0.00     0.007 A 
ENDBRANCH  34  35
ENDBRANCH  33  34
ENDBRANCH  32  33
ENDBRANCH  11  32
TORSDOF 7
