REMARK  3 active torsions:
REMARK  status: ('A' for Active; 'I' for Inactive)
REMARK    1  A    between atoms: C2_2  and  C3_3 
REMARK    2  A    between atoms: C2_2  and  N3_13 
REMARK    3  A    between atoms: N3_13  and  C10_14 
ROOT
ATOM      1  C3  <0> d          -1.412  -0.526   0.013  0.00  0.00    -0.034 A 
ATOM      2  C4  <0> d          -2.142  -0.564   1.274  0.00  0.00     0.011 A 
ATOM      3  C5  <0> d          -3.411  -1.019   1.353  0.00  0.00     0.032 A 
ATOM      4  C6  <0> d          -4.085  -1.490   0.145  0.00  0.00     0.063 A 
ATOM      5  N1  <0> d          -5.270  -1.978  -0.121  0.00  0.00    -0.307 N 
ATOM      6  C7  <0> d          -5.336  -2.250  -1.467  0.00  0.00     0.325 A 
ATOM      7  O1  <0> d          -6.300  -2.712  -2.039  0.00  0.00    -0.247 OA
ATOM      8  N2  <0> d          -4.144  -1.919  -2.067  0.00  0.00    -0.306 N 
ATOM      9  C8  <0> d          -3.335  -1.451  -1.151  0.00  0.00     0.063 A 
ATOM     10  C9  <0> d          -1.966  -0.939  -1.148  0.00  0.00     0.041 A 
ATOM     11  H12 <0> d          -5.981  -2.123   0.523  0.00  0.00     0.170 HD
ATOM     12  H13 <0> d          -3.938  -2.016  -3.010  0.00  0.00     0.170 HD
ENDROOT
BRANCH   1  13
ATOM     13  C2  <0> d           0.002  -0.004   0.002  0.00  0.00     0.111 C 
ATOM     14  C1  <0> d          -0.019   1.526   0.010  0.00  0.00     0.037 C 
BRANCH  13  15
ATOM     15  N3  <0> d           0.711  -0.489   1.189  0.00  0.00    -0.382 N 
ATOM     16  H8  <0> d           0.213  -0.731   1.986  0.00  0.00     0.160 HD
BRANCH  15  17
ATOM     17  C10 <0> d           2.103  -0.604   1.173  0.00  0.00     0.031 A 
ATOM     18  C15 <0> d           2.776  -1.064   2.298  0.00  0.00     0.053 A 
ATOM     19  C14 <0> d           4.153  -1.181   2.277  0.00  0.00     0.037 A 
ATOM     20  C13 <0> d           4.862  -0.830   1.142  0.00  0.00     0.048 A 
ATOM     21 Cl1  <0> d           4.994  -1.763   3.680  0.00  0.00    -0.084 Cl
ATOM     22  C12 <0> d           4.194  -0.366   0.022  0.00  0.00     0.037 A 
ATOM     23  C11 <0> d           2.817  -0.252   0.035  0.00  0.00     0.053 A 
ATOM     24 Cl2  <0> d           5.088   0.072  -1.400  0.00  0.00    -0.084 Cl
ENDBRANCH  15  17
ENDBRANCH  13  15
ENDBRANCH   1  13
TORSDOF 3
