REMARK  3 active torsions:
REMARK  status: ('A' for Active; 'I' for Inactive)
REMARK    1  A    between atoms: C4_4  and  C7_7 
REMARK    2  A    between atoms: C7_7  and  O1_21 
REMARK    3  A    between atoms: N1_10  and  C11_12 
ROOT
ATOM      1  C7  <0> d           3.711  -0.707  -0.038  0.00  0.00     0.102 C 
ATOM      2  C8  <0> d           4.025  -1.252  -1.456  0.00  0.00     0.064 C 
ATOM      3  C9  <0> d           4.932  -2.466  -1.167  0.00  0.00     0.127 C 
ATOM      4  N1  <0> d           4.668  -2.890   0.216  0.00  0.00    -0.364 N 
ATOM      5  C10 <0> d           3.626  -2.016   0.786  0.00  0.00     0.167 C 
ENDROOT
BRANCH   4   6
ATOM      6  C11 <0> d           5.276  -3.909   0.855  0.00  0.00     0.136 C 
ATOM      7  C15 <0> d           6.330  -4.740   0.175  0.00  0.00     0.249 C 
ATOM      8  C13 <0> d           7.252  -5.227   1.296  0.00  0.00     0.160 C 
ATOM      9  N5  <0> d           7.247  -3.973  -0.669  0.00  0.00    -0.262 NA
ATOM     10  N3  <0> d           6.749  -5.677   2.441  0.00  0.00    -0.224 NA
ATOM     11  N4  <0> d           8.455  -5.026   0.848  0.00  0.00    -0.224 NA
ATOM     12  C12 <0> d           5.576  -5.170   2.801  0.00  0.00     0.237 C 
ATOM     13  N2  <0> d           4.966  -4.219   2.101  0.00  0.00    -0.226 NA
ATOM     14  C14 <0> d           8.447  -4.226  -0.226  0.00  0.00     0.230 C 
ENDBRANCH   4   6
BRANCH   1  15
ATOM     15  C4  <0> d           2.396   0.029  -0.020  0.00  0.00    -0.022 A 
ATOM     16  C3  <0> d           2.329   1.312   0.489  0.00  0.00     0.010 A 
ATOM     17  C2  <0> d           1.123   1.987   0.505  0.00  0.00     0.001 A 
ATOM     18  C1  <0> d          -0.016   1.379   0.010  0.00  0.00     0.000 A 
ATOM     19  C6  <0> d           0.051   0.096  -0.500  0.00  0.00     0.001 A 
ATOM     20  C5  <0> d           1.257  -0.580  -0.514  0.00  0.00     0.010 A 
ENDBRANCH   1  15
BRANCH   1  21
ATOM     21  O1  <0> d           4.769   0.129   0.437  0.00  0.00    -0.383 OA
ATOM     22  H15 <0> d           4.892   0.938  -0.079  0.00  0.00     0.211 HD
ENDBRANCH   1  21
TORSDOF 3
