REMARK  7 active torsions:
REMARK  status: ('A' for Active; 'I' for Inactive)
REMARK    1  A    between atoms: C2_2  and  N1_3 
REMARK    2  A    between atoms: N2_6  and  C7_9 
REMARK    3  A    between atoms: C7_9  and  C8_10 
REMARK    4  A    between atoms: C8_10  and  N3_11 
REMARK    5  A    between atoms: N3_11  and  C9_12 
REMARK    6  A    between atoms: C9_12  and  C10_13 
REMARK    7  A    between atoms: C12_16  and  C13_18 
ROOT
ATOM      1  N3  <0> d           4.242  -4.541  -4.805  0.00  0.00    -0.069 N 
ATOM      2  H18 <0> d           3.749  -4.269  -5.643  0.00  0.00     0.277 HD
ATOM      3  H28 <0> d           5.172  -4.151  -4.821  0.00  0.00     0.277 HD
ENDROOT
BRANCH   1   4
ATOM      4  C8  <0> d           3.520  -4.038  -3.629  0.00  0.00     0.262 C 
BRANCH   4   5
ATOM      5  C7  <0> d           3.433  -2.512  -3.697  0.00  0.00     0.300 C 
BRANCH   5   6
ATOM      6  N2  <0> d           2.711  -2.009  -2.521  0.00  0.00     0.093 N 
ATOM      7  C4  <0> d           2.812  -0.546  -2.427  0.00  0.00     0.300 C 
ATOM      8  C3  <0> d           2.100  -0.069  -1.160  0.00  0.00     0.265 C 
ATOM      9  N1  <0> d           0.690  -0.478  -1.207  0.00  0.00    -0.068 N 
ATOM     10  C6  <0> d           0.605  -1.943  -1.275  0.00  0.00     0.265 C 
ATOM     11  H27 <0> d           0.251  -0.077  -2.022  0.00  0.00     0.280 HD
ATOM     12  C5  <0> d           1.305  -2.435  -2.544  0.00  0.00     0.300 C 
BRANCH   9  13
ATOM     13  C2  <0> d           0.002  -0.004   0.002  0.00  0.00     0.230 C 
ATOM     14  C1  <0> d          -0.019   1.526   0.010  0.00  0.00     0.034 C 
ENDBRANCH   9  13
ENDBRANCH   5   6
ENDBRANCH   4   5
ENDBRANCH   1   4
BRANCH   1  15
ATOM     15  C9  <0> d           4.325  -6.006  -4.739  0.00  0.00     0.279 C 
BRANCH  15  16
ATOM     16  C10 <0> d           5.065  -6.522  -5.946  0.00  0.00     0.028 A 
ATOM     17  S1  <0> d           4.438  -7.012  -7.548  0.00  0.00    -0.071 SA
ATOM     18  C12 <0> d           6.011  -7.456  -8.271  0.00  0.00     0.107 A 
ATOM     19  N4  <0> d           6.837  -7.207  -7.265  0.00  0.00    -0.252 NA
ATOM     20  C11 <0> d           6.394  -6.750  -6.117  0.00  0.00     0.134 A 
BRANCH  18  21
ATOM     21  C13 <0> d           6.310  -7.969  -9.626  0.00  0.00    -0.000 A 
ATOM     22  C18 <0> d           7.625  -8.262  -9.990  0.00  0.00     0.014 A 
ATOM     23  C17 <0> d           7.896  -8.746 -11.253  0.00  0.00     0.001 A 
ATOM     24  C16 <0> d           6.869  -8.928 -12.162  0.00  0.00     0.000 A 
ATOM     25  C15 <0> d           5.564  -8.634 -11.810  0.00  0.00     0.001 A 
ATOM     26  C14 <0> d           5.279  -8.155 -10.548  0.00  0.00     0.014 A 
ENDBRANCH  18  21
ENDBRANCH  15  16
ENDBRANCH   1  15
TORSDOF 7
