REMARK  8 active torsions:
REMARK  status: ('A' for Active; 'I' for Inactive)
REMARK    1  A    between atoms: C2_2  and  C3_3 
REMARK    2  A    between atoms: C3_3  and  N1_4 
REMARK    3  A    between atoms: N1_4  and  C4_5 
REMARK    4  A    between atoms: N1_4  and  S1_8 
REMARK    5  A    between atoms: C4_5  and  C5_6 
REMARK    6  A    between atoms: C5_6  and  O1_7 
REMARK    7  A    between atoms: S1_8  and  C6_11 
REMARK    8  A    between atoms: C9_14  and  N3_19 
ROOT
ATOM      1  C6  <0> d           0.024  -2.245  -2.446  0.00  0.00     0.100 A 
ATOM      2  C7  <0> d           0.990  -3.200  -2.694  0.00  0.00     0.029 A 
ATOM      3  C8  <0> d           2.159  -2.854  -3.345  0.00  0.00     0.030 A 
ATOM      4  C9  <0> d           2.371  -1.543  -3.755  0.00  0.00     0.027 A 
ATOM      5  C10 <0> d           1.407  -0.576  -3.512  0.00  0.00     0.053 A 
ATOM      6  C11 <0> d           0.224  -0.927  -2.860  0.00  0.00     0.070 A 
ATOM      7  C12 <0> d          -0.779   0.064  -2.610  0.00  0.00     0.101 C 
ATOM      8  N2  <0> d          -1.575   0.850  -2.411  0.00  0.00    -0.191 NA
ENDROOT
BRANCH   1   9
ATOM      9  S1  <0> d          -1.464  -2.693  -1.616  0.00  0.00     0.262 S 
ATOM     10  O2  <0> d          -1.401  -4.095  -1.397  0.00  0.00    -0.200 OA
ATOM     11  O3  <0> d          -2.528  -2.080  -2.331  0.00  0.00    -0.200 OA
BRANCH   9  12
ATOM     12  N1  <0> d          -1.424  -1.978  -0.122  0.00  0.00    -0.305 N 
BRANCH  12  13
ATOM     13  C3  <0> d          -1.869  -0.592   0.039  0.00  0.00     0.135 C 
BRANCH  13  14
ATOM     14  C2  <0> d          -0.654   0.309   0.274  0.00  0.00     0.016 C 
ATOM     15  C1  <0> d          -1.118   1.758   0.436  0.00  0.00     0.006 C 
ENDBRANCH  13  14
ENDBRANCH  12  13
BRANCH  12  16
ATOM     16  C4  <0> d          -0.945  -2.733   1.038  0.00  0.00     0.161 C 
BRANCH  16  17
ATOM     17  C5  <0> d          -2.137  -3.354   1.770  0.00  0.00     0.184 C 
BRANCH  17  18
ATOM     18  O1  <0> d          -2.765  -4.320   0.924  0.00  0.00    -0.399 OA
ATOM     19  H12 <0> d          -3.530  -4.755   1.325  0.00  0.00     0.209 HD
ENDBRANCH  17  18
ENDBRANCH  16  17
ENDBRANCH  12  16
ENDBRANCH   9  12
ENDBRANCH   1   9
BRANCH   4  20
ATOM     20  N3  <0> d           3.555  -1.198  -4.412  0.00  0.00    -0.399 N 
ATOM     21  H16 <0> d           4.229  -1.875  -4.582  0.00  0.00     0.156 HD
ATOM     22  H17 <0> d           3.702  -0.283  -4.698  0.00  0.00     0.156 HD
ENDBRANCH   4  20
TORSDOF 8
