REMARK  4 active torsions:
REMARK  status: ('A' for Active; 'I' for Inactive)
REMARK    1  A    between atoms: C5_5  and  C6_7 
REMARK    2  A    between atoms: C8_9  and  N3_28 
REMARK    3  A    between atoms: N1_10  and  C15_18 
REMARK    4  A    between atoms: C20_23  and  N2_24 
ROOT
ATOM      1  C6  <0> d           2.498   3.360  -0.004  0.00  0.00     0.112 C 
ATOM      2  C7  <0> d           2.176   4.117   1.251  0.00  0.00     0.080 C 
ATOM      3  C8  <0> d           1.309   5.162   1.236  0.00  0.00     0.124 C 
ATOM      4  N1  <0> d           0.713   5.549   0.057  0.00  0.00    -0.298 N 
ATOM      5  C9  <0> d           1.254   5.185  -1.148  0.00  0.00     0.030 C 
ATOM      6  C10 <0> d           2.119   4.152  -1.230  0.00  0.00     0.025 C 
ATOM      7  C11 <0> d           2.692   3.783  -2.459  0.00  0.00     0.158 C 
ATOM      8  O1  <0> d           3.459   2.841  -2.501  0.00  0.00    -0.293 OA
ATOM      9  C12 <0> d           2.375   4.532  -3.724  0.00  0.00     0.084 C 
ATOM     10  C13 <0> d           2.025   5.981  -3.371  0.00  0.00     0.014 C 
ATOM     11  C14 <0> d           0.862   5.970  -2.376  0.00  0.00     0.059 C 
ATOM     12  C21 <0> d           2.793   3.730   2.484  0.00  0.00     0.100 C 
ATOM     13  N4  <0> d           3.283   3.424   3.462  0.00  0.00    -0.191 NA
ENDROOT
BRANCH   1  14
ATOM     14  C5  <0> d           1.742   2.057  -0.004  0.00  0.00    -0.003 A 
ATOM     15  C4  <0> d           2.223   0.790  -0.015  0.00  0.00     0.016 A 
ATOM     16  C3  <0> d           1.332  -0.266  -0.012  0.00  0.00     0.015 A 
ATOM     17  C2  <0> d           0.002  -0.004   0.002  0.00  0.00    -0.021 A 
ATOM     18  C1  <0> d          -1.155  -0.969   0.008  0.00  0.00     0.056 C 
ATOM     19  S1  <0> d          -0.022   1.781   0.012  0.00  0.00    -0.099 SA
ENDBRANCH   1  14
BRANCH   3  20
ATOM     20  N3  <0> d           1.025   5.834   2.401  0.00  0.00    -0.384 N 
ATOM     21  H16 <0> d           0.405   6.580   2.392  0.00  0.00     0.157 HD
ATOM     22  H17 <0> d           1.444   5.561   3.233  0.00  0.00     0.157 HD
ENDBRANCH   3  20
BRANCH   4  23
ATOM     23  C15 <0> d          -0.454   6.322   0.090  0.00  0.00     0.074 A 
ATOM     24  C20 <0> d          -0.371   7.708   0.101  0.00  0.00     0.131 A 
ATOM     25  C19 <0> d          -1.524   8.467   0.133  0.00  0.00     0.062 A 
ATOM     26  C18 <0> d          -2.761   7.848   0.154  0.00  0.00     0.036 A 
ATOM     27  C17 <0> d          -2.847   6.467   0.142  0.00  0.00     0.026 A 
ATOM     28 Cl1  <0> d          -4.208   8.806   0.193  0.00  0.00    -0.084 Cl
ATOM     29  C16 <0> d          -1.697   5.703   0.105  0.00  0.00     0.034 A 
BRANCH  24  30
ATOM     30  N2  <0> d           0.953   8.370   0.079  0.00  0.00    -0.113 N 
ATOM     31  O2  <0> d           1.025   9.586   0.088  0.00  0.00    -0.532 OA
ATOM     32  O3  <0> d           1.969   7.700   0.051  0.00  0.00    -0.532 OA
ENDBRANCH  24  30
ENDBRANCH   4  23
TORSDOF 4
