REMARK  7 active torsions:
REMARK  status: ('A' for Active; 'I' for Inactive)
REMARK    1  A    between atoms: C2_2  and  N1_3 
REMARK    2  A    between atoms: N1_3  and  C3_4 
REMARK    3  A    between atoms: N1_3  and  C5_6 
REMARK    4  A    between atoms: C5_6  and  C7_8 
REMARK    5  A    between atoms: C7_8  and  N2_9 
REMARK       I    between atoms: N2_9  and  C8_10 
REMARK    6  A    between atoms: C8_10  and  C9_12 
REMARK       I    between atoms: C9_12  and  N3_14 
REMARK    7  A    between atoms: N3_14  and  C10_15 
ROOT
ATOM      1  N2  <0> d          -3.401  -2.048  -1.091  0.00  0.00    -0.351 N 
ATOM      2  C8  <0> d          -4.699  -2.137  -1.447  0.00  0.00     0.309 C 
ATOM      3  O1  <0> d          -5.497  -2.667  -0.703  0.00  0.00    -0.262 OA
ATOM      4  H17 <0> d          -2.777  -1.561  -1.651  0.00  0.00     0.162 HD
ENDROOT
BRANCH   2   5
ATOM      5  C9  <0> d          -5.153  -1.582  -2.757  0.00  0.00     0.314 C 
ATOM      6  O2  <0> d          -4.342  -1.134  -3.541  0.00  0.00    -0.262 OA
ATOM      7  N3  <0> d          -6.464  -1.579  -3.068  0.00  0.00    -0.318 N 
ATOM      8  H18 <0> d          -7.119  -1.875  -2.417  0.00  0.00     0.169 HD
BRANCH   7   9
ATOM      9  C10 <0> d          -6.881  -1.148  -4.331  0.00  0.00     0.052 A 
ATOM     10  C15 <0> d          -8.100  -0.497  -4.478  0.00  0.00     0.037 A 
ATOM     11  C14 <0> d          -8.506  -0.067  -5.727  0.00  0.00     0.021 A 
ATOM     12 Br1  <0> d          -9.198  -0.191  -2.969  0.00  0.00    -0.049 Br
ATOM     13  C13 <0> d          -7.707  -0.296  -6.832  0.00  0.00     0.002 A 
ATOM     14  C12 <0> d          -6.496  -0.950  -6.690  0.00  0.00     0.002 A 
ATOM     15  C11 <0> d          -6.081  -1.376  -5.444  0.00  0.00     0.031 A 
ENDBRANCH   7   9
ENDBRANCH   2   5
BRANCH   1  16
ATOM     16  C7  <0> d          -2.935  -2.688   0.141  0.00  0.00     0.155 C 
BRANCH  16  17
ATOM     17  C5  <0> d          -1.466  -2.330   0.377  0.00  0.00     0.201 C 
ATOM     18  C6  <0> d          -1.002  -2.927   1.707  0.00  0.00     0.042 C 
BRANCH  17  19
ATOM     19  N1  <0> d          -1.318  -0.869   0.418  0.00  0.00    -0.066 N 
ATOM     20  H23 <0> d          -1.677  -0.471  -0.437  0.00  0.00     0.280 HD
BRANCH  19  21
ATOM     21  C2  <0> d          -2.069  -0.333   1.561  0.00  0.00     0.231 C 
ATOM     22  C1  <0> d          -2.018   1.196   1.532  0.00  0.00     0.034 C 
ENDBRANCH  19  21
BRANCH  19  23
ATOM     23  C3  <0> d           0.103  -0.525   0.560  0.00  0.00     0.231 C 
ATOM     24  C4  <0> d           0.867  -0.989  -0.681  0.00  0.00     0.034 C 
ENDBRANCH  19  23
ENDBRANCH  17  19
ENDBRANCH  16  17
ENDBRANCH   1  16
TORSDOF 7
