REMARK  7 active torsions:
REMARK  status: ('A' for Active; 'I' for Inactive)
REMARK    1  A    between atoms: C3_3  and  N1_4 
REMARK    2  A    between atoms: N1_4  and  C4_5 
REMARK       I    between atoms: N1_4  and  C9_11 
REMARK    3  A    between atoms: C4_5  and  C5_6 
REMARK    4  A    between atoms: C9_11  and  C10_13 
REMARK    5  A    between atoms: C10_13  and  C11_14 
REMARK    6  A    between atoms: C11_14  and  C12_15 
REMARK    7  A    between atoms: C12_15  and  N2_16 
ROOT
ATOM      1  N1  <0> d          -0.366  -0.694   1.240  0.00  0.00    -0.347 N 
ATOM      2  C9  <0> d           0.402  -0.562   2.340  0.00  0.00     0.220 C 
ATOM      3  O2  <0> d           1.348   0.198   2.331  0.00  0.00    -0.273 OA
ENDROOT
BRANCH   2   4
ATOM      4  C10 <0> d           0.086  -1.357   3.580  0.00  0.00     0.104 C 
BRANCH   4   5
ATOM      5  C11 <0> d           1.027  -0.934   4.711  0.00  0.00     0.029 C 
BRANCH   5   6
ATOM      6  C12 <0> d           0.706  -1.742   5.970  0.00  0.00     0.137 C 
BRANCH   6   7
ATOM      7  N2  <0> d           1.606  -1.337   7.052  0.00  0.00    -0.269 N 
ATOM      8  C15 <0> d           1.344  -0.353   7.920  0.00  0.00     0.325 A 
ATOM      9  N3  <0> d           2.331  -0.183   8.818  0.00  0.00    -0.334 N 
ATOM     10  O4  <0> d           0.325   0.310   7.902  0.00  0.00    -0.247 OA
ATOM     11  C14 <0> d           3.372  -1.172   8.492  0.00  0.00     0.227 A 
ATOM     12  H23 <0> d           2.354   0.467   9.538  0.00  0.00     0.164 HD
ATOM     13  C13 <0> d           2.804  -1.906   7.293  0.00  0.00     0.245 A 
ATOM     14  O3  <0> d           3.320  -2.814   6.678  0.00  0.00    -0.271 OA
ENDBRANCH   6   7
ENDBRANCH   5   6
ENDBRANCH   4   5
ENDBRANCH   2   4
BRANCH   1  15
ATOM     15  C3  <0> d           0.003  -0.004   0.002  0.00  0.00     0.087 A 
ATOM     16  C1  <0> d          -0.961   1.060  -0.527  0.00  0.00     0.027 A 
ATOM     17  C2  <0> d           0.371   1.478   0.101  0.00  0.00     0.027 A 
ENDBRANCH   1  15
BRANCH   1  18
ATOM     18  C4  <0> d          -1.569  -1.529   1.284  0.00  0.00     0.133 C 
BRANCH  18  19
ATOM     19  C5  <0> d          -1.210  -2.963   0.893  0.00  0.00     0.029 C 
ATOM     20  C8  <0> d          -0.773  -3.037  -0.586  0.00  0.00     0.173 C 
ATOM     21  O1  <0> d          -1.342  -4.227  -1.146  0.00  0.00    -0.391 OA
ATOM     22  C7  <0> d          -2.073  -4.942  -0.138  0.00  0.00     0.168 C 
ATOM     23  C6  <0> d          -2.468  -3.873   0.911  0.00  0.00     0.034 C 
ENDBRANCH  18  19
ENDBRANCH   1  18
TORSDOF 7
