REMARK  4 active torsions:
REMARK  status: ('A' for Active; 'I' for Inactive)
REMARK    1  A    between atoms: C2_2  and  C3_3 
REMARK    2  A    between atoms: N1_6  and  S1_9 
REMARK    3  A    between atoms: S1_9  and  C8_12 
REMARK    4  A    between atoms: C12_17  and  N3_18 
ROOT
ATOM      1  S1  <0> d          -4.273  -2.867   1.594  0.00  0.00     0.264 S 
ATOM      2  O1  <0> d          -3.723  -4.157   1.360  0.00  0.00    -0.200 OA
ATOM      3  O2  <0> d          -4.067  -2.162   2.811  0.00  0.00    -0.200 OA
ENDROOT
BRANCH   1   4
ATOM      4  N1  <0> d          -3.718  -1.888   0.380  0.00  0.00    -0.307 N 
ATOM      5  C5  <0> d          -3.505  -0.453   0.613  0.00  0.00     0.136 C 
ATOM      6  C4  <0> d          -2.073  -0.094   0.205  0.00  0.00     0.029 C 
ATOM      7  C3  <0> d          -1.832  -0.538  -1.240  0.00  0.00    -0.041 C 
ATOM      8  C7  <0> d          -1.998  -2.056  -1.343  0.00  0.00     0.029 C 
ATOM      9  C13 <0> d          -2.844   0.148  -2.159  0.00  0.00     0.015 C 
ATOM     10  C6  <0> d          -3.429  -2.438  -0.952  0.00  0.00     0.136 C 
BRANCH   7  11
ATOM     11  C2  <0> d          -0.414  -0.151  -1.662  0.00  0.00     0.005 C 
ATOM     12  C1  <0> d          -0.248   1.367  -1.560  0.00  0.00     0.006 C 
ENDBRANCH   7  11
ENDBRANCH   1   4
BRANCH   1  13
ATOM     13  C8  <0> d          -6.016  -3.018   1.387  0.00  0.00     0.124 A 
ATOM     14  C12 <0> d          -6.843  -1.912   1.550  0.00  0.00     0.144 A 
ATOM     15  N2  <0> d          -8.153  -2.020   1.389  0.00  0.00    -0.242 NA
ATOM     16  C11 <0> d          -8.719  -3.172   1.083  0.00  0.00     0.119 A 
ATOM     17  C10 <0> d          -7.959  -4.312   0.913  0.00  0.00     0.021 A 
ATOM     18  C9  <0> d          -6.581  -4.239   1.067  0.00  0.00     0.030 A 
BRANCH  14  19
ATOM     19  N3  <0> d          -6.290  -0.679   1.877  0.00  0.00    -0.383 N 
ATOM     20  H17 <0> d          -5.348  -0.615   2.103  0.00  0.00     0.157 HD
ATOM     21  H18 <0> d          -6.844   0.116   1.881  0.00  0.00     0.157 HD
ENDBRANCH  14  19
ENDBRANCH   1  13
TORSDOF 4
