REMARK  5 active torsions:
REMARK  status: ('A' for Active; 'I' for Inactive)
REMARK    1  A    between atoms: C2_2  and  C3_3 
REMARK    2  A    between atoms: C3_3  and  N1_4 
REMARK    3  A    between atoms: N1_4  and  C4_5 
REMARK       I    between atoms: N1_4  and  C8_12 
REMARK    4  A    between atoms: C8_12  and  C9_14 
REMARK    5  A    between atoms: C9_14  and  N2_15 
ROOT
ATOM      1  N2  <0> d          -1.436  -2.852  -3.586  0.00  0.00    -0.259 N 
ATOM      2  C10 <0> d          -0.320  -3.329  -4.170  0.00  0.00     0.256 A 
ATOM      3  O4  <0> d           0.827  -3.064  -3.881  0.00  0.00    -0.270 OA
ATOM      4  C11 <0> d          -0.796  -4.268  -5.266  0.00  0.00     0.116 A 
ATOM      5  C12 <0> d          -0.364  -5.701  -4.881  0.00  0.00     0.041 C 
ATOM      6  C13 <0> d          -1.267  -6.683  -5.574  0.00  0.00     0.003 C 
ATOM      7  C14 <0> d          -0.689  -7.177  -6.915  0.00  0.00     0.000 C 
ATOM      8  C15 <0> d          -0.043  -6.048  -7.740  0.00  0.00     0.000 C 
ATOM      9  C16 <0> d          -0.855  -4.781  -7.708  0.00  0.00     0.003 C 
ATOM     10  C17 <0> d          -0.308  -3.881  -6.584  0.00  0.00     0.041 C 
ATOM     11  N3  <0> d          -2.267  -4.195  -5.159  0.00  0.00    -0.324 N 
ATOM     12  C18 <0> d          -2.541  -3.352  -4.148  0.00  0.00     0.326 A 
ATOM     13  O5  <0> d          -3.668  -3.072  -3.788  0.00  0.00    -0.247 OA
ATOM     14  H29 <0> d          -2.912  -4.667  -5.709  0.00  0.00     0.165 HD
ENDROOT
BRANCH   1  15
ATOM     15  C9  <0> d          -1.438  -1.906  -2.467  0.00  0.00     0.239 C 
BRANCH  15  16
ATOM     16  C8  <0> d          -1.415  -2.666  -1.166  0.00  0.00     0.238 C 
ATOM     17  N1  <0> d          -1.413  -1.998   0.005  0.00  0.00    -0.345 N 
ATOM     18  O3  <0> d          -1.399  -3.879  -1.173  0.00  0.00    -0.272 OA
BRANCH  17  19
ATOM     19  C3  <0> d          -1.433  -0.534   0.013  0.00  0.00     0.126 C 
BRANCH  19  20
ATOM     20  C2  <0> d           0.002  -0.004   0.002  0.00  0.00     0.015 C 
ATOM     21  C1  <0> d          -0.019   1.526   0.010  0.00  0.00     0.006 C 
ENDBRANCH  19  20
ENDBRANCH  17  19
BRANCH  17  22
ATOM     22  C4  <0> d          -1.391  -2.738   1.269  0.00  0.00     0.102 C 
ATOM     23  C7  <0> d          -2.647  -3.651   1.366  0.00  0.00     0.165 C 
ATOM     24  S1  <0> d          -2.091  -4.854   2.646  0.00  0.00     0.146 S 
ATOM     25  C6  <0> d          -0.270  -4.644   2.491  0.00  0.00     0.142 C 
ATOM     26  O1  <0> d          -2.502  -4.392   3.925  0.00  0.00    -0.228 OA
ATOM     27  O2  <0> d          -2.441  -6.167   2.230  0.00  0.00    -0.228 OA
ATOM     28  C5  <0> d          -0.143  -3.633   1.326  0.00  0.00     0.041 C 
ENDBRANCH  17  22
ENDBRANCH  15  16
ENDBRANCH   1  15
TORSDOF 5
