REMARK  4 active torsions:
REMARK  status: ('A' for Active; 'I' for Inactive)
REMARK    1  A    between atoms: C2_2  and  C3_3 
REMARK    2  A    between atoms: C3_3  and  C4_4 
REMARK    3  A    between atoms: C3_3  and  N4_16 
REMARK    4  A    between atoms: C5_6  and  C6_9 
ROOT
ATOM      1  C4  <0> d          -1.414  -2.036   0.129  0.00  0.00     0.186 A 
ATOM      2  N1  <0> d          -1.712  -2.732   1.228  0.00  0.00    -0.201 NA
ATOM      3  C5  <0> d          -1.596  -4.018   0.990  0.00  0.00     0.225 A 
ATOM      4  O1  <0> d          -1.215  -4.172  -0.290  0.00  0.00    -0.189 OA
ATOM      5  N2  <0> d          -1.108  -2.864  -0.830  0.00  0.00    -0.108 NA
ENDROOT
BRANCH   1   6
ATOM      6  C3  <0> d          -1.433  -0.534   0.013  0.00  0.00     0.256 C 
BRANCH   6   7
ATOM      7  C2  <0> d           0.002  -0.004   0.002  0.00  0.00     0.036 C 
ATOM      8  C1  <0> d          -0.019   1.526   0.010  0.00  0.00     0.007 C 
ENDBRANCH   6   7
BRANCH   6   9
ATOM      9  N4  <0> d          -2.107  -0.147  -1.234  0.00  0.00    -0.068 N 
ATOM     10  H10 <0> d          -1.610  -0.539  -2.020  0.00  0.00     0.275 HD
ATOM     11  H11 <0> d          -3.054  -0.496  -1.227  0.00  0.00     0.275 HD
ATOM     12  H12 <0> d          -2.120   0.859  -1.311  0.00  0.00     0.275 HD
ENDBRANCH   6   9
ENDBRANCH   1   6
BRANCH   3  13
ATOM     13  C6  <0> d          -1.842  -5.107   1.961  0.00  0.00     0.111 A 
ATOM     14  N3  <0> d          -2.216  -4.812   3.200  0.00  0.00    -0.255 NA
ATOM     15  C10 <0> d          -2.450  -5.751   4.093  0.00  0.00     0.136 A 
ATOM     16  C9  <0> d          -2.303  -7.091   3.771  0.00  0.00     0.028 A 
ATOM     17  C8  <0> d          -1.908  -7.443   2.488  0.00  0.00     0.023 A 
ATOM     18 Br1  <0> d          -2.636  -8.426   5.068  0.00  0.00    -0.050 Br
ATOM     19  C7  <0> d          -1.674  -6.435   1.568  0.00  0.00     0.037 A 
ENDBRANCH   3  13
TORSDOF 4
