REMARK  4 active torsions:
REMARK  status: ('A' for Active; 'I' for Inactive)
REMARK    1  A    between atoms: C3_3  and  S1_8 
REMARK    2  A    between atoms: C6_6  and  N1_7 
REMARK    3  A    between atoms: S1_8  and  N2_11 
REMARK    4  A    between atoms: N2_11  and  C7_12 
ROOT
ATOM      1  S1  <0> d           3.890   2.319  -0.024  0.00  0.00     0.284 S 
ATOM      2  O1  <0> d           4.872   1.461  -0.589  0.00  0.00    -0.198 OA
ATOM      3  O2  <0> d           3.595   3.599  -0.566  0.00  0.00    -0.198 OA
ENDROOT
BRANCH   1   4
ATOM      4  C3  <0> d           2.377   1.415  -0.013  0.00  0.00     0.081 A 
ATOM      5  C2  <0> d           1.171   2.090   0.002  0.00  0.00     0.027 A 
ATOM      6  C1  <0> d          -0.017   1.385   0.010  0.00  0.00     0.030 A 
ATOM      7  C6  <0> d           0.002  -0.004   0.002  0.00  0.00     0.025 A 
ATOM      8  C5  <0> d           1.216  -0.679  -0.014  0.00  0.00     0.030 A 
ATOM      9  C4  <0> d           2.400   0.032  -0.021  0.00  0.00     0.027 A 
BRANCH   7  10
ATOM     10  N1  <0> d          -1.197  -0.720   0.010  0.00  0.00    -0.399 N 
ATOM     11  H5  <0> d          -2.044  -0.248   0.021  0.00  0.00     0.156 HD
ATOM     12  H6  <0> d          -1.183  -1.690   0.005  0.00  0.00     0.156 HD
ENDBRANCH   7  10
ENDBRANCH   1   4
BRANCH   1  13
ATOM     13  N2  <0> d           4.326   2.562   1.555  0.00  0.00    -0.147 NA
BRANCH  13  14
ATOM     14  C7  <0> d           5.412   3.207   1.833  0.00  0.00     0.113 C 
ATOM     15  N3  <0> d           5.761   3.402   3.090  0.00  0.00    -0.378 N 
ATOM     16  C12 <0> d           6.037   4.760   3.603  0.00  0.00     0.121 C 
ATOM     17  H17 <0> d           5.839   2.643   3.688  0.00  0.00     0.160 HD
ATOM     18  C11 <0> d           7.353   5.205   3.002  0.00  0.00     0.020 C 
ATOM     19  C10 <0> d           7.192   5.929   1.666  0.00  0.00     0.002 C 
ATOM     20  C9  <0> d           6.175   5.260   0.739  0.00  0.00     0.008 C 
ATOM     21  C8  <0> d           6.289   3.751   0.709  0.00  0.00     0.079 C 
ENDBRANCH  13  14
ENDBRANCH   1  13
TORSDOF 4
