REMARK  4 active torsions:
REMARK  status: ('A' for Active; 'I' for Inactive)
REMARK    1  A    between atoms: C4_4  and  C6_8 
REMARK       I    between atoms: C6_8  and  N3_10 
REMARK    2  A    between atoms: C8_12  and  C15_20 
REMARK       I    between atoms: C15_20  and  N5_22 
REMARK    3  A    between atoms: N5_22  and  C16_23 
REMARK    4  A    between atoms: C16_23  and  C17_24 
ROOT
ATOM      1  C6  <0> d           0.155  -3.212  -1.144  0.00  0.00     0.274 C 
ATOM      2  O1  <0> d           0.182  -3.050  -2.349  0.00  0.00    -0.266 OA
ATOM      3  N3  <0> d           0.135  -4.458  -0.631  0.00  0.00    -0.345 N 
ATOM      4  C7  <0> d           0.095  -4.851   0.797  0.00  0.00     0.141 C 
ATOM      5  C8  <0> d          -0.860  -6.066   0.841  0.00  0.00     0.106 C 
ATOM      6  C9  <0> d          -0.820  -6.648  -0.582  0.00  0.00    -0.007 C 
ATOM      7  C10 <0> d           0.141  -5.744  -1.368  0.00  0.00     0.136 C 
ATOM      8  C11 <0> d          -2.209  -6.603  -1.211  0.00  0.00     0.039 C 
ATOM      9  C12 <0> d          -2.155  -7.239  -2.603  0.00  0.00     0.233 C 
ATOM     10  N4  <0> d          -1.691  -8.628  -2.491  0.00  0.00    -0.075 N 
ATOM     11  C13 <0> d          -0.318  -8.656  -1.971  0.00  0.00     0.233 C 
ATOM     12  C14 <0> d          -0.295  -8.080  -0.553  0.00  0.00     0.039 C 
ATOM     13  H18 <0> d          -2.297  -9.134  -1.863  0.00  0.00     0.277 HD
ATOM     14  H34 <0> d          -1.714  -9.063  -3.401  0.00  0.00     0.277 HD
ENDROOT
BRANCH   5  15
ATOM     15  C15 <0> d          -2.258  -5.622   1.189  0.00  0.00     0.224 C 
ATOM     16  O2  <0> d          -2.640  -4.516   0.868  0.00  0.00    -0.273 OA
ATOM     17  N5  <0> d          -3.082  -6.453   1.857  0.00  0.00    -0.358 N 
ATOM     18  H23 <0> d          -2.776  -7.337   2.113  0.00  0.00     0.162 HD
BRANCH  17  19
ATOM     19  C16 <0> d          -4.441  -6.022   2.195  0.00  0.00     0.159 C 
BRANCH  19  20
ATOM     20  C17 <0> d          -5.160  -7.144   2.946  0.00  0.00     0.172 C 
ATOM     21  O3  <0> d          -4.506  -7.373   4.193  0.00  0.00    -0.379 OA
ATOM     22  C25 <0> d          -5.214  -8.284   5.041  0.00  0.00     0.173 C 
ATOM     23  C24 <0> d          -6.477  -7.586   5.548  0.00  0.00     0.065 C 
ATOM     24  C23 <0> d          -7.214  -6.961   4.391  0.00  0.00    -0.047 A 
ATOM     25  C18 <0> d          -6.595  -6.749   3.177  0.00  0.00    -0.021 A 
ATOM     26  C22 <0> d          -8.539  -6.592   4.565  0.00  0.00     0.008 A 
ATOM     27  C19 <0> d          -7.300  -6.160   2.139  0.00  0.00     0.010 A 
ATOM     28  C20 <0> d          -8.618  -5.789   2.314  0.00  0.00     0.001 A 
ATOM     29  C21 <0> d          -9.240  -6.007   3.530  0.00  0.00     0.001 A 
ENDBRANCH  19  20
ENDBRANCH  17  19
ENDBRANCH   5  15
BRANCH   1  30
ATOM     30  C4  <0> d           0.144  -2.042  -0.242  0.00  0.00     0.146 A 
ATOM     31  C3  <0> d           0.162  -0.680  -0.629  0.00  0.00     0.065 A 
ATOM     32  C2  <0> d           0.142   0.024   0.527  0.00  0.00     0.028 A 
ATOM     33  C1  <0> d           0.150   1.525   0.659  0.00  0.00     0.070 C 
ATOM     34  N2  <0> d           0.118  -0.869   1.539  0.00  0.00    -0.278 N 
ATOM     35  N1  <0> d           0.115  -2.067   1.075  0.00  0.00    -0.167 NA
ATOM     36  C5  <0> d           0.096  -0.521   2.962  0.00  0.00     0.179 C 
ENDBRANCH   1  30
TORSDOF 4
