REMARK  7 active torsions:
REMARK  status: ('A' for Active; 'I' for Inactive)
REMARK    1  A    between atoms: C2_2  and  C3_3 
REMARK    2  A    between atoms: C3_3  and  N1_4 
REMARK    3  A    between atoms: C5_10  and  S1_11 
REMARK    4  A    between atoms: S1_11  and  C6_12 
REMARK    5  A    between atoms: C6_12  and  C7_13 
REMARK    6  A    between atoms: C6_12  and  C8_15 
REMARK    7  A    between atoms: C7_13  and  N4_14 
ROOT
ATOM      1  C6  <0> d           4.098  -3.693  -0.552  0.00  0.00     0.120 C 
ENDROOT
BRANCH   1   2
ATOM      2  S1  <0> d           3.231  -2.124  -0.275  0.00  0.00    -0.078 SA
BRANCH   2   3
ATOM      3  C5  <0> d           1.715  -2.603   0.485  0.00  0.00     0.192 A 
ATOM      4  N1  <0> d           0.752  -1.745   0.965  0.00  0.00    -0.276 N 
ATOM      5  C4  <0> d          -0.260  -2.482   1.466  0.00  0.00     0.344 A 
ATOM      6  O1  <0> d          -1.282  -2.052   1.970  0.00  0.00    -0.245 OA
ATOM      7  N2  <0> d           0.065  -3.781   1.308  0.00  0.00    -0.226 N 
ATOM      8  H1  <0> d          -0.471  -4.544   1.575  0.00  0.00     0.194 HD
ATOM      9  N3  <0> d           1.322  -3.827   0.688  0.00  0.00    -0.145 NA
BRANCH   4  10
ATOM     10  C3  <0> d           0.813  -0.282   0.932  0.00  0.00     0.135 C 
BRANCH  10  11
ATOM     11  C2  <0> d           0.189   0.225  -0.370  0.00  0.00     0.016 C 
ATOM     12  C1  <0> d           0.252   1.753  -0.404  0.00  0.00     0.006 C 
ENDBRANCH  10  11
ENDBRANCH   4  10
ENDBRANCH   2   3
ENDBRANCH   1   2
BRANCH   1  13
ATOM     13  C7  <0> d           3.362  -4.501  -1.622  0.00  0.00     0.250 C 
BRANCH  13  14
ATOM     14  N4  <0> d           3.985  -5.826  -1.750  0.00  0.00    -0.078 N 
ATOM     15  H12 <0> d           3.448  -6.388  -2.394  0.00  0.00     0.274 HD
ATOM     16  H13 <0> d           4.926  -5.723  -2.098  0.00  0.00     0.274 HD
ATOM     17  H16 <0> d           4.007  -6.276  -0.848  0.00  0.00     0.274 HD
ENDBRANCH  13  14
ENDBRANCH   1  13
BRANCH   1  18
ATOM     18  C8  <0> d           5.506  -3.414  -1.012  0.00  0.00    -0.000 A 
ATOM     19  S2  <0> d           6.061  -2.530  -2.461  0.00  0.00    -0.104 SA
ATOM     20  C11 <0> d           7.819  -2.692  -2.197  0.00  0.00     0.069 A 
ATOM     21  C10 <0> d           7.865  -3.405  -1.045  0.00  0.00     0.018 A 
ATOM     22  C9  <0> d           6.679  -3.775  -0.438  0.00  0.00     0.035 A 
ATOM     23 Br1  <0> d           9.526  -3.885  -0.279  0.00  0.00    -0.051 Br
ENDBRANCH   1  18
TORSDOF 7
