REMARK  5 active torsions:
REMARK  status: ('A' for Active; 'I' for Inactive)
REMARK    1  A    between atoms: C6_6  and  N1_8 
REMARK       I    between atoms: N1_8  and  C9_10 
REMARK    2  A    between atoms: C9_10  and  C10_12 
REMARK       I    between atoms: C10_12  and  N2_14 
REMARK    3  A    between atoms: N2_14  and  C11_15 
REMARK    4  A    between atoms: C11_15  and  C12_16 
REMARK    5  A    between atoms: C12_16  and  N3_22 
ROOT
ATOM      1  C10 <0> d          -0.025  -4.904   3.646  0.00  0.00     0.309 C 
ATOM      2  O2  <0> d          -0.019  -4.321   4.710  0.00  0.00    -0.262 OA
ATOM      3  N2  <0> d          -0.243  -6.234   3.608  0.00  0.00    -0.350 N 
ATOM      4  H11 <0> d          -0.248  -6.700   2.757  0.00  0.00     0.162 HD
ENDROOT
BRANCH   1   5
ATOM      5  C9  <0> d           0.210  -4.149   2.379  0.00  0.00     0.315 C 
ATOM      6  N1  <0> d           0.342  -2.808   2.409  0.00  0.00    -0.314 N 
ATOM      7  C8  <0> d           0.379  -2.104   3.693  0.00  0.00     0.160 C 
ATOM      8  O1  <0> d           0.282  -4.743   1.323  0.00  0.00    -0.262 OA
BRANCH   6   9
ATOM      9  C6  <0> d           0.444  -2.090   1.215  0.00  0.00     0.037 A 
ATOM     10  C5  <0> d           0.554  -2.763   0.005  0.00  0.00     0.030 A 
ATOM     11  C4  <0> d           0.654  -2.050  -1.174  0.00  0.00     0.003 A 
ATOM     12  C3  <0> d           0.645  -0.667  -1.150  0.00  0.00     0.007 A 
ATOM     13  C2  <0> d           0.536   0.006   0.053  0.00  0.00    -0.060 A 
ATOM     14  C1  <0> d           0.527   1.513   0.074  0.00  0.00     0.048 C 
ATOM     15  C7  <0> d           0.441  -0.700   1.236  0.00  0.00     0.036 A 
ENDBRANCH   6   9
ENDBRANCH   1   5
BRANCH   3  16
ATOM     16  C11 <0> d          -0.474  -6.975   4.850  0.00  0.00     0.162 C 
BRANCH  16  17
ATOM     17  C12 <0> d          -0.571  -8.470   4.542  0.00  0.00     0.142 C 
ATOM     18  C17 <0> d           0.776  -8.970   4.015  0.00  0.00     0.041 C 
ATOM     19  C16 <0> d           1.856  -8.737   5.073  0.00  0.00     0.002 C 
ATOM     20  C15 <0> d           1.493  -9.498   6.349  0.00  0.00     0.000 C 
ATOM     21  C14 <0> d           0.147  -8.998   6.876  0.00  0.00     0.002 C 
ATOM     22  C13 <0> d          -0.933  -9.232   5.818  0.00  0.00     0.041 C 
BRANCH  17  23
ATOM     23  N3  <0> d          -1.608  -8.695   3.526  0.00  0.00    -0.068 N 
ATOM     24  C18 <0> d          -1.784 -10.138   3.316  0.00  0.00     0.270 C 
ATOM     25  C19 <0> d          -2.875  -8.109   3.983  0.00  0.00     0.270 C 
ATOM     26  H30 <0> d          -1.329  -8.260   2.659  0.00  0.00     0.280 HD
ENDBRANCH  17  23
ENDBRANCH  16  17
ENDBRANCH   3  16
TORSDOF 5
