REMARK  2 active torsions:
REMARK  status: ('A' for Active; 'I' for Inactive)
REMARK       I    between atoms: N1_4  and  C8_10 
REMARK    1  A    between atoms: C8_10  and  C9_12 
REMARK    2  A    between atoms: C12_15  and  N2_18 
ROOT
ATOM      1  C1  <0> d          -0.384   1.459   0.019  0.00  0.00     0.041 C 
ATOM      2  C2  <0> d          -0.353  -0.070  -0.030  0.00  0.00     0.136 C 
ATOM      3  C3  <0> d           0.562  -0.526  -1.172  0.00  0.00     0.157 C 
ATOM      4  N1  <0> d           0.723  -1.986  -1.082  0.00  0.00    -0.347 N 
ATOM      5  C4  <0> d           1.111  -2.560   0.217  0.00  0.00     0.163 C 
ATOM      6  C5  <0> d           0.170  -2.004   1.292  0.00  0.00     0.070 C 
ATOM      7  O1  <0> d           0.150  -0.577   1.208  0.00  0.00    -0.373 OA
ATOM      8  C6  <0> d          -1.242  -2.548   1.065  0.00  0.00     0.047 C 
ATOM      9  C7  <0> d           0.667  -2.428   2.675  0.00  0.00     0.047 C 
ATOM     10  C8  <0> d           0.523  -2.775  -2.156  0.00  0.00     0.224 C 
ATOM     11  O2  <0> d           0.110  -2.296  -3.191  0.00  0.00    -0.273 OA
ENDROOT
BRANCH  10  12
ATOM     12  C9  <0> d           0.811  -4.251  -2.072  0.00  0.00     0.078 C 
ATOM     13  C14 <0> d           0.404  -4.926  -3.383  0.00  0.00     0.016 C 
ATOM     14  C13 <0> d           1.200  -4.317  -4.539  0.00  0.00     0.033 C 
ATOM     15  C12 <0> d           2.696  -4.531  -4.297  0.00  0.00     0.183 C 
ATOM     16  C11 <0> d           3.103  -3.856  -2.986  0.00  0.00     0.033 C 
ATOM     17  C10 <0> d           2.307  -4.466  -1.830  0.00  0.00     0.016 C 
BRANCH  15  18
ATOM     18  N2  <0> d           3.460  -3.946  -5.407  0.00  0.00    -0.075 N 
ATOM     19  H25 <0> d           4.446  -4.087  -5.248  0.00  0.00     0.274 HD
ATOM     20  H26 <0> d           3.192  -4.391  -6.272  0.00  0.00     0.274 HD
ATOM     21  H27 <0> d           3.267  -2.957  -5.463  0.00  0.00     0.274 HD
ENDBRANCH  15  18
ENDBRANCH  10  12
TORSDOF 2
