REMARK  3 active torsions:
REMARK  status: ('A' for Active; 'I' for Inactive)
REMARK    1  A    between atoms: C5_9  and  N4_23 
REMARK    2  A    between atoms: C7_11  and  C8_12 
REMARK    3  A    between atoms: C13_17  and  O2_18 
ROOT
ATOM      1  C1  <0> d          -0.018   1.503   0.010  0.00  0.00     0.073 C 
ATOM      2  C2  <0> d           0.002  -0.004   0.002  0.00  0.00     0.062 A 
ATOM      3  C3  <0> d           0.008  -0.813  -1.126  0.00  0.00     0.034 A 
ATOM      4  C4  <0> d           0.028  -2.116  -0.713  0.00  0.00     0.175 A 
ATOM      5  N1  <0> d           0.033  -2.116   0.629  0.00  0.00    -0.256 N 
ATOM      6  H1  <0> d           0.046  -2.900   1.201  0.00  0.00     0.191 HD
ATOM      7  N2  <0> d           0.023  -0.780   1.060  0.00  0.00    -0.177 NA
ATOM      8  O1  <0> d           0.042  -3.159  -1.580  0.00  0.00    -0.274 OA
ATOM      9  C5  <0> d           0.311  -2.892  -2.874  0.00  0.00     0.161 C 
ATOM     10  C6  <0> d           0.309  -1.648  -3.402  0.00  0.00     0.086 C 
ATOM     11  C7  <0> d          -0.005  -0.421  -2.581  0.00  0.00     0.109 C 
ATOM     12  C15 <0> d           0.616  -1.487  -4.791  0.00  0.00     0.100 C 
ATOM     13  N3  <0> d           0.860  -1.360  -5.894  0.00  0.00    -0.191 NA
ENDROOT
BRANCH   9  14
ATOM     14  N4  <0> d           0.605  -3.945  -3.704  0.00  0.00    -0.379 N 
ATOM     15  H12 <0> d           0.615  -4.850  -3.354  0.00  0.00     0.158 HD
ATOM     16  H13 <0> d           0.803  -3.785  -4.640  0.00  0.00     0.158 HD
ENDBRANCH   9  14
BRANCH  11  17
ATOM     17  C8  <0> d          -1.367   0.105  -2.954  0.00  0.00    -0.009 A 
ATOM     18  C13 <0> d          -1.504   1.400  -3.432  0.00  0.00     0.075 A 
ATOM     19  C12 <0> d          -2.758   1.880  -3.780  0.00  0.00     0.039 A 
ATOM     20  C11 <0> d          -3.869   1.072  -3.639  0.00  0.00     0.022 A 
ATOM     21  C10 <0> d          -3.732  -0.217  -3.156  0.00  0.00     0.011 A 
ATOM     22  C9  <0> d          -2.481  -0.700  -2.814  0.00  0.00     0.030 A 
ATOM     23 Br1  <0> d          -5.255  -1.321  -2.965  0.00  0.00    -0.051 Br
BRANCH  18  24
ATOM     24  O2  <0> d          -0.409   2.195  -3.566  0.00  0.00    -0.355 OA
ATOM     25  C14 <0> d          -0.625   3.517  -4.064  0.00  0.00     0.210 C 
ENDBRANCH  18  24
ENDBRANCH  11  17
TORSDOF 3
