REMARK  7 active torsions:
REMARK  status: ('A' for Active; 'I' for Inactive)
REMARK    1  A    between atoms: N1_2  and  C3_4 
REMARK    2  A    between atoms: C3_4  and  C4_5 
REMARK    3  A    between atoms: C4_5  and  N2_6 
REMARK    4  A    between atoms: N3_9  and  C9_12 
REMARK    5  A    between atoms: C9_12  and  C10_13 
REMARK    6  A    between atoms: C9_12  and  C11_15 
REMARK    7  A    between atoms: C10_13  and  N4_14 
ROOT
ATOM      1  C9  <0> d           5.159  -0.742  -5.888  0.00  0.00     0.281 C 
ENDROOT
BRANCH   1   2
ATOM      2  N3  <0> d           4.487  -0.346  -4.644  0.00  0.00     0.102 N 
ATOM      3  C6  <0> d           3.046  -0.627  -4.711  0.00  0.00     0.303 C 
ATOM      4  C5  <0> d           2.371  -0.128  -3.431  0.00  0.00     0.302 C 
ATOM      5  N2  <0> d           2.980  -0.791  -2.270  0.00  0.00     0.093 N 
ATOM      6  C8  <0> d           4.421  -0.510  -2.202  0.00  0.00     0.302 C 
ATOM      7  C7  <0> d           5.096  -1.008  -3.482  0.00  0.00     0.303 C 
BRANCH   5   8
ATOM      8  C4  <0> d           2.308  -0.395  -1.025  0.00  0.00     0.300 C 
BRANCH   8   9
ATOM      9  C3  <0> d           0.872  -0.924  -1.031  0.00  0.00     0.264 C 
BRANCH   9  10
ATOM     10  N1  <0> d           0.199  -0.528   0.214  0.00  0.00    -0.077 N 
ATOM     11  C1  <0> d           0.074   0.935   0.259  0.00  0.00     0.269 C 
ATOM     12  C2  <0> d          -1.137  -1.135   0.263  0.00  0.00     0.269 C 
ATOM     13  H29 <0> d           0.742  -0.843   1.004  0.00  0.00     0.279 HD
ENDBRANCH   9  10
ENDBRANCH   8   9
ENDBRANCH   5   8
ENDBRANCH   1   2
BRANCH   1  14
ATOM     14  C10 <0> d           6.649  -0.408  -5.791  0.00  0.00     0.270 C 
BRANCH  14  15
ATOM     15  N4  <0> d           7.337  -0.882  -7.000  0.00  0.00    -0.077 N 
ATOM     16  H22 <0> d           8.332  -0.749  -6.895  0.00  0.00     0.274 HD
ATOM     17  H23 <0> d           7.141  -1.863  -7.136  0.00  0.00     0.274 HD
ATOM     18  H28 <0> d           7.010  -0.360  -7.799  0.00  0.00     0.274 HD
ENDBRANCH  14  15
ENDBRANCH   1  14
BRANCH   1  19
ATOM     19  C11 <0> d           4.552   0.006  -7.048  0.00  0.00    -0.022 A 
ATOM     20  C16 <0> d           4.337  -0.641  -8.250  0.00  0.00     0.028 A 
ATOM     21  C15 <0> d           3.775   0.044  -9.312  0.00  0.00     0.011 A 
ATOM     22  C14 <0> d           3.437   1.378  -9.174  0.00  0.00     0.019 A 
ATOM     23 Br1  <0> d           3.473  -0.842 -10.955  0.00  0.00    -0.051 Br
ATOM     24  C13 <0> d           3.658   2.026  -7.972  0.00  0.00     0.002 A 
ATOM     25  C12 <0> d           4.215   1.339  -6.910  0.00  0.00     0.009 A 
ENDBRANCH   1  19
TORSDOF 7
