REMARK  5 active torsions:
REMARK  status: ('A' for Active; 'I' for Inactive)
REMARK    1  A    between atoms: O1_2  and  C2_3 
REMARK    2  A    between atoms: C9_10  and  C18_23 
REMARK    3  A    between atoms: N1_12  and  N2_13 
REMARK       I    between atoms: N2_13  and  C11_14 
REMARK    4  A    between atoms: C11_14  and  C12_16 
REMARK       I    between atoms: C18_23  and  N3_25 
REMARK    5  A    between atoms: N3_25  and  C19_26 
ROOT
ATOM      1  C2  <0> d          -4.215  -5.289  -3.303  0.00  0.00     0.069 A 
ATOM      2  C3  <0> d          -3.256  -6.115  -2.727  0.00  0.00     0.039 A 
ATOM      3  C4  <0> d          -2.542  -5.697  -1.621  0.00  0.00     0.041 A 
ATOM      4  C5  <0> d          -2.778  -4.446  -1.076  0.00  0.00     0.088 A 
ATOM      5  C6  <0> d          -3.744  -3.604  -1.656  0.00  0.00     0.002 A 
ATOM      6  C7  <0> d          -4.463  -4.036  -2.775  0.00  0.00     0.051 A 
ATOM      7  C8  <0> d          -3.986  -2.277  -1.077  0.00  0.00     0.035 C 
ATOM      8  C9  <0> d          -3.075  -1.806  -0.161  0.00  0.00     0.085 C 
ATOM      9  C10 <0> d          -1.926  -2.682   0.162  0.00  0.00     0.178 C 
ATOM     10  N1  <0> d          -0.792  -2.180   0.575  0.00  0.00    -0.276 N 
ATOM     11  O3  <0> d          -2.085  -4.026   0.010  0.00  0.00    -0.291 OA
ATOM     12  H20 <0> d          -0.010  -2.844   0.971  0.00  0.00     0.189 HD
ENDROOT
BRANCH   8  13
ATOM     13  C18 <0> d          -3.235  -0.486   0.470  0.00  0.00     0.260 C 
ATOM     14  O4  <0> d          -3.728   0.432  -0.156  0.00  0.00    -0.267 OA
ATOM     15  N3  <0> d          -2.834  -0.295   1.743  0.00  0.00    -0.323 N 
ATOM     16  H14 <0> d          -2.350  -1.113   2.296  0.00  0.00     0.169 HD
BRANCH  15  17
ATOM     17  C19 <0> d          -3.036   0.943   2.361  0.00  0.00     0.035 A 
ATOM     18  C24 <0> d          -2.093   1.438   3.253  0.00  0.00     0.029 A 
ATOM     19  C23 <0> d          -2.295   2.661   3.861  0.00  0.00     0.002 A 
ATOM     20  C22 <0> d          -3.435   3.393   3.584  0.00  0.00     0.000 A 
ATOM     21  C21 <0> d          -4.376   2.903   2.698  0.00  0.00     0.002 A 
ATOM     22  C20 <0> d          -4.177   1.683   2.081  0.00  0.00     0.029 A 
ENDBRANCH  15  17
ENDBRANCH   8  13
BRANCH  10  23
ATOM     23  N2  <0> d          -0.574  -0.798   0.513  0.00  0.00    -0.264 N 
ATOM     24  C11 <0> d           0.545  -0.268   1.045  0.00  0.00     0.270 C 
ATOM     25  O2  <0> d           1.406  -0.997   1.501  0.00  0.00    -0.266 OA
ATOM     26  H8  <0> d          -1.316  -0.145   0.030  0.00  0.00     0.190 HD
BRANCH  24  27
ATOM     27  C12 <0> d           0.726   1.198   1.076  0.00  0.00     0.033 A 
ATOM     28  C17 <0> d           1.824   1.756   1.733  0.00  0.00     0.017 A 
ATOM     29  C16 <0> d           1.988   3.125   1.758  0.00  0.00     0.001 A 
ATOM     30  C15 <0> d           1.066   3.946   1.132  0.00  0.00     0.000 A 
ATOM     31  C14 <0> d          -0.025   3.400   0.479  0.00  0.00     0.001 A 
ATOM     32  C13 <0> d          -0.196   2.032   0.442  0.00  0.00     0.017 A 
ENDBRANCH  24  27
ENDBRANCH  10  23
BRANCH   1  33
ATOM     33  O1  <0> d          -4.910  -5.715  -4.391  0.00  0.00    -0.356 OA
ATOM     34  C1  <0> d          -4.605  -7.020  -4.886  0.00  0.00     0.210 C 
ENDBRANCH   1  33
TORSDOF 5
