REMARK  6 active torsions:
REMARK  status: ('A' for Active; 'I' for Inactive)
REMARK    1  A    between atoms: C4_4  and  C7_7 
REMARK    2  A    between atoms: C8_8  and  C16_18 
REMARK    3  A    between atoms: N1_10  and  C10_12 
REMARK       I    between atoms: C16_18  and  N3_20 
REMARK    4  A    between atoms: N3_20  and  N4_21 
REMARK    5  A    between atoms: C17_22  and  C18_23 
REMARK    6  A    between atoms: C20_28  and  C21_29 
ROOT
ATOM      1  C16 <0> d           3.201  -2.196   2.198  0.00  0.00     0.275 C 
ATOM      2  O1  <0> d           2.007  -1.962   2.213  0.00  0.00    -0.266 OA
ATOM      3  N3  <0> d           3.686  -3.273   2.847  0.00  0.00    -0.243 N 
ATOM      4  H13 <0> d           4.637  -3.460   2.835  0.00  0.00     0.192 HD
ENDROOT
BRANCH   1   5
ATOM      5  C8  <0> d           4.117  -1.302   1.470  0.00  0.00     0.082 A 
ATOM      6  C7  <0> d           3.774  -0.034   0.818  0.00  0.00     0.105 A 
ATOM      7  N2  <0> d           4.879   0.436   0.285  0.00  0.00    -0.166 NA
ATOM      8  N1  <0> d           5.929  -0.445   0.557  0.00  0.00    -0.244 N 
ATOM      9  C9  <0> d           5.469  -1.491   1.266  0.00  0.00     0.138 A 
BRANCH   6  10
ATOM     10  C4  <0> d           2.433   0.595   0.765  0.00  0.00    -0.005 A 
ATOM     11  C3  <0> d           1.636   0.640   1.908  0.00  0.00     0.014 A 
ATOM     12  C2  <0> d           0.388   1.228   1.853  0.00  0.00     0.001 A 
ATOM     13  C1  <0> d          -0.072   1.771   0.667  0.00  0.00     0.000 A 
ATOM     14  C6  <0> d           0.715   1.730  -0.470  0.00  0.00     0.001 A 
ATOM     15  C5  <0> d           1.964   1.145  -0.427  0.00  0.00     0.014 A 
ENDBRANCH   6  10
BRANCH   8  16
ATOM     16  C10 <0> d           7.258  -0.269   0.149  0.00  0.00     0.058 A 
ATOM     17  C15 <0> d           7.618   0.855  -0.582  0.00  0.00     0.031 A 
ATOM     18  C14 <0> d           8.929   1.029  -0.978  0.00  0.00     0.002 A 
ATOM     19  C13 <0> d           9.882   0.079  -0.657  0.00  0.00     0.000 A 
ATOM     20  C12 <0> d           9.525  -1.044   0.066  0.00  0.00     0.002 A 
ATOM     21  C11 <0> d           8.217  -1.221   0.470  0.00  0.00     0.031 A 
ENDBRANCH   8  16
ENDBRANCH   1   5
BRANCH   3  22
ATOM     22  N4  <0> d           2.814  -4.124   3.540  0.00  0.00    -0.183 NA
ATOM     23  C17 <0> d           3.280  -5.161   4.165  0.00  0.00     0.154 C 
BRANCH  23  24
ATOM     24  C18 <0> d           2.363  -6.056   4.894  0.00  0.00     0.031 A 
ATOM     25  C20 <0> d           0.901  -5.973   4.927  0.00  0.00     0.100 A 
ATOM     26  N6  <0> d           0.477  -6.958   5.687  0.00  0.00    -0.174 NA
ATOM     27  N5  <0> d           1.582  -7.673   6.158  0.00  0.00    -0.288 N 
ATOM     28  C19 <0> d           2.712  -7.123   5.676  0.00  0.00     0.124 A 
ATOM     29  H1  <0> d           1.541  -8.446   6.743  0.00  0.00     0.188 HD
BRANCH  25  30
ATOM     30  C21 <0> d           0.059  -4.969   4.232  0.00  0.00    -0.005 A 
ATOM     31  C26 <0> d          -1.000  -4.360   4.904  0.00  0.00     0.017 A 
ATOM     32  C25 <0> d          -1.777  -3.423   4.255  0.00  0.00     0.043 A 
ATOM     33  C24 <0> d          -1.514  -3.095   2.935  0.00  0.00     0.116 A 
ATOM     34  C23 <0> d          -0.465  -3.702   2.262  0.00  0.00     0.043 A 
ATOM     35  F1  <0> d          -2.281  -2.181   2.302  0.00  0.00    -0.206 F 
ATOM     36  C22 <0> d           0.321  -4.636   2.904  0.00  0.00     0.017 A 
ENDBRANCH  25  30
ENDBRANCH  23  24
ENDBRANCH   3  22
TORSDOF 6
