REMARK  9 active torsions:
REMARK  status: ('A' for Active; 'I' for Inactive)
REMARK    1  A    between atoms: C2_2  and  C4_4 
REMARK    2  A    between atoms: C4_4  and  C5_5 
REMARK    3  A    between atoms: C5_5  and  C6_6 
REMARK    4  A    between atoms: C5_5  and  N2_10 
REMARK    5  A    between atoms: C6_6  and  N1_7 
REMARK    6  A    between atoms: N2_10  and  S1_11 
REMARK    7  A    between atoms: S1_11  and  C9_14 
REMARK    8  A    between atoms: C9_14  and  C10_15 
REMARK    9  A    between atoms: C10_15  and  C11_16 
ROOT
ATOM      1  S1  <0> d           3.401  -0.314   1.033  0.00  0.00     0.227 S 
ATOM      2  O1  <0> d           4.354  -1.067   1.770  0.00  0.00    -0.206 OA
ATOM      3  O2  <0> d           3.753   0.939   0.462  0.00  0.00    -0.206 OA
ENDROOT
BRANCH   1   4
ATOM      4  N2  <0> d           3.011  -1.272  -0.260  0.00  0.00    -0.313 N 
ATOM      5  H20 <0> d           3.425  -2.144  -0.359  0.00  0.00     0.172 HD
BRANCH   4   6
ATOM      6  C5  <0> d           2.042  -0.804  -1.253  0.00  0.00     0.119 C 
BRANCH   6   7
ATOM      7  C4  <0> d           0.905  -1.821  -1.375  0.00  0.00     0.031 C 
BRANCH   7   8
ATOM      8  C2  <0> d           0.109  -1.854  -0.069  0.00  0.00    -0.021 C 
ATOM      9  C1  <0> d          -0.649  -0.536   0.100  0.00  0.00     0.009 C 
ATOM     10  C3  <0> d          -0.887  -3.014  -0.108  0.00  0.00     0.009 C 
ENDBRANCH   7   8
ENDBRANCH   6   7
BRANCH   6  11
ATOM     11  C6  <0> d           2.735  -0.650  -2.609  0.00  0.00     0.259 C 
BRANCH  11  12
ATOM     12  N1  <0> d           3.900   0.233  -2.465  0.00  0.00    -0.077 N 
ATOM     13  C7  <0> d           4.634   0.286  -3.736  0.00  0.00     0.269 C 
ATOM     14  C8  <0> d           3.449   1.584  -2.103  0.00  0.00     0.269 C 
ATOM     15  H35 <0> d           4.506  -0.124  -1.742  0.00  0.00     0.279 HD
ENDBRANCH  11  12
ENDBRANCH   6  11
ENDBRANCH   4   6
ENDBRANCH   1   4
BRANCH   1  16
ATOM     16  C9  <0> d           1.861  -0.159   1.979  0.00  0.00     0.165 C 
BRANCH  16  17
ATOM     17  C10 <0> d           2.144   0.556   3.302  0.00  0.00     0.049 C 
BRANCH  17  18
ATOM     18  C11 <0> d           0.845   0.687   4.100  0.00  0.00     0.186 C 
ATOM     19  N3  <0> d           0.365  -0.649   4.473  0.00  0.00    -0.071 N 
ATOM     20  C15 <0> d          -0.921  -0.538   5.173  0.00  0.00     0.232 C 
ATOM     21  H33 <0> d           0.246  -1.207   3.641  0.00  0.00     0.277 HD
ATOM     22  H34 <0> d           1.040  -1.091   5.079  0.00  0.00     0.277 HD
ATOM     23  C14 <0> d          -0.731   0.239   6.477  0.00  0.00     0.027 C 
ATOM     24  C13 <0> d          -0.199   1.639   6.157  0.00  0.00     0.004 C 
ATOM     25  C12 <0> d           1.104   1.511   5.363  0.00  0.00     0.033 C 
ENDBRANCH  17  18
ENDBRANCH  16  17
ENDBRANCH   1  16
TORSDOF 9
