REMARK  6 active torsions:
REMARK  status: ('A' for Active; 'I' for Inactive)
REMARK    1  A    between atoms: C3_3  and  C6_8 
REMARK    2  A    between atoms: C6_8  and  N3_10 
REMARK       I    between atoms: N3_10  and  C8_11 
REMARK    3  A    between atoms: C8_11  and  C9_13 
REMARK       I    between atoms: N4_15  and  C17_23 
REMARK    4  A    between atoms: C17_23  and  C18_25 
REMARK    5  A    between atoms: C18_25  and  C19_26 
REMARK    6  A    between atoms: C19_26  and  C20_27 
ROOT
ATOM      1  C9  <0> d          -2.957  -1.302  -4.401  0.00  0.00     0.106 C 
ATOM      2  C10 <0> d          -2.449  -0.042  -5.138  0.00  0.00     0.140 C 
ATOM      3  N4  <0> d          -3.004  -0.160  -6.507  0.00  0.00    -0.351 N 
ATOM      4  C11 <0> d          -4.371  -0.696  -6.306  0.00  0.00     0.136 C 
ATOM      5  C12 <0> d          -4.219  -1.728  -5.170  0.00  0.00    -0.007 C 
ATOM      6  C13 <0> d          -4.037  -3.127  -5.750  0.00  0.00     0.039 C 
ATOM      7  C14 <0> d          -5.326  -3.550  -6.462  0.00  0.00     0.233 C 
ATOM      8  N5  <0> d          -6.441  -3.535  -5.508  0.00  0.00    -0.075 N 
ATOM      9  C15 <0> d          -6.668  -2.167  -5.025  0.00  0.00     0.233 C 
ATOM     10  C16 <0> d          -5.437  -1.685  -4.253  0.00  0.00     0.039 C 
ATOM     11  C17 <0> d          -2.401   0.151  -7.671  0.00  0.00     0.220 C 
ATOM     12  O2  <0> d          -2.992  -0.002  -8.720  0.00  0.00    -0.273 OA
ATOM     13  H22 <0> d          -7.276  -3.872  -5.963  0.00  0.00     0.277 HD
ATOM     14  H36 <0> d          -6.222  -4.134  -4.726  0.00  0.00     0.277 HD
ENDROOT
BRANCH   1  15
ATOM     15  C8  <0> d          -3.300  -0.972  -2.971  0.00  0.00     0.224 C 
ATOM     16  N3  <0> d          -3.221  -1.924  -2.022  0.00  0.00    -0.353 N 
ATOM     17  H13 <0> d          -2.943  -2.823  -2.258  0.00  0.00     0.163 HD
ATOM     18  O1  <0> d          -3.648   0.152  -2.676  0.00  0.00    -0.273 OA
BRANCH  16  19
ATOM     19  C6  <0> d          -3.555  -1.603  -0.632  0.00  0.00     0.113 C 
ATOM     20  C7  <0> d          -2.327  -1.013   0.064  0.00  0.00     0.037 C 
BRANCH  19  21
ATOM     21  C3  <0> d          -3.984  -2.857   0.084  0.00  0.00    -0.006 A 
ATOM     22  C2  <0> d          -3.239  -4.176   0.190  0.00  0.00     0.160 A 
ATOM     23  C1  <0> d          -1.899  -3.985   0.903  0.00  0.00     0.041 C 
ATOM     24  N2  <0> d          -4.145  -5.009   1.000  0.00  0.00    -0.183 NA
ATOM     25  N1  <0> d          -5.137  -4.322   1.274  0.00  0.00    -0.159 NA
ATOM     26  C4  <0> d          -5.108  -3.067   0.774  0.00  0.00     0.059 A 
ATOM     27  C5  <0> d          -6.197  -2.043   0.968  0.00  0.00     0.072 C 
ENDBRANCH  19  21
ENDBRANCH  16  19
ENDBRANCH   1  15
BRANCH  11  28
ATOM     28  C18 <0> d          -0.993   0.688  -7.672  0.00  0.00     0.107 C 
BRANCH  28  29
ATOM     29  C19 <0> d          -0.550   0.956  -9.111  0.00  0.00     0.047 C 
BRANCH  29  30
ATOM     30  C20 <0> d           0.858   1.493  -9.112  0.00  0.00    -0.058 A 
ATOM     31  C25 <0> d           1.929   0.623  -9.189  0.00  0.00     0.007 A 
ATOM     32  C24 <0> d           3.221   1.116  -9.194  0.00  0.00     0.001 A 
ATOM     33  C23 <0> d           3.441   2.478  -9.112  0.00  0.00     0.000 A 
ATOM     34  C22 <0> d           2.370   3.348  -9.029  0.00  0.00     0.001 A 
ATOM     35  C21 <0> d           1.078   2.856  -9.029  0.00  0.00     0.007 A 
ENDBRANCH  29  30
ENDBRANCH  28  29
ENDBRANCH  11  28
TORSDOF 6
