REMARK  4 active torsions:
REMARK  status: ('A' for Active; 'I' for Inactive)
REMARK    1  A    between atoms: C2_2  and  C3_3 
REMARK    2  A    between atoms: C6_6  and  C9_9 
REMARK    3  A    between atoms: N1_12  and  C12_16 
REMARK    4  A    between atoms: C12_16  and  C13_17 
ROOT
ATOM      1  C9  <0> d          -5.419  -2.005   0.043  0.00  0.00     0.140 A 
ATOM      2  C10 <0> d          -6.207  -1.436  -1.121  0.00  0.00     0.260 A 
ATOM      3  O1  <0> d          -5.976  -1.583  -2.302  0.00  0.00    -0.270 OA
ATOM      4  N1  <0> d          -7.217  -0.735  -0.569  0.00  0.00    -0.267 N 
ATOM      5  C11 <0> d          -7.177  -0.781   0.767  0.00  0.00     0.326 A 
ATOM      6  O2  <0> d          -7.984  -0.225   1.486  0.00  0.00    -0.247 OA
ATOM      7  N2  <0> d          -6.145  -1.512   1.226  0.00  0.00    -0.321 N 
ATOM      8  C18 <0> d          -5.426  -3.534   0.006  0.00  0.00     0.054 C 
ATOM      9  H10 <0> d          -5.922  -1.681   2.155  0.00  0.00     0.165 HD
ENDROOT
BRANCH   1  10
ATOM     10  C6  <0> d          -4.006  -1.482   0.032  0.00  0.00    -0.021 A 
ATOM     11  C5  <0> d          -3.348  -1.244   1.225  0.00  0.00     0.011 A 
ATOM     12  C4  <0> d          -2.051  -0.766   1.215  0.00  0.00     0.007 A 
ATOM     13  C3  <0> d          -1.412  -0.526   0.013  0.00  0.00    -0.059 A 
ATOM     14  C8  <0> d          -2.072  -0.758  -1.179  0.00  0.00     0.007 A 
ATOM     15  C7  <0> d          -3.367  -1.241  -1.170  0.00  0.00     0.011 A 
BRANCH  13  16
ATOM     16  C2  <0> d           0.002  -0.004   0.002  0.00  0.00     0.034 C 
ATOM     17  C1  <0> d          -0.019   1.526   0.010  0.00  0.00     0.010 C 
ENDBRANCH  13  16
ENDBRANCH   1  10
BRANCH   4  18
ATOM     18  C12 <0> d          -8.232  -0.011  -1.338  0.00  0.00     0.141 C 
BRANCH  18  19
ATOM     19  C13 <0> d          -9.414  -0.940  -1.623  0.00  0.00     0.007 C 
ATOM     20  C17 <0> d         -10.529  -0.152  -2.317  0.00  0.00     0.034 C 
ATOM     21  C16 <0> d         -11.675  -1.103  -2.670  0.00  0.00     0.232 C 
ATOM     22  N3  <0> d         -11.184  -2.154  -3.569  0.00  0.00    -0.075 N 
ATOM     23  C15 <0> d         -10.165  -2.959  -2.885  0.00  0.00     0.232 C 
ATOM     24  H18 <0> d         -10.780  -1.731  -4.391  0.00  0.00     0.277 HD
ATOM     25  H26 <0> d         -11.952  -2.748  -3.842  0.00  0.00     0.277 HD
ATOM     26  C14 <0> d          -8.961  -2.080  -2.540  0.00  0.00     0.034 C 
ENDBRANCH  18  19
ENDBRANCH   4  18
TORSDOF 4
