REMARK  6 active torsions:
REMARK  status: ('A' for Active; 'I' for Inactive)
REMARK    1  A    between atoms: C2_2  and  C3_3 
REMARK    2  A    between atoms: N1_10  and  C15_21 
REMARK    3  A    between atoms: C8_11  and  N3_13 
REMARK    4  A    between atoms: N4_16  and  C13_19 
REMARK    5  A    between atoms: C15_21  and  C16_22 
REMARK       I    between atoms: C16_22  and  N5_24 
REMARK    6  A    between atoms: N5_24  and  C17_25 
ROOT
ATOM      1  C3  <0> d          -1.507  -0.534   0.073  0.00  0.00    -0.027 A 
ATOM      2  C4  <0> d          -2.181  -0.778   1.206  0.00  0.00    -0.012 A 
ATOM      3  S1  <0> d          -3.762  -1.367   0.630  0.00  0.00    -0.073 SA
ATOM      4  C5  <0> d          -3.471  -1.270  -1.118  0.00  0.00     0.133 A 
ATOM      5  C6  <0> d          -2.156  -0.776  -1.204  0.00  0.00     0.076 A 
ATOM      6  C7  <0> d          -1.648  -0.588  -2.528  0.00  0.00     0.276 A 
ATOM      7  O1  <0> d          -0.516  -0.169  -2.702  0.00  0.00    -0.266 OA
ATOM      8  N1  <0> d          -2.435  -0.881  -3.580  0.00  0.00    -0.136 N 
ATOM      9  C8  <0> d          -3.703  -1.351  -3.405  0.00  0.00     0.709 A 
ATOM     10  N2  <0> d          -4.193  -1.543  -2.198  0.00  0.00    -0.056 NA
ATOM     11  C23 <0> d          -1.714  -0.597   2.628  0.00  0.00     0.057 C 
ENDROOT
BRANCH   8  12
ATOM     12  C15 <0> d          -1.919  -0.692  -4.938  0.00  0.00     0.254 C 
BRANCH  12  13
ATOM     13  C16 <0> d          -1.143  -1.914  -5.356  0.00  0.00     0.241 C 
ATOM     14  O2  <0> d          -1.031  -2.851  -4.595  0.00  0.00    -0.271 OA
ATOM     15  N5  <0> d          -0.573  -1.965  -6.576  0.00  0.00    -0.326 N 
ATOM     16  H21 <0> d          -0.605  -1.191  -7.160  0.00  0.00     0.169 HD
BRANCH  15  17
ATOM     17  C17 <0> d           0.065  -3.136  -7.002  0.00  0.00     0.034 A 
ATOM     18  C22 <0> d           0.756  -3.922  -6.090  0.00  0.00     0.031 A 
ATOM     19  C21 <0> d           1.381  -5.080  -6.511  0.00  0.00     0.021 A 
ATOM     20  C20 <0> d           1.328  -5.450  -7.843  0.00  0.00     0.011 A 
ATOM     21  C19 <0> d           0.645  -4.665  -8.755  0.00  0.00     0.021 A 
ATOM     22 Br1  <0> d           2.190  -7.031  -8.418  0.00  0.00    -0.051 Br
ATOM     23  C18 <0> d           0.013  -3.510  -8.338  0.00  0.00     0.031 A 
ENDBRANCH  15  17
ENDBRANCH  12  13
ENDBRANCH   8  12
BRANCH   9  24
ATOM     24  N3  <0> d          -4.475  -1.639  -4.503  0.00  0.00    -0.212 N 
ATOM     25  C12 <0> d          -4.536  -3.003  -5.049  0.00  0.00     0.169 C 
ATOM     26  C11 <0> d          -6.014  -3.390  -5.214  0.00  0.00     0.255 C 
ATOM     27  N4  <0> d          -6.693  -2.380  -6.034  0.00  0.00    -0.068 N 
ATOM     28  C10 <0> d          -6.700  -1.089  -5.333  0.00  0.00     0.255 C 
ATOM     29  H29 <0> d          -6.208  -2.280  -6.913  0.00  0.00     0.280 HD
ATOM     30  C9  <0> d          -5.261  -0.589  -5.170  0.00  0.00     0.169 C 
BRANCH  27  31
ATOM     31  C13 <0> d          -8.076  -2.805  -6.287  0.00  0.00     0.230 C 
ATOM     32  C14 <0> d          -8.070  -4.085  -7.125  0.00  0.00     0.034 C 
ENDBRANCH  27  31
ENDBRANCH   9  24
BRANCH   1  33
ATOM     33  C2  <0> d          -0.095  -0.010   0.123  0.00  0.00     0.036 C 
ATOM     34  C1  <0> d          -0.119   1.520   0.140  0.00  0.00     0.010 C 
ENDBRANCH   1  33
TORSDOF 6
