REMARK  7 active torsions:
REMARK  status: ('A' for Active; 'I' for Inactive)
REMARK       I    between atoms: N1_2  and  C2_3 
REMARK    1  A    between atoms: C2_3  and  C3_5 
REMARK       I    between atoms: N2_7  and  C11_15 
REMARK    2  A    between atoms: C11_15  and  C12_17 
REMARK    3  A    between atoms: C12_17  and  S1_18 
REMARK    4  A    between atoms: S1_18  and  C13_19 
REMARK    5  A    between atoms: C13_19  and  N4_27 
REMARK    6  A    between atoms: N3_20  and  C14_21 
REMARK    7  A    between atoms: C14_21  and  C15_22 
ROOT
ATOM      1  C3  <0> d          -1.425   1.534   3.517  0.00  0.00     0.239 C 
ATOM      2  C4  <0> d          -1.185   3.050   3.587  0.00  0.00     0.174 C 
ATOM      3  N2  <0> d          -1.743   3.529   4.863  0.00  0.00    -0.312 N 
ATOM      4  C5  <0> d          -1.519   2.746   6.009  0.00  0.00     0.070 A 
ATOM      5  C6  <0> d          -1.762   3.272   7.268  0.00  0.00     0.033 A 
ATOM      6  C7  <0> d          -1.543   2.497   8.392  0.00  0.00     0.002 A 
ATOM      7  C8  <0> d          -1.083   1.200   8.259  0.00  0.00     0.003 A 
ATOM      8  C9  <0> d          -0.838   0.671   7.006  0.00  0.00     0.039 A 
ATOM      9  C10 <0> d          -1.053   1.442   5.873  0.00  0.00     0.097 A 
ATOM     10  O2  <0> d          -0.802   0.917   4.645  0.00  0.00    -0.333 OA
ATOM     11  C11 <0> d          -2.444   4.678   4.930  0.00  0.00     0.234 C 
ATOM     12  O3  <0> d          -2.982   5.002   5.968  0.00  0.00    -0.272 OA
ENDROOT
BRANCH  11  13
ATOM     13  C12 <0> d          -2.560   5.562   3.715  0.00  0.00     0.185 C 
BRANCH  13  14
ATOM     14  S1  <0> d          -3.421   7.090   4.160  0.00  0.00    -0.085 SA
BRANCH  14  15
ATOM     15  C13 <0> d          -3.416   7.910   2.600  0.00  0.00     0.134 C 
ATOM     16  N3  <0> d          -2.868   7.338   1.564  0.00  0.00    -0.365 N 
ATOM     17  H21 <0> d          -2.317   6.393   1.685  0.00  0.00     0.162 HD
BRANCH  16  18
ATOM     18  C14 <0> d          -2.985   7.953   0.240  0.00  0.00     0.186 C 
BRANCH  18  19
ATOM     19  C15 <0> d          -1.622   8.390  -0.233  0.00  0.00     0.070 A 
ATOM     20  O4  <0> d          -1.063   9.592  -0.013  0.00  0.00    -0.325 OA
ATOM     21  C18 <0> d           0.154   9.629  -0.579  0.00  0.00     0.142 A 
ATOM     22  C17 <0> d           0.386   8.443  -1.169  0.00  0.00     0.027 A 
ATOM     23  C16 <0> d          -0.758   7.642  -0.941  0.00  0.00     0.036 A 
ENDBRANCH  18  19
ENDBRANCH  16  18
BRANCH  15  24
ATOM     24  N4  <0> d          -3.990   9.154   2.475  0.00  0.00    -0.380 N 
ATOM     25  H19 <0> d          -3.987   9.665   1.501  0.00  0.00     0.158 HD
ATOM     26  H20 <0> d          -4.452   9.637   3.348  0.00  0.00     0.158 HD
ENDBRANCH  15  24
ENDBRANCH  14  15
ENDBRANCH  13  14
ENDBRANCH  11  13
BRANCH   1  27
ATOM     27  C2  <0> d          -0.826   0.987   2.247  0.00  0.00     0.248 C 
ATOM     28  N1  <0> d          -1.321   1.363   1.051  0.00  0.00    -0.363 N 
ATOM     29  C1  <0> d          -0.739   0.831  -0.183  0.00  0.00     0.149 C 
ATOM     30  H5  <0> d          -2.163   2.069   1.002  0.00  0.00     0.162 HD
ATOM     31  O1  <0> d           0.102   0.208   2.300  0.00  0.00    -0.271 OA
ENDBRANCH   1  27
TORSDOF 7
