REMARK  3 active torsions:
REMARK  status: ('A' for Active; 'I' for Inactive)
REMARK    1  A    between atoms: C2_2  and  C3_3 
REMARK    2  A    between atoms: C2_2  and  N3_13 
REMARK    3  A    between atoms: N3_13  and  C10_14 
ROOT
ATOM      1  C3  <0> d           0.731  -0.503   1.223  0.00  0.00    -0.034 A 
ATOM      2  C4  <0> d           0.024  -0.552   2.497  0.00  0.00     0.011 A 
ATOM      3  C5  <0> d           0.618  -0.989   3.629  0.00  0.00     0.032 A 
ATOM      4  C6  <0> d           2.011  -1.429   3.588  0.00  0.00     0.063 A 
ATOM      5  N1  <0> d           2.860  -1.893   4.471  0.00  0.00    -0.307 N 
ATOM      6  C7  <0> d           4.054  -2.140   3.837  0.00  0.00     0.325 A 
ATOM      7  O1  <0> d           5.051  -2.578   4.373  0.00  0.00    -0.247 OA
ATOM      8  N2  <0> d           3.950  -1.818   2.505  0.00  0.00    -0.306 N 
ATOM      9  C8  <0> d           2.737  -1.379   2.279  0.00  0.00     0.063 A 
ATOM     10  C9  <0> d           2.017  -0.897   1.102  0.00  0.00     0.041 A 
ATOM     11  H13 <0> d           2.676  -2.038   5.412  0.00  0.00     0.170 HD
ATOM     12  H14 <0> d           4.655  -1.901   1.844  0.00  0.00     0.170 HD
ENDROOT
BRANCH   1  13
ATOM     13  C2  <0> d           0.002  -0.004   0.002  0.00  0.00     0.111 C 
ATOM     14  C1  <0> d          -0.019   1.526   0.010  0.00  0.00     0.037 C 
BRANCH  13  15
ATOM     15  N3  <0> d          -1.372  -0.511   0.012  0.00  0.00    -0.382 N 
ATOM     16  H8  <0> d          -1.794  -0.752   0.852  0.00  0.00     0.160 HD
BRANCH  15  17
ATOM     17  C10 <0> d          -2.075  -0.647  -1.187  0.00  0.00     0.029 A 
ATOM     18  C15 <0> d          -3.378  -1.128  -1.179  0.00  0.00     0.047 A 
ATOM     19  C14 <0> d          -4.073  -1.256  -2.366  0.00  0.00     0.008 A 
ATOM     20  C13 <0> d          -3.468  -0.917  -3.563  0.00  0.00     0.018 A 
ATOM     21  I1  <0> d          -6.042  -1.971  -2.355  0.00  0.00    -0.045 I 
ATOM     22  C12 <0> d          -2.169  -0.444  -3.575  0.00  0.00     0.003 A 
ATOM     23  C11 <0> d          -1.471  -0.308  -2.391  0.00  0.00     0.029 A 
ENDBRANCH  15  17
ENDBRANCH  13  15
ENDBRANCH   1  13
TORSDOF 3
