REMARK  8 active torsions:
REMARK  status: ('A' for Active; 'I' for Inactive)
REMARK    1  A    between atoms: C3_3  and  C10_15 
REMARK    2  A    between atoms: N1_5  and  C5_7 
REMARK    3  A    between atoms: C10_15  and  N4_33 
REMARK    4  A    between atoms: C12_17  and  C13_18 
REMARK    5  A    between atoms: C12_17  and  N4_33 
REMARK       I    between atoms: C13_18  and  N3_20 
REMARK    6  A    between atoms: N3_20  and  C14_21 
REMARK    7  A    between atoms: C18_25  and  C19_26 
REMARK    8  A    between atoms: C18_25  and  N5_35 
ROOT
ATOM      1  C12 <0> d          -3.180   4.852  -3.351  0.00  0.00     0.336 C 
ENDROOT
BRANCH   1   2
ATOM      2  C13 <0> d          -2.957   3.607  -2.531  0.00  0.00     0.243 C 
ATOM      3  O3  <0> d          -3.492   2.566  -2.852  0.00  0.00    -0.272 OA
ATOM      4  N3  <0> d          -2.164   3.650  -1.442  0.00  0.00    -0.353 N 
ATOM      5  H22 <0> d          -1.737   4.482  -1.186  0.00  0.00     0.162 HD
BRANCH   4   6
ATOM      6  C14 <0> d          -1.948   2.439  -0.646  0.00  0.00     0.112 C 
ATOM      7  C17 <0> d          -1.449   2.800   0.776  0.00  0.00     0.260 C 
ATOM      8  N5  <0> d          -0.737   1.576   1.180  0.00  0.00    -0.065 N 
ATOM      9  C16 <0> d          -0.013   1.086   0.008  0.00  0.00     0.237 C 
ATOM     10  H37 <0> d          -1.413   0.868   1.491  0.00  0.00     0.280 HD
ATOM     11  C15 <0> d          -0.779   1.607  -1.222  0.00  0.00     0.054 C 
BRANCH   8  12
ATOM     12  C18 <0> d           0.215   1.867   2.297  0.00  0.00     0.273 C 
BRANCH  12  13
ATOM     13  C19 <0> d           1.026   3.087   1.944  0.00  0.00    -0.033 A 
ATOM     14  C24 <0> d           0.578   4.344   2.303  0.00  0.00     0.009 A 
ATOM     15  C23 <0> d           1.322   5.463   1.979  0.00  0.00     0.001 A 
ATOM     16  C22 <0> d           2.516   5.324   1.296  0.00  0.00     0.000 A 
ATOM     17  C21 <0> d           2.965   4.067   0.937  0.00  0.00     0.001 A 
ATOM     18  C20 <0> d           2.223   2.948   1.265  0.00  0.00     0.009 A 
ENDBRANCH  12  13
ENDBRANCH   8  12
ENDBRANCH   4   6
ENDBRANCH   1   2
BRANCH   1  19
ATOM     19  N4  <0> d          -4.098   4.532  -4.464  0.00  0.00    -0.063 N 
ATOM     20  C11 <0> d          -3.438   3.616  -5.417  0.00  0.00     0.270 C 
ATOM     21  H36 <0> d          -4.935   4.073  -4.085  0.00  0.00     0.280 HD
BRANCH  19  22
ATOM     22  C10 <0> d          -4.505   5.774  -5.156  0.00  0.00     0.277 C 
BRANCH  22  23
ATOM     23  C3  <0> d          -5.602   5.447  -6.135  0.00  0.00     0.017 A 
ATOM     24  C2  <0> d          -5.430   5.097  -7.479  0.00  0.00     0.061 A 
ATOM     25  C1  <0> d          -4.111   4.981  -8.199  0.00  0.00     0.073 C 
ATOM     26  N2  <0> d          -6.611   4.884  -8.000  0.00  0.00    -0.176 NA
ATOM     27  N1  <0> d          -7.574   5.102  -7.007  0.00  0.00    -0.268 N 
ATOM     28  C4  <0> d          -6.930   5.446  -5.872  0.00  0.00     0.037 A 
ATOM     29  C9  <0> d          -7.573   5.772  -4.549  0.00  0.00     0.070 C 
BRANCH  27  30
ATOM     30  C5  <0> d          -9.024   4.979  -7.171  0.00  0.00     0.125 C 
ATOM     31  C8  <0> d          -9.516   5.970  -8.264  0.00  0.00     0.167 C 
ATOM     32  S1  <0> d         -11.140   5.216  -8.698  0.00  0.00     0.146 S 
ATOM     33  C7  <0> d         -10.846   3.499  -8.107  0.00  0.00     0.142 C 
ATOM     34  O1  <0> d         -12.154   5.812  -7.902  0.00  0.00    -0.228 OA
ATOM     35  O2  <0> d         -11.279   5.200 -10.113  0.00  0.00    -0.228 OA
ATOM     36  C6  <0> d          -9.376   3.553  -7.625  0.00  0.00     0.043 C 
ENDBRANCH  27  30
ENDBRANCH  22  23
ENDBRANCH  19  22
ENDBRANCH   1  19
TORSDOF 8
