REMARK  3 active torsions:
REMARK  status: ('A' for Active; 'I' for Inactive)
REMARK    1  A    between atoms: N1_10  and  C10_13 
REMARK    2  A    between atoms: C14_17  and  C15_18 
REMARK    3  A    between atoms: C15_18  and  N2_19 
ROOT
ATOM      1  C1  <0> d          -0.074   1.444   0.009  0.00  0.00     0.000 C 
ATOM      2  C2  <0> d           1.351   2.001   0.028  0.00  0.00     0.001 C 
ATOM      3  C3  <0> d           2.090   1.554  -1.236  0.00  0.00     0.020 C 
ATOM      4  C4  <0> d           2.120   0.031  -1.296  0.00  0.00     0.050 A 
ATOM      5  C5  <0> d           0.707  -0.540  -1.293  0.00  0.00     0.020 C 
ATOM      6  C6  <0> d          -0.026  -0.085  -0.029  0.00  0.00     0.001 C 
ATOM      7  C7  <0> d           2.883  -0.439  -2.546  0.00  0.00     0.122 A 
ATOM      8  C8  <0> d           4.045  -1.223  -1.973  0.00  0.00     0.228 A 
ATOM      9  O1  <0> d           4.908  -1.774  -2.622  0.00  0.00    -0.273 OA
ATOM     10  N1  <0> d           3.969  -1.209  -0.636  0.00  0.00    -0.282 N 
ATOM     11  C9  <0> d           2.922  -0.530  -0.147  0.00  0.00     0.236 A 
ATOM     12  O2  <0> d           2.660  -0.389   1.028  0.00  0.00    -0.272 OA
ENDROOT
BRANCH  10  13
ATOM     13  C10 <0> d           4.949  -1.880   0.222  0.00  0.00     0.101 C 
ATOM     14  C14 <0> d           4.231  -2.823   1.204  0.00  0.00     0.034 C 
ATOM     15  C13 <0> d           4.574  -2.323   2.623  0.00  0.00     0.008 C 
ATOM     16  C12 <0> d           4.936  -0.830   2.423  0.00  0.00     0.002 C 
ATOM     17  C11 <0> d           5.702  -0.841   1.077  0.00  0.00     0.026 C 
BRANCH  14  18
ATOM     18  C15 <0> d           4.734  -4.256   1.017  0.00  0.00     0.236 C 
BRANCH  18  19
ATOM     19  N2  <0> d           3.959  -5.163   1.873  0.00  0.00    -0.079 N 
ATOM     20  H23 <0> d           4.290  -6.108   1.750  0.00  0.00     0.274 HD
ATOM     21  H24 <0> d           4.070  -4.891   2.839  0.00  0.00     0.274 HD
ATOM     22  H25 <0> d           2.983  -5.113   1.620  0.00  0.00     0.274 HD
ENDBRANCH  18  19
ENDBRANCH  14  18
ENDBRANCH  10  13
TORSDOF 3
