REMARK  4 active torsions:
REMARK  status: ('A' for Active; 'I' for Inactive)
REMARK    1  A    between atoms: C9_9  and  C10_11 
REMARK       I    between atoms: C10_11  and  N2_13 
REMARK    2  A    between atoms: C12_15  and  C19_23 
REMARK       I    between atoms: C19_23  and  N4_25 
REMARK    3  A    between atoms: N4_25  and  C20_26 
REMARK    4  A    between atoms: C20_26  and  C21_27 
ROOT
ATOM      1  C10 <0> d           5.004  -2.549  -0.059  0.00  0.00     0.272 C 
ATOM      2  O1  <0> d           5.082  -3.758   0.035  0.00  0.00    -0.266 OA
ATOM      3  N2  <0> d           6.124  -1.807  -0.169  0.00  0.00    -0.345 N 
ATOM      4  C11 <0> d           6.238  -0.330  -0.173  0.00  0.00     0.141 C 
ATOM      5  C12 <0> d           7.510  -0.034   0.652  0.00  0.00     0.106 C 
ATOM      6  C13 <0> d           8.348  -1.320   0.555  0.00  0.00    -0.007 C 
ATOM      7  C14 <0> d           7.520  -2.285  -0.306  0.00  0.00     0.136 C 
ATOM      8  C15 <0> d           8.566  -1.915   1.943  0.00  0.00     0.039 C 
ATOM      9  C16 <0> d           9.449  -3.160   1.827  0.00  0.00     0.233 C 
ATOM     10  N3  <0> d          10.735  -2.795   1.222  0.00  0.00    -0.075 N 
ATOM     11  C17 <0> d          10.525  -2.311  -0.147  0.00  0.00     0.233 C 
ATOM     12  C18 <0> d           9.688  -1.029  -0.115  0.00  0.00     0.039 C 
ATOM     13  H16 <0> d          11.170  -2.069   1.772  0.00  0.00     0.277 HD
ATOM     14  H31 <0> d          11.338  -3.604   1.202  0.00  0.00     0.277 HD
ENDROOT
BRANCH   5  15
ATOM     15  C19 <0> d           8.261   1.130   0.059  0.00  0.00     0.224 C 
ATOM     16  O2  <0> d           8.135   1.397  -1.117  0.00  0.00    -0.273 OA
ATOM     17  N4  <0> d           9.073   1.875   0.836  0.00  0.00    -0.356 N 
ATOM     18  H21 <0> d           9.174   1.661   1.776  0.00  0.00     0.162 HD
BRANCH  17  19
ATOM     19  C20 <0> d           9.803   3.006   0.259  0.00  0.00     0.161 C 
BRANCH  19  20
ATOM     20  C21 <0> d          10.633   3.667   1.330  0.00  0.00    -0.038 A 
ATOM     21  C26 <0> d          11.929   3.244   1.557  0.00  0.00     0.048 A 
ATOM     22  C25 <0> d          12.697   3.854   2.538  0.00  0.00     0.102 A 
ATOM     23  C24 <0> d          12.156   4.885   3.297  0.00  0.00     0.102 A 
ATOM     24  O3  <0> d          13.971   3.426   2.751  0.00  0.00    -0.346 OA
ATOM     25  C23 <0> d          10.852   5.300   3.068  0.00  0.00     0.040 A 
ATOM     26  O4  <0> d          12.892   5.497   4.265  0.00  0.00    -0.346 OA
ATOM     27  C22 <0> d          10.094   4.691   2.087  0.00  0.00     0.012 A 
ATOM     28  C28 <0> d          14.060   4.806   4.719  0.00  0.00     0.202 C 
ATOM     29  C27 <0> d          14.829   4.303   3.489  0.00  0.00     0.202 C 
ENDBRANCH  19  20
ENDBRANCH  17  19
ENDBRANCH   5  15
BRANCH   1  30
ATOM     30  C9  <0> d           3.675  -1.890  -0.053  0.00  0.00     0.125 A 
ATOM     31  C8  <0> d           2.518  -2.682  -0.042  0.00  0.00     0.038 A 
ATOM     32  C7  <0> d           1.289  -2.087  -0.036  0.00  0.00     0.016 A 
ATOM     33  C5  <0> d           1.229  -0.681  -0.041  0.00  0.00    -0.007 A 
ATOM     34  C4  <0> d           2.438   0.062  -0.052  0.00  0.00     0.068 A 
ATOM     35  C6  <0> d          -0.001  -0.003  -0.035  0.00  0.00     0.014 A 
ATOM     36  C3  <0> d           2.376   1.469  -0.057  0.00  0.00     0.032 A 
ATOM     37  N1  <0> d           3.610  -0.572  -0.057  0.00  0.00    -0.243 NA
ATOM     38  C2  <0> d           1.167   2.091  -0.051  0.00  0.00     0.002 A 
ATOM     39  C1  <0> d          -0.019   1.358  -0.040  0.00  0.00     0.001 A 
ENDBRANCH   1  30
TORSDOF 4
