REMARK  4 active torsions:
REMARK  status: ('A' for Active; 'I' for Inactive)
REMARK    1  A    between atoms: N2_7  and  C6_10 
REMARK    2  A    between atoms: C6_10  and  C7_11 
REMARK       I    between atoms: C7_11  and  N3_13 
REMARK    3  A    between atoms: N4_16  and  C12_19 
REMARK    4  A    between atoms: C17_24  and  O4_25 
ROOT
ATOM      1  C7  <0> d           1.478  -2.958   2.898  0.00  0.00     0.238 C 
ATOM      2  O3  <0> d           2.391  -2.564   2.204  0.00  0.00    -0.272 OA
ATOM      3  N3  <0> d           1.738  -3.596   4.056  0.00  0.00    -0.348 N 
ATOM      4  C8  <0> d           0.641  -4.084   4.904  0.00  0.00     0.145 C 
ATOM      5  C9  <0> d           0.844  -5.584   5.153  0.00  0.00     0.143 C 
ATOM      6  N4  <0> d           2.230  -5.804   5.591  0.00  0.00    -0.376 N 
ATOM      7  C10 <0> d           3.326  -5.316   4.743  0.00  0.00     0.143 C 
ATOM      8  C11 <0> d           3.124  -3.821   4.491  0.00  0.00     0.145 C 
ENDROOT
BRANCH   1   9
ATOM      9  C6  <0> d           0.052  -2.735   2.465  0.00  0.00     0.236 C 
BRANCH   9  10
ATOM     10  N2  <0> d           0.036  -2.026   1.183  0.00  0.00    -0.301 N 
ATOM     11  C4  <0> d           0.040  -2.738   0.015  0.00  0.00     0.102 A 
ATOM     12  C3  <0> d           0.025  -2.085  -1.167  0.00  0.00     0.092 A 
ATOM     13  C2  <0> d           0.006  -0.669  -1.171  0.00  0.00     0.252 A 
ATOM     14  N1  <0> d           0.002  -0.004   0.002  0.00  0.00    -0.271 N 
ATOM     15  O1  <0> d          -0.008  -0.058  -2.224  0.00  0.00    -0.268 OA
ATOM     16  C1  <0> d          -0.018   1.461   0.010  0.00  0.00     0.164 C 
ATOM     17  C5  <0> d           0.022  -0.681   1.165  0.00  0.00     0.331 A 
ATOM     18  O2  <0> d           0.024  -0.067   2.215  0.00  0.00    -0.246 OA
ENDBRANCH   9  10
ENDBRANCH   1   9
BRANCH   6  19
ATOM     19  C12 <0> d           2.500  -6.466   6.794  0.00  0.00     0.063 A 
ATOM     20  C17 <0> d           2.618  -5.743   7.978  0.00  0.00     0.092 A 
ATOM     21  C16 <0> d           2.881  -6.404   9.166  0.00  0.00     0.039 A 
ATOM     22  C15 <0> d           3.036  -7.778   9.174  0.00  0.00     0.003 A 
ATOM     23  C14 <0> d           2.925  -8.496   7.998  0.00  0.00     0.002 A 
ATOM     24  C13 <0> d           2.657  -7.845   6.809  0.00  0.00     0.032 A 
BRANCH  20  25
ATOM     25  O4  <0> d           2.470  -4.391   7.969  0.00  0.00    -0.358 OA
ATOM     26  H20 <0> d           1.561  -4.093   8.109  0.00  0.00     0.217 HD
ENDBRANCH  20  25
ENDBRANCH   6  19
TORSDOF 4
