REMARK  3 active torsions:
REMARK  status: ('A' for Active; 'I' for Inactive)
REMARK    1  A    between atoms: C3_3  and  C10_12 
REMARK    2  A    between atoms: C11_14  and  C12_17 
REMARK    3  A    between atoms: C16_21  and  N5_23 
ROOT
ATOM      1  C10 <0> d          -0.016   1.304   0.009  0.00  0.00     0.192 A 
ATOM      2  N3  <0> d           1.267   1.724  -0.001  0.00  0.00    -0.199 NA
ATOM      3  C11 <0> d           1.998   0.626  -0.014  0.00  0.00     0.206 A 
ATOM      4  O1  <0> d           1.145  -0.410  -0.011  0.00  0.00    -0.190 OA
ATOM      5  N4  <0> d           0.002  -0.004   0.002  0.00  0.00    -0.105 NA
ENDROOT
BRANCH   1   6
ATOM      6  C3  <0> d          -1.224   2.167   0.020  0.00  0.00     0.045 A 
ATOM      7  C2  <0> d          -1.102   3.554   0.032  0.00  0.00     0.045 A 
ATOM      8  C1  <0> d           0.266   4.186   0.036  0.00  0.00     0.071 C 
ATOM      9  N1  <0> d          -2.175   4.319   0.035  0.00  0.00    -0.264 NA
ATOM     10  C6  <0> d          -3.392   3.811   0.039  0.00  0.00     0.126 A 
ATOM     11  C5  <0> d          -3.596   2.439   0.035  0.00  0.00    -0.008 A 
ATOM     12  C4  <0> d          -2.502   1.600   0.024  0.00  0.00    -0.031 A 
ATOM     13  C7  <0> d          -5.003   1.907   0.045  0.00  0.00     0.272 C 
ATOM     14  C9  <0> d          -2.647   0.103   0.012  0.00  0.00     0.068 C 
ATOM     15  C8  <0> d          -4.068  -0.284   0.428  0.00  0.00     0.237 C 
ATOM     16  N2  <0> d          -5.021   0.501  -0.373  0.00  0.00    -0.071 N 
ATOM     17  H7  <0> d          -6.031   0.089  -0.233  0.00  0.00     0.277 HD
ATOM     18  H18 <0> d          -4.740   0.430  -1.434  0.00  0.00     0.277 HD
ENDBRANCH   1   6
BRANCH   3  19
ATOM     19  C12 <0> d           3.474   0.551  -0.028  0.00  0.00     0.021 A 
ATOM     20  C17 <0> d           4.112  -0.689  -0.041  0.00  0.00     0.046 A 
ATOM     21  C16 <0> d           5.496  -0.752  -0.054  0.00  0.00     0.042 A 
ATOM     22  C15 <0> d           6.244   0.419  -0.055  0.00  0.00     0.030 A 
ATOM     23  C14 <0> d           5.613   1.649  -0.042  0.00  0.00     0.003 A 
ATOM     24  C13 <0> d           4.235   1.722  -0.034  0.00  0.00     0.016 A 
BRANCH  21  25
ATOM     25  N5  <0> d           6.142  -1.997  -0.067  0.00  0.00    -0.297 N 
ATOM     26  C19 <0> d           7.485  -2.226  -0.081  0.00  0.00     0.240 A 
ATOM     27  N7  <0> d           7.656  -3.520  -0.089  0.00  0.00    -0.144 NA
ATOM     28  N6  <0> d           6.515  -4.112  -0.081  0.00  0.00    -0.144 NA
ATOM     29  C18 <0> d           5.556  -3.227  -0.061  0.00  0.00     0.240 A 
ENDBRANCH  21  25
ENDBRANCH   3  19
TORSDOF 3
