REMARK  8 active torsions:
REMARK  status: ('A' for Active; 'I' for Inactive)
REMARK    1  A    between atoms: O1_2  and  C2_3 
REMARK    2  A    between atoms: C5_6  and  C8_9 
REMARK    3  A    between atoms: C8_9  and  N1_10 
REMARK    4  A    between atoms: C11_14  and  C12_15 
REMARK    5  A    between atoms: C13_16  and  N4_26 
REMARK    6  A    between atoms: N4_26  and  C20_27 
REMARK    7  A    between atoms: C20_27  and  C21_28 
REMARK    8  A    between atoms: C21_28  and  O4_29 
ROOT
ATOM      1  C12 <0> d           1.141   1.893   0.038  0.00  0.00     0.080 A 
ATOM      2  C13 <0> d           2.148   1.763  -0.948  0.00  0.00     0.141 A 
ATOM      3  N2  <0> d           3.216   2.545  -0.898  0.00  0.00    -0.212 NA
ATOM      4  C14 <0> d           3.376   3.451   0.067  0.00  0.00     0.139 A 
ATOM      5  C15 <0> d           4.533   4.250   0.072  0.00  0.00     0.051 A 
ATOM      6  C16 <0> d           4.705   5.179   1.054  0.00  0.00     0.005 A 
ATOM      7  C17 <0> d           3.726   5.325   2.046  0.00  0.00     0.018 A 
ATOM      8  C18 <0> d           2.620   4.548   2.027  0.00  0.00     0.102 A 
ATOM      9  N3  <0> d           2.438   3.617   1.048  0.00  0.00    -0.273 N 
ATOM     10  C19 <0> d           1.321   2.857   1.058  0.00  0.00     0.267 A 
ATOM     11  O3  <0> d           0.482   3.000   1.931  0.00  0.00    -0.267 OA
ENDROOT
BRANCH   1  12
ATOM     12  C11 <0> d          -0.013   1.076   0.008  0.00  0.00     0.045 C 
ATOM     13  C10 <0> d          -1.236   1.632  -0.229  0.00  0.00     0.077 A 
ATOM     14  C9  <0> d          -1.572   2.974  -0.565  0.00  0.00     0.266 A 
ATOM     15  S1  <0> d          -2.854   0.871  -0.210  0.00  0.00    -0.055 SA
ATOM     16  N1  <0> d          -2.847   3.271  -0.748  0.00  0.00    -0.294 N 
ATOM     17  O2  <0> d          -0.708   3.826  -0.680  0.00  0.00    -0.266 OA
ATOM     18  C22 <0> d          -3.805   2.326  -0.621  0.00  0.00     0.149 A 
ATOM     19  S2  <0> d          -5.499   2.483  -0.810  0.00  0.00    -0.052 SA
BRANCH  16  20
ATOM     20  C8  <0> d          -3.226   4.642  -1.095  0.00  0.00     0.172 C 
BRANCH  20  21
ATOM     21  C5  <0> d          -3.231   4.798  -2.594  0.00  0.00    -0.040 A 
ATOM     22  C4  <0> d          -4.386   4.543  -3.311  0.00  0.00     0.011 A 
ATOM     23  C3  <0> d          -4.393   4.685  -4.685  0.00  0.00     0.037 A 
ATOM     24  C2  <0> d          -3.240   5.085  -5.346  0.00  0.00     0.068 A 
ATOM     25  C7  <0> d          -2.083   5.340  -4.624  0.00  0.00     0.037 A 
ATOM     26  C6  <0> d          -2.083   5.202  -3.250  0.00  0.00     0.011 A 
BRANCH  24  27
ATOM     27  O1  <0> d          -3.244   5.225  -6.697  0.00  0.00    -0.356 OA
ATOM     28  C1  <0> d          -2.022   5.639  -7.311  0.00  0.00     0.210 C 
ENDBRANCH  24  27
ENDBRANCH  20  21
ENDBRANCH  16  20
ENDBRANCH   1  12
BRANCH   2  29
ATOM     29  N4  <0> d           2.016   0.832  -1.956  0.00  0.00    -0.372 N 
ATOM     30  H15 <0> d           1.126   0.188  -1.996  0.00  0.00     0.161 HD
BRANCH  29  31
ATOM     31  C20 <0> d           3.061   0.702  -2.974  0.00  0.00     0.147 C 
BRANCH  31  32
ATOM     32  C21 <0> d           2.671  -0.394  -3.968  0.00  0.00     0.183 C 
BRANCH  32  33
ATOM     33  O4  <0> d           1.497   0.004  -4.679  0.00  0.00    -0.399 OA
ATOM     34  H20 <0> d           1.065  -0.661  -5.442  0.00  0.00     0.209 HD
ENDBRANCH  32  33
ENDBRANCH  31  32
ENDBRANCH  29  31
ENDBRANCH   2  29
TORSDOF 8
