REMARK  7 active torsions:
REMARK  status: ('A' for Active; 'I' for Inactive)
REMARK       I    between atoms: C2_2  and  N1_4 
REMARK    1  A    between atoms: N1_4  and  C3_5 
REMARK    2  A    between atoms: C4_6  and  N4_14 
REMARK    3  A    between atoms: C5_8  and  O2_12 
REMARK    4  A    between atoms: N4_14  and  C9_15 
REMARK    5  A    between atoms: C10_16  and  O6_23 
REMARK    6  A    between atoms: C11_17  and  O5_22 
REMARK    7  A    between atoms: C12_18  and  O4_21 
ROOT
ATOM      1  C3  <0> d          -2.380   0.955  -0.073  0.00  0.00     0.076 C 
ATOM      2  C4  <0> d          -1.234   1.652  -0.002  0.00  0.00     0.154 C 
ATOM      3  N2  <0> d          -1.243   3.009   0.124  0.00  0.00    -0.189 NA
ATOM      4  C5  <0> d          -2.328   3.653   0.472  0.00  0.00     0.245 C 
ATOM      5  N3  <0> d          -3.485   2.947   0.717  0.00  0.00    -0.344 N 
ATOM      6  C6  <0> d          -3.698   1.693  -0.022  0.00  0.00     0.187 C 
ATOM      7  C7  <0> d          -4.475   3.432   1.682  0.00  0.00     0.153 C 
ENDROOT
BRANCH   2   8
ATOM      8  N4  <0> d          -0.011   0.973  -0.052  0.00  0.00    -0.344 N 
ATOM      9  H17 <0> d           0.005   0.003  -0.065  0.00  0.00     0.163 HD
BRANCH   8  10
ATOM     10  C9  <0> d           1.245   1.727  -0.091  0.00  0.00     0.253 C 
ATOM     11  O3  <0> d           1.825   1.754   1.214  0.00  0.00    -0.361 OA
ATOM     12  C13 <0> d           3.047   2.490   1.295  0.00  0.00     0.205 C 
ATOM     13  C12 <0> d           4.090   1.847   0.376  0.00  0.00     0.173 C 
ATOM     14  C11 <0> d           3.545   1.812  -1.055  0.00  0.00     0.181 C 
ATOM     15  C10 <0> d           2.215   1.053  -1.065  0.00  0.00     0.198 C 
BRANCH  13  16
ATOM     16  O4  <0> d           4.358   0.515   0.818  0.00  0.00    -0.391 OA
ATOM     17  H20 <0> d           4.702   0.462   1.720  0.00  0.00     0.210 HD
ENDBRANCH  13  16
BRANCH  14  18
ATOM     18  O5  <0> d           4.482   1.149  -1.907  0.00  0.00    -0.390 OA
ATOM     19  H21 <0> d           5.350   1.574  -1.942  0.00  0.00     0.210 HD
ENDBRANCH  14  18
BRANCH  15  20
ATOM     20  O6  <0> d           1.662   1.077  -2.383  0.00  0.00    -0.389 OA
ATOM     21  H22 <0> d           0.814   0.618  -2.462  0.00  0.00     0.210 HD
ENDBRANCH  15  20
ENDBRANCH   8  10
ENDBRANCH   2   8
BRANCH   1  22
ATOM     22  N1  <0> d          -2.354  -0.442  -0.194  0.00  0.00    -0.326 N 
ATOM     23  C2  <0> d          -3.500  -1.123  -0.395  0.00  0.00     0.218 C 
ATOM     24  C1  <0> d          -3.490  -2.630  -0.402  0.00  0.00     0.117 C 
ATOM     25  O1  <0> d          -4.540  -0.522  -0.572  0.00  0.00    -0.274 OA
ATOM     26  H8  <0> d          -1.511  -0.919  -0.133  0.00  0.00     0.168 HD
ENDBRANCH   1  22
BRANCH   4  27
ATOM     27  O2  <0> d          -2.311   4.998   0.597  0.00  0.00    -0.326 OA
ATOM     28  C8  <0> d          -1.073   5.659   0.327  0.00  0.00     0.213 C 
ENDBRANCH   4  27
TORSDOF 7
