REMARK  2 active torsions:
REMARK  status: ('A' for Active; 'I' for Inactive)
REMARK    1  A    between atoms: C2_2  and  C3_3 
REMARK    2  A    between atoms: C5_7  and  C6_9 
ROOT
ATOM      1  C6  <0> d          -4.539  -1.673  -1.492  0.00  0.00     0.083 C 
ATOM      2  C7  <0> d          -4.979  -0.507  -2.384  0.00  0.00     0.118 C 
ATOM      3  C8  <0> d          -5.845  -0.999  -3.511  0.00  0.00     0.224 C 
ATOM      4  O1  <0> d          -6.785  -0.322  -3.870  0.00  0.00    -0.273 OA
ATOM      5  N3  <0> d          -5.605  -2.171  -4.133  0.00  0.00    -0.312 N 
ATOM      6  C9  <0> d          -4.637  -3.026  -3.598  0.00  0.00     0.129 C 
ATOM      7  C10 <0> d          -4.126  -2.820  -2.376  0.00  0.00     0.021 C 
ATOM      8  C11 <0> d          -3.136  -3.913  -2.105  0.00  0.00     0.263 C 
ATOM      9  N4  <0> d          -1.814  -3.388  -1.758  0.00  0.00    -0.262 NA
ATOM     10  C12 <0> d          -0.742  -3.946  -2.234  0.00  0.00     0.029 C 
ATOM     11  C13 <0> d          -0.769  -5.043  -3.121  0.00  0.00     0.052 C 
ATOM     12  C14 <0> d          -1.937  -5.382  -3.733  0.00  0.00     0.029 C 
ATOM     13  N5  <0> d          -3.018  -4.596  -3.414  0.00  0.00    -0.265 N 
ATOM     14  N6  <0> d          -4.111  -4.174  -4.166  0.00  0.00    -0.281 N 
ATOM     15  C15 <0> d          -2.047  -6.546  -4.684  0.00  0.00     0.070 C 
ATOM     16  C16 <0> d           0.597  -3.394  -1.818  0.00  0.00     0.070 C 
ATOM     17  H11 <0> d          -6.095  -2.415  -4.934  0.00  0.00     0.170 HD
ATOM     18  H13 <0> d          -4.451  -4.614  -4.960  0.00  0.00     0.189 HD
ENDROOT
BRANCH   1  19
ATOM     19  C5  <0> d          -3.374  -1.247  -0.637  0.00  0.00     0.042 A 
ATOM     20  C4  <0> d          -3.327  -1.234   0.709  0.00  0.00     0.030 A 
ATOM     21  N1  <0> d          -2.117  -0.789   1.079  0.00  0.00    -0.348 N 
ATOM     22  C17 <0> d          -4.440  -1.647   1.637  0.00  0.00     0.070 C 
ATOM     23  C3  <0> d          -1.412  -0.526   0.013  0.00  0.00     0.081 A 
ATOM     24  H23 <0> d          -1.814  -0.681   1.994  0.00  0.00     0.167 HD
ATOM     25  N2  <0> d          -2.161  -0.792  -1.079  0.00  0.00    -0.347 N 
ATOM     26  H1  <0> d          -1.889  -0.684  -2.004  0.00  0.00     0.167 HD
BRANCH  23  27
ATOM     27  C2  <0> d           0.002  -0.004   0.002  0.00  0.00     0.072 C 
ATOM     28  C1  <0> d          -0.019   1.526   0.010  0.00  0.00     0.013 C 
ENDBRANCH  23  27
ENDBRANCH   1  19
TORSDOF 2
