REMARK  4 active torsions:
REMARK  status: ('A' for Active; 'I' for Inactive)
REMARK    1  A    between atoms: C7_7  and  C8_8 
REMARK    2  A    between atoms: C7_7  and  N5_30 
REMARK    3  A    between atoms: C9_10  and  N3_20 
REMARK    4  A    between atoms: C19_23  and  C21_25 
REMARK       I    between atoms: C21_25  and  N4_27 
ROOT
ATOM      1  C8  <0> d           2.555   3.898  -4.923  0.00  0.00     0.154 A 
ATOM      2  N1  <0> d           2.332   3.422  -3.711  0.00  0.00    -0.219 NA
ATOM      3  C9  <0> d           3.130   3.692  -2.690  0.00  0.00     0.121 A 
ATOM      4  C10 <0> d           4.271   4.513  -2.905  0.00  0.00     0.048 A 
ATOM      5  C11 <0> d           5.290   4.938  -1.931  0.00  0.00    -0.029 A 
ATOM      6  C12 <0> d           6.280   5.720  -2.391  0.00  0.00    -0.008 A 
ATOM      7  S1  <0> d           5.929   5.942  -4.120  0.00  0.00    -0.073 SA
ATOM      8  C13 <0> d           4.447   4.977  -4.221  0.00  0.00     0.114 A 
ATOM      9  N2  <0> d           3.598   4.663  -5.182  0.00  0.00    -0.224 NA
ATOM     10  C14 <0> d           7.262   6.088  -1.311  0.00  0.00     0.047 C 
ATOM     11  C15 <0> d           6.993   5.072  -0.180  0.00  0.00     0.010 C 
ATOM     12  C16 <0> d           5.518   4.703  -0.435  0.00  0.00     0.041 C 
ENDROOT
BRANCH   3  13
ATOM     13  N3  <0> d           2.861   3.180  -1.433  0.00  0.00    -0.263 NA
ATOM     14  C20 <0> d           1.575   3.678  -0.926  0.00  0.00     0.140 C 
ATOM     15  C19 <0> d           1.352   3.152   0.494  0.00  0.00     0.290 C 
ATOM     16  N6  <0> d           1.368   1.677   0.483  0.00  0.00    -0.060 N 
ATOM     17  C18 <0> d           2.662   1.185  -0.028  0.00  0.00     0.248 C 
ATOM     18  H31 <0> d           1.226   1.329   1.438  0.00  0.00     0.278 HD
ATOM     19  H32 <0> d           0.613   1.335  -0.122  0.00  0.00     0.278 HD
ATOM     20  C17 <0> d           2.885   1.710  -1.448  0.00  0.00     0.124 C 
BRANCH  15  21
ATOM     21  C21 <0> d           0.016   3.629   1.003  0.00  0.00     0.247 C 
ATOM     22  O1  <0> d          -0.942   2.885   0.979  0.00  0.00    -0.271 OA
ATOM     23  N4  <0> d          -0.116   4.883   1.479  0.00  0.00    -0.368 N 
ATOM     24  H28 <0> d          -0.977   5.191   1.802  0.00  0.00     0.159 HD
ATOM     25  H29 <0> d           0.650   5.477   1.498  0.00  0.00     0.159 HD
ENDBRANCH  15  21
ENDBRANCH   3  13
BRANCH   1  26
ATOM     26  C7  <0> d           1.600   3.554  -6.036  0.00  0.00     0.315 C 
BRANCH  26  27
ATOM     27  N5  <0> d           2.066   2.325  -6.710  0.00  0.00    -0.064 N 
ATOM     28  C4  <0> d           1.017   1.821  -7.623  0.00  0.00     0.235 C 
ATOM     29  C3  <0> d           1.566   0.619  -8.395  0.00  0.00     0.032 C 
ATOM     30  C2  <0> d           1.960  -0.480  -7.406  0.00  0.00    -0.015 C 
ATOM     31  C1  <0> d           2.566  -1.661  -8.168  0.00  0.00     0.010 C 
ATOM     32  C6  <0> d           2.992   0.076  -6.420  0.00  0.00     0.032 C 
ATOM     33  C5  <0> d           2.402   1.294  -5.705  0.00  0.00     0.235 C 
ATOM     34  H30 <0> d           2.907   2.543  -7.258  0.00  0.00     0.280 HD
ENDBRANCH  26  27
ENDBRANCH   1  26
TORSDOF 4
