REMARK  7 active torsions:
REMARK  status: ('A' for Active; 'I' for Inactive)
REMARK    1  A    between atoms: C2_2  and  C4_4 
REMARK    2  A    between atoms: C4_4  and  C5_5 
REMARK    3  A    between atoms: C4_4  and  N3_20 
REMARK       I    between atoms: C5_5  and  N1_7 
REMARK    4  A    between atoms: N1_7  and  C6_8 
REMARK    5  A    between atoms: C9_11  and  C12_14 
REMARK    6  A    between atoms: C12_14  and  N2_15 
REMARK    7  A    between atoms: N3_20  and  C17_21 
ROOT
ATOM      1  C4  <0> d          -0.844  -0.429  -0.231  0.00  0.00     0.179 C 
ENDROOT
BRANCH   1   2
ATOM      2  C2  <0> d           0.529   0.244  -0.181  0.00  0.00     0.009 C 
ATOM      3  C1  <0> d           1.156   0.024   1.197  0.00  0.00     0.012 C 
ATOM      4  C3  <0> d           1.433  -0.361  -1.256  0.00  0.00     0.012 C 
ENDBRANCH   1   2
BRANCH   1   5
ATOM      5  C5  <0> d          -1.526  -0.086  -1.530  0.00  0.00     0.245 C 
ATOM      6  O1  <0> d          -1.465  -0.851  -2.468  0.00  0.00    -0.271 OA
ATOM      7  N1  <0> d          -2.204   1.073  -1.649  0.00  0.00    -0.325 N 
ATOM      8  H9  <0> d          -2.318   1.650  -0.877  0.00  0.00     0.169 HD
BRANCH   7   9
ATOM      9  C6  <0> d          -2.743   1.445  -2.886  0.00  0.00     0.034 A 
ATOM     10  C11 <0> d          -2.782   2.783  -3.254  0.00  0.00     0.030 A 
ATOM     11  C10 <0> d          -3.308   3.146  -4.478  0.00  0.00     0.011 A 
ATOM     12  C9  <0> d          -3.808   2.179  -5.331  0.00  0.00    -0.032 A 
ATOM     13  C8  <0> d          -3.776   0.846  -4.965  0.00  0.00     0.011 A 
ATOM     14  C7  <0> d          -3.245   0.476  -3.745  0.00  0.00     0.030 A 
BRANCH  12  15
ATOM     15  C12 <0> d          -4.388   2.579  -6.663  0.00  0.00     0.273 C 
BRANCH  15  16
ATOM     16  N2  <0> d          -5.826   2.839  -6.513  0.00  0.00    -0.067 N 
ATOM     17  C16 <0> d          -6.435   3.116  -7.832  0.00  0.00     0.235 C 
ATOM     18  C15 <0> d          -7.527   4.180  -7.611  0.00  0.00     0.029 C 
ATOM     19  C14 <0> d          -7.473   4.506  -6.101  0.00  0.00     0.029 C 
ATOM     20  C13 <0> d          -6.043   4.064  -5.702  0.00  0.00     0.235 C 
ATOM     21  H29 <0> d          -6.280   2.049  -6.079  0.00  0.00     0.280 HD
ENDBRANCH  15  16
ENDBRANCH  12  15
ENDBRANCH   7   9
ENDBRANCH   1   5
BRANCH   1  22
ATOM     22  N3  <0> d          -0.679  -1.882  -0.135  0.00  0.00    -0.360 N 
ATOM     23  H24 <0> d          -0.643  -2.420  -0.942  0.00  0.00     0.162 HD
BRANCH  22  24
ATOM     24  C17 <0> d          -0.575  -2.484   1.100  0.00  0.00     0.149 A 
ATOM     25  C19 <0> d          -0.408  -3.942   1.205  0.00  0.00     0.034 A 
ATOM     26  C18 <0> d          -0.317  -4.368   2.537  0.00  0.00     0.095 A 
ATOM     27  C20 <0> d          -0.328  -4.924   0.206  0.00  0.00     0.017 A 
ATOM     28  S1  <0> d          -0.467  -2.856   3.447  0.00  0.00     0.286 S 
ATOM     29  C23 <0> d          -0.155  -5.681   2.870  0.00  0.00     0.026 A 
ATOM     30  N4  <0> d          -0.627  -1.773   2.181  0.00  0.00    -0.141 NA
ATOM     31  O2  <0> d           0.782  -2.603   4.077  0.00  0.00    -0.198 OA
ATOM     32  O3  <0> d          -1.704  -2.891   4.146  0.00  0.00    -0.198 OA
ATOM     33  C22 <0> d          -0.087  -6.640   1.869  0.00  0.00     0.002 A 
ATOM     34  C21 <0> d          -0.170  -6.249   0.545  0.00  0.00     0.001 A 
ENDBRANCH  22  24
ENDBRANCH   1  22
TORSDOF 7
