REMARK  11 active torsions:
REMARK  status: ('A' for Active; 'I' for Inactive)
REMARK    1  A    between atoms: O1_2  and  C2_3 
REMARK    2  A    between atoms: C5_6  and  O2_18 
REMARK    3  A    between atoms: C6_7  and  C8_9 
REMARK    4  A    between atoms: C8_9  and  N1_31 
REMARK    5  A    between atoms: C9_10  and  N1_31 
REMARK    6  A    between atoms: O2_18  and  C17_19 
REMARK    7  A    between atoms: C17_19  and  C18_20 
REMARK    8  A    between atoms: C18_20  and  C19_21 
REMARK    9  A    between atoms: C18_20  and  O4_28 
REMARK   10  A    between atoms: C19_21  and  N2_34 
REMARK   11  A    between atoms: C22_24  and  O3_27 
ROOT
ATOM      1  C2  <0> d           4.385  10.119   1.241  0.00  0.00     0.069 A 
ATOM      2  C3  <0> d           3.182   9.582   0.805  0.00  0.00     0.039 A 
ATOM      3  C4  <0> d           3.051   8.216   0.649  0.00  0.00     0.040 A 
ATOM      4  C5  <0> d           4.120   7.380   0.938  0.00  0.00     0.076 A 
ATOM      5  C6  <0> d           5.322   7.916   1.374  0.00  0.00     0.003 A 
ATOM      6  C7  <0> d           5.454   9.283   1.525  0.00  0.00     0.048 A 
ENDROOT
BRANCH   4   7
ATOM      7  O2  <0> d           3.989   6.034   0.789  0.00  0.00    -0.348 OA
BRANCH   7   8
ATOM      8  C17 <0> d           2.723   5.551   0.337  0.00  0.00     0.209 C 
BRANCH   8   9
ATOM      9  C18 <0> d           2.767   4.025   0.232  0.00  0.00     0.168 C 
BRANCH   9  10
ATOM     10  C19 <0> d           1.378   3.499  -0.132  0.00  0.00     0.268 C 
BRANCH  10  11
ATOM     11  N2  <0> d           1.444   2.031  -0.286  0.00  0.00    -0.068 N 
ATOM     12  C20 <0> d           0.091   1.486  -0.523  0.00  0.00     0.237 C 
ATOM     13  C21 <0> d           0.201  -0.016  -0.797  0.00  0.00     0.059 C 
ATOM     14  C22 <0> d           0.830  -0.706   0.416  0.00  0.00     0.121 C 
ATOM     15  C23 <0> d           2.200  -0.082   0.695  0.00  0.00     0.059 C 
ATOM     16  C24 <0> d           2.032   1.422   0.926  0.00  0.00     0.237 C 
ATOM     17  H42 <0> d           2.039   1.807  -1.093  0.00  0.00     0.280 HD
BRANCH  14  18
ATOM     18  O3  <0> d           0.988  -2.100   0.143  0.00  0.00    -0.395 OA
ATOM     19  H38 <0> d           1.382  -2.601   0.871  0.00  0.00     0.210 HD
ENDBRANCH  14  18
ENDBRANCH  10  11
ENDBRANCH   9  10
BRANCH   9  20
ATOM     20  O4  <0> d           3.701   3.645  -0.781  0.00  0.00    -0.392 OA
ATOM     21  H39 <0> d           3.487   3.986  -1.661  0.00  0.00     0.210 HD
ENDBRANCH   9  20
ENDBRANCH   8   9
ENDBRANCH   7   8
ENDBRANCH   4   7
BRANCH   5  22
ATOM     22  C8  <0> d           6.484   7.008   1.683  0.00  0.00     0.274 C 
BRANCH  22  23
ATOM     23  N1  <0> d           7.148   6.626   0.422  0.00  0.00    -0.067 N 
ATOM     24  H40 <0> d           7.483   7.472  -0.054  0.00  0.00     0.277 HD
ATOM     25  H41 <0> d           6.475   6.139  -0.181  0.00  0.00     0.277 HD
BRANCH  23  26
ATOM     26  C9  <0> d           8.292   5.736   0.694  0.00  0.00     0.186 C 
ATOM     27  C16 <0> d           8.567   4.879  -0.543  0.00  0.00     0.033 C 
ATOM     28  C15 <0> d           9.466   3.702  -0.159  0.00  0.00     0.002 C 
ATOM     29  C14 <0> d           8.972   3.090   1.154  0.00  0.00     0.000 C 
ATOM     30  C13 <0> d          10.010   3.331   2.252  0.00  0.00     0.000 C 
ATOM     31  C12 <0> d           9.933   4.787   2.715  0.00  0.00     0.000 C 
ATOM     32  C11 <0> d          10.591   5.691   1.670  0.00  0.00     0.002 C 
ATOM     33  C10 <0> d           9.528   6.577   1.018  0.00  0.00     0.033 C 
ENDBRANCH  23  26
ENDBRANCH  22  23
ENDBRANCH   5  22
BRANCH   1  34
ATOM     34  O1  <0> d           4.515  11.464   1.389  0.00  0.00    -0.356 OA
ATOM     35  C1  <0> d           3.372  12.264   1.079  0.00  0.00     0.210 C 
ENDBRANCH   1  34
TORSDOF 11
