REMARK  7 active torsions:
REMARK  status: ('A' for Active; 'I' for Inactive)
REMARK    1  A    between atoms: N1_2  and  C3_4 
REMARK    2  A    between atoms: C3_4  and  C4_5 
REMARK    3  A    between atoms: N2_8  and  C9_11 
REMARK    4  A    between atoms: C9_11  and  C10_12 
REMARK    5  A    between atoms: C10_12  and  C11_13 
REMARK    6  A    between atoms: C10_12  and  O1_20 
REMARK    7  A    between atoms: C16_18  and  N3_19 
ROOT
ATOM      1  C9  <0> d           5.971   1.341  -2.210  0.00  0.00     0.271 C 
ENDROOT
BRANCH   1   2
ATOM      2  N2  <0> d           4.547   0.977  -2.199  0.00  0.00    -0.068 N 
ATOM      3  C6  <0> d           3.904   1.557  -1.014  0.00  0.00     0.235 C 
ATOM      4  C5  <0> d           2.406   1.250  -1.040  0.00  0.00     0.034 C 
ATOM      5  C4  <0> d           2.201  -0.268  -1.043  0.00  0.00     0.014 C 
ATOM      6  C8  <0> d           2.938  -0.870  -2.242  0.00  0.00     0.034 C 
ATOM      7  C7  <0> d           4.417  -0.484  -2.172  0.00  0.00     0.235 C 
ATOM      8  H29 <0> d           4.104   1.338  -3.031  0.00  0.00     0.280 HD
BRANCH   5   9
ATOM      9  C3  <0> d           0.708  -0.583  -1.149  0.00  0.00     0.238 C 
BRANCH   9  10
ATOM     10  N1  <0> d           0.022  -0.120   0.065  0.00  0.00    -0.078 N 
ATOM     11  C1  <0> d          -1.428  -0.292  -0.096  0.00  0.00     0.269 C 
ATOM     12  C2  <0> d           0.484  -0.905   1.217  0.00  0.00     0.269 C 
ATOM     13  H28 <0> d           0.230   0.856   0.217  0.00  0.00     0.278 HD
ENDBRANCH   9  10
ENDBRANCH   5   9
ENDBRANCH   1   2
BRANCH   1  14
ATOM     14  C10 <0> d           6.614   0.844  -3.506  0.00  0.00     0.179 C 
BRANCH  14  15
ATOM     15  C11 <0> d           8.098   1.107  -3.463  0.00  0.00    -0.002 A 
ATOM     16  C16 <0> d           8.948   0.197  -2.848  0.00  0.00     0.034 A 
ATOM     17  C15 <0> d          10.315   0.441  -2.816  0.00  0.00     0.029 A 
ATOM     18  C14 <0> d          10.823   1.592  -3.385  0.00  0.00     0.002 A 
ATOM     19  C13 <0> d           9.973   2.499  -3.991  0.00  0.00     0.001 A 
ATOM     20  C12 <0> d           8.612   2.256  -4.030  0.00  0.00     0.012 A 
BRANCH  16  21
ATOM     21  N3  <0> d           8.430  -0.964  -2.269  0.00  0.00    -0.399 N 
ATOM     22  H25 <0> d           7.476  -1.135  -2.296  0.00  0.00     0.156 HD
ATOM     23  H26 <0> d           9.025  -1.599  -1.840  0.00  0.00     0.156 HD
ENDBRANCH  16  21
ENDBRANCH  14  15
BRANCH  14  24
ATOM     24  O1  <0> d           6.040   1.533  -4.618  0.00  0.00    -0.389 OA
ATOM     25  H27 <0> d           6.159   2.492  -4.590  0.00  0.00     0.210 HD
ENDBRANCH  14  24
ENDBRANCH   1  14
TORSDOF 7
