REMARK  6 active torsions:
REMARK  status: ('A' for Active; 'I' for Inactive)
REMARK    1  A    between atoms: C2_2  and  N1_3 
REMARK    2  A    between atoms: N1_3  and  C3_4 
REMARK    3  A    between atoms: N1_3  and  C5_6 
REMARK    4  A    between atoms: C5_6  and  C6_7 
REMARK    5  A    between atoms: C6_7  and  N2_8 
REMARK    6  A    between atoms: N2_8  and  C7_9 
ROOT
ATOM      1  C7  <0> d           2.021  -4.702  -3.683  0.00  0.00     0.042 A 
ATOM      2  C8  <0> d           2.827  -4.031  -4.588  0.00  0.00     0.054 A 
ATOM      3  C9  <0> d           3.487  -4.743  -5.580  0.00  0.00     0.007 A 
ATOM      4  N3  <0> d           3.372  -6.046  -5.691  0.00  0.00    -0.358 N 
ATOM      5  C10 <0> d           2.611  -6.758  -4.852  0.00  0.00     0.062 A 
ATOM      6  C11 <0> d           1.910  -6.107  -3.809  0.00  0.00     0.018 A 
ATOM      7  C12 <0> d           1.119  -6.859  -2.929  0.00  0.00     0.016 A 
ATOM      8  C13 <0> d           1.037  -8.210  -3.083  0.00  0.00     0.002 A 
ATOM      9  C14 <0> d           1.730  -8.855  -4.104  0.00  0.00     0.021 A 
ATOM     10  C15 <0> d           2.497  -8.153  -4.984  0.00  0.00     0.038 A 
ATOM     11 Br1  <0> d           3.427  -9.055  -6.362  0.00  0.00    -0.049 Br
ATOM     12  C16 <0> d           4.360  -3.999  -6.558  0.00  0.00     0.068 C 
ATOM     13  H24 <0> d           3.851  -6.504  -6.399  0.00  0.00     0.166 HD
ENDROOT
BRANCH   1  14
ATOM     14  N2  <0> d           1.349  -4.018  -2.680  0.00  0.00    -0.388 N 
ATOM     15  H15 <0> d           0.792  -4.504  -2.052  0.00  0.00     0.159 HD
BRANCH  14  16
ATOM     16  C6  <0> d           1.480  -2.563  -2.571  0.00  0.00     0.147 C 
BRANCH  16  17
ATOM     17  C5  <0> d           0.644  -2.063  -1.391  0.00  0.00     0.254 C 
BRANCH  17  18
ATOM     18  N1  <0> d           0.871  -0.624  -1.206  0.00  0.00    -0.070 N 
ATOM     19  H23 <0> d           1.859  -0.450  -1.103  0.00  0.00     0.279 HD
BRANCH  18  20
ATOM     20  C2  <0> d           0.364   0.107  -2.375  0.00  0.00     0.230 C 
ATOM     21  C1  <0> d           0.712   1.591  -2.240  0.00  0.00     0.034 C 
ENDBRANCH  18  20
BRANCH  18  22
ATOM     22  C3  <0> d           0.165  -0.168  -0.001  0.00  0.00     0.230 C 
ATOM     23  C4  <0> d           0.798  -0.811   1.235  0.00  0.00     0.034 C 
ENDBRANCH  18  22
ENDBRANCH  17  18
ENDBRANCH  16  17
ENDBRANCH  14  16
ENDBRANCH   1  14
TORSDOF 6
