REMARK  4 active torsions:
REMARK  status: ('A' for Active; 'I' for Inactive)
REMARK    1  A    between atoms: C4_5  and  C7_8 
REMARK    2  A    between atoms: C7_8  and  N2_9 
REMARK       I    between atoms: N2_9  and  C8_10 
REMARK    3  A    between atoms: C8_10  and  C9_12 
REMARK    4  A    between atoms: C9_12  and  C10_13 
ROOT
ATOM      1  N2  <0> d           1.995  -4.653   1.081  0.00  0.00    -0.361 N 
ATOM      2  C8  <0> d           2.041  -5.986   1.274  0.00  0.00     0.219 C 
ATOM      3  O1  <0> d           1.444  -6.729   0.524  0.00  0.00    -0.274 OA
ATOM      4  H16 <0> d           2.473  -4.059   1.680  0.00  0.00     0.162 HD
ENDROOT
BRANCH   2   5
ATOM      5  C9  <0> d           2.836  -6.554   2.422  0.00  0.00     0.128 C 
BRANCH   5   6
ATOM      6  C10 <0> d           2.723  -8.079   2.415  0.00  0.00     0.153 C 
ATOM      7  S1  <0> d           1.002  -8.566   2.750  0.00  0.00    -0.113 SA
ATOM      8  C17 <0> d           0.865  -8.282   4.494  0.00  0.00     0.028 A 
ATOM      9  C12 <0> d           1.997  -8.407   5.298  0.00  0.00     0.051 A 
ATOM     10  C16 <0> d          -0.360  -7.948   5.048  0.00  0.00     0.021 A 
ATOM     11  N3  <0> d           3.244  -8.728   4.769  0.00  0.00    -0.325 N 
ATOM     12  C13 <0> d           1.875  -8.201   6.669  0.00  0.00     0.031 A 
ATOM     13  C11 <0> d           3.605  -8.657   3.492  0.00  0.00     0.236 C 
ATOM     14  H19 <0> d           3.917  -9.034   5.396  0.00  0.00     0.169 HD
ATOM     15  O2  <0> d           4.698  -9.078   3.177  0.00  0.00    -0.272 OA
ATOM     16  C14 <0> d           0.651  -7.872   7.217  0.00  0.00     0.002 A 
ATOM     17  C15 <0> d          -0.466  -7.743   6.412  0.00  0.00     0.002 A 
ENDBRANCH   5   6
ENDBRANCH   2   5
BRANCH   1  18
ATOM     18  C7  <0> d           1.223  -4.101  -0.035  0.00  0.00     0.127 C 
BRANCH  18  19
ATOM     19  C4  <0> d           1.336  -2.575  -0.029  0.00  0.00     0.006 C 
ATOM     20  C3  <0> d           0.634  -2.005  -1.264  0.00  0.00     0.034 C 
ATOM     21  C2  <0> d           0.681  -0.476  -1.210  0.00  0.00     0.234 C 
ATOM     22  N1  <0> d           0.002  -0.004   0.002  0.00  0.00    -0.075 N 
ATOM     23  C1  <0> d          -0.018   1.465   0.010  0.00  0.00     0.269 C 
ATOM     24  C6  <0> d           0.712  -0.489   1.192  0.00  0.00     0.234 C 
ATOM     25  H24 <0> d          -0.945  -0.352   0.012  0.00  0.00     0.279 HD
ATOM     26  C5  <0> d           0.666  -2.018   1.230  0.00  0.00     0.034 C 
ENDBRANCH  18  19
ENDBRANCH   1  18
TORSDOF 4
