REMARK  6 active torsions:
REMARK  status: ('A' for Active; 'I' for Inactive)
REMARK       I    between atoms: N1_2  and  C2_3 
REMARK    1  A    between atoms: C2_3  and  C3_5 
REMARK    2  A    between atoms: C6_8  and  C9_11 
REMARK    3  A    between atoms: C9_11  and  N2_12 
REMARK    4  A    between atoms: N3_20  and  C16_23 
REMARK    5  A    between atoms: C16_23  and  C17_24 
REMARK       I    between atoms: C17_24  and  N4_26 
REMARK    6  A    between atoms: N4_26  and  C18_27 
ROOT
ATOM      1  N2  <0> d           3.913  -1.144  -0.035  0.00  0.00    -0.265 N 
ATOM      2  C10 <0> d           2.575  -1.337  -0.032  0.00  0.00     0.271 A 
ATOM      3  O2  <0> d           2.112  -2.464  -0.034  0.00  0.00    -0.266 OA
ATOM      4  C11 <0> d           1.729  -0.223  -0.026  0.00  0.00     0.100 A 
ATOM      5  C12 <0> d           2.235   1.080  -0.024  0.00  0.00     0.062 A 
ATOM      6  C13 <0> d           1.270   2.082  -0.019  0.00  0.00     0.038 A 
ATOM      7  C14 <0> d          -0.043   1.756  -0.016  0.00  0.00     0.053 A 
ATOM      8  S1  <0> d          -0.027   0.022  -0.021  0.00  0.00    -0.094 SA
ATOM      9  N3  <0> d           3.635   1.195  -0.029  0.00  0.00    -0.289 N 
ATOM     10  C15 <0> d           4.414   0.103  -0.033  0.00  0.00     0.332 A 
ATOM     11  O3  <0> d           5.621   0.247  -0.037  0.00  0.00    -0.246 OA
ENDROOT
BRANCH   1  12
ATOM     12  C9  <0> d           4.818  -2.296  -0.041  0.00  0.00     0.142 C 
BRANCH  12  13
ATOM     13  C6  <0> d           5.129  -2.693  -1.485  0.00  0.00     0.004 C 
ATOM     14  C5  <0> d           6.170  -3.814  -1.493  0.00  0.00     0.007 C 
ATOM     15  C4  <0> d           6.481  -4.212  -2.937  0.00  0.00     0.014 C 
ATOM     16  C3  <0> d           5.201  -4.699  -3.619  0.00  0.00     0.078 C 
ATOM     17  C8  <0> d           4.160  -3.578  -3.611  0.00  0.00     0.014 C 
ATOM     18  C7  <0> d           3.849  -3.181  -2.167  0.00  0.00     0.007 C 
BRANCH  16  19
ATOM     19  C2  <0> d           5.507  -5.090  -5.042  0.00  0.00     0.221 C 
ATOM     20  N1  <0> d           4.525  -5.553  -5.840  0.00  0.00    -0.365 N 
ATOM     21  C1  <0> d           4.823  -5.933  -7.223  0.00  0.00     0.149 C 
ATOM     22  H4  <0> d           3.499  -5.644  -5.453  0.00  0.00     0.161 HD
ATOM     23  O1  <0> d           6.638  -4.989  -5.468  0.00  0.00    -0.273 OA
ENDBRANCH  16  19
ENDBRANCH  12  13
ENDBRANCH   1  12
BRANCH   9  24
ATOM     24  C16 <0> d           4.252   2.524  -0.027  0.00  0.00     0.237 C 
BRANCH  24  25
ATOM     25  C17 <0> d           4.460   2.983  -1.448  0.00  0.00     0.240 C 
ATOM     26  O4  <0> d           4.125   2.270  -2.370  0.00  0.00    -0.271 OA
ATOM     27  N4  <0> d           5.017   4.185  -1.692  0.00  0.00    -0.323 N 
ATOM     28  H21 <0> d           5.253   4.862  -0.858  0.00  0.00     0.169 HD
BRANCH  27  29
ATOM     29  C18 <0> d           5.296   4.573  -3.009  0.00  0.00     0.073 A 
ATOM     30  C23 <0> d           6.419   5.344  -3.286  0.00  0.00     0.143 A 
ATOM     31  C22 <0> d           6.691   5.725  -4.587  0.00  0.00     0.044 A 
ATOM     32  F1  <0> d           7.244   5.721  -2.284  0.00  0.00    -0.204 F 
ATOM     33  C21 <0> d           5.846   5.338  -5.612  0.00  0.00     0.003 A 
ATOM     34  C20 <0> d           4.729   4.571  -5.339  0.00  0.00     0.002 A 
ATOM     35  C19 <0> d           4.454   4.183  -4.042  0.00  0.00     0.033 A 
ENDBRANCH  27  29
ENDBRANCH  24  25
ENDBRANCH   9  24
TORSDOF 6
