REMARK  4 active torsions:
REMARK  status: ('A' for Active; 'I' for Inactive)
REMARK    1  A    between atoms: C5_6  and  C6_8 
REMARK       I    between atoms: C6_8  and  N3_10 
REMARK    2  A    between atoms: N3_10  and  N4_11 
REMARK       I    between atoms: N4_11  and  C7_12 
REMARK    3  A    between atoms: C7_12  and  C8_14 
REMARK    4  A    between atoms: C8_14  and  C9_15 
ROOT
ATOM      1  N4  <0> d           0.061  -2.695   4.858  0.00  0.00    -0.267 N 
ATOM      2  C7  <0> d           0.057  -2.004   6.015  0.00  0.00     0.240 C 
ATOM      3  O2  <0> d           0.041  -0.791   5.997  0.00  0.00    -0.272 OA
ATOM      4  H7  <0> d           0.074  -3.664   4.872  0.00  0.00     0.190 HD
ENDROOT
BRANCH   1   5
ATOM      5  N3  <0> d           0.046  -2.012   3.634  0.00  0.00    -0.262 N 
ATOM      6  C6  <0> d           0.050  -2.703   2.477  0.00  0.00     0.288 C 
ATOM      7  O1  <0> d           0.066  -3.917   2.495  0.00  0.00    -0.264 OA
ATOM      8  H6  <0> d           0.033  -1.042   3.620  0.00  0.00     0.190 HD
BRANCH   6   9
ATOM      9  C5  <0> d           0.035  -1.979   1.181  0.00  0.00     0.129 A 
ATOM     10  C4  <0> d           0.038  -2.683  -0.024  0.00  0.00     0.057 A 
ATOM     11  C3  <0> d           0.023  -1.959  -1.208  0.00  0.00     0.121 A 
ATOM     12  N1  <0> d           0.005  -0.638  -1.155  0.00  0.00    -0.246 NA
ATOM     13  C2  <0> d           0.002  -0.004   0.002  0.00  0.00     0.122 A 
ATOM     14  C1  <0> d          -0.018   1.503   0.010  0.00  0.00     0.093 C 
ATOM     15  N2  <0> d           0.022  -0.649   1.149  0.00  0.00    -0.228 NA
ENDBRANCH   6   9
ENDBRANCH   1   5
BRANCH   2  16
ATOM     16  C8  <0> d           0.073  -2.738   7.331  0.00  0.00     0.141 C 
BRANCH  16  17
ATOM     17  C9  <0> d           0.065  -1.742   8.462  0.00  0.00    -0.041 A 
ATOM     18  C16 <0> d           1.263  -1.047   9.069  0.00  0.00     0.155 A 
ATOM     19  N5  <0> d           0.731  -0.181  10.128  0.00  0.00    -0.385 N 
ATOM     20  C15 <0> d          -0.571  -0.326  10.171  0.00  0.00     0.038 A 
ATOM     21  H16 <0> d           1.256   0.398  10.702  0.00  0.00     0.160 HD
ATOM     22  C10 <0> d          -1.014  -1.294   9.143  0.00  0.00    -0.005 A 
ATOM     23  C14 <0> d          -1.563   0.267  11.001  0.00  0.00     0.030 A 
ATOM     24  C11 <0> d          -2.449  -1.587   9.038  0.00  0.00     0.014 A 
ATOM     25  C12 <0> d          -3.308  -0.967   9.878  0.00  0.00     0.001 A 
ATOM     26  C13 <0> d          -2.865  -0.054  10.844  0.00  0.00     0.002 A 
ENDBRANCH  16  17
ENDBRANCH   2  16
TORSDOF 4
