REMARK  4 active torsions:
REMARK  status: ('A' for Active; 'I' for Inactive)
REMARK    1  A    between atoms: C2_2  and  C3_3 
REMARK    2  A    between atoms: C3_3  and  N1_4 
REMARK    3  A    between atoms: C5_7  and  C16_21 
REMARK       I    between atoms: C16_21  and  N5_23 
REMARK    4  A    between atoms: N5_23  and  C17_24 
ROOT
ATOM      1  N1  <0> d          -4.824   0.018   0.069  0.00  0.00    -0.316 N 
ATOM      2  C4  <0> d          -5.978  -0.734   0.064  0.00  0.00     0.118 A 
ATOM      3  N2  <0> d          -7.147  -0.145   0.065  0.00  0.00    -0.384 N 
ATOM      4  C5  <0> d          -5.891  -2.203   0.056  0.00  0.00     0.076 A 
ATOM      5  C6  <0> d          -4.640  -2.804   0.054  0.00  0.00     0.042 A 
ATOM      6  C7  <0> d          -3.490  -2.001   0.060  0.00  0.00     0.080 A 
ATOM      7  C8  <0> d          -3.593  -0.591   0.068  0.00  0.00     0.149 A 
ATOM      8  N3  <0> d          -2.486   0.140   0.073  0.00  0.00    -0.211 NA
ATOM      9  C9  <0> d          -1.277  -0.420   0.071  0.00  0.00     0.145 A 
ATOM     10  C10 <0> d          -0.140   0.409   0.077  0.00  0.00    -0.015 A 
ATOM     11  C11 <0> d           1.102  -0.152   0.081  0.00  0.00     0.012 A 
ATOM     12  C12 <0> d           1.231  -1.547   0.074  0.00  0.00     0.018 A 
ATOM     13  C13 <0> d           0.128  -2.329   0.063  0.00  0.00     0.102 A 
ATOM     14  N4  <0> d          -1.118  -1.778   0.058  0.00  0.00    -0.272 N 
ATOM     15  C14 <0> d          -2.199  -2.590   0.047  0.00  0.00     0.267 A 
ATOM     16  O1  <0> d          -2.067  -3.800   0.041  0.00  0.00    -0.267 OA
ATOM     17  C15 <0> d          -0.295   1.908   0.085  0.00  0.00     0.052 C 
ATOM     18  H8  <0> d          -8.067  -0.748   0.061  0.00  0.00     0.157 HD
ATOM     19  H28 <0> d          -7.210   0.954   0.070  0.00  0.00     0.157 HD
ENDROOT
BRANCH   4  20
ATOM     20  C16 <0> d          -7.110  -3.020   0.049  0.00  0.00     0.255 C 
ATOM     21  O2  <0> d          -8.200  -2.489   0.156  0.00  0.00    -0.268 OA
ATOM     22  N5  <0> d          -7.022  -4.359  -0.076  0.00  0.00    -0.352 N 
ATOM     23  H16 <0> d          -6.037  -4.839  -0.173  0.00  0.00     0.163 HD
BRANCH  22  24
ATOM     24  C17 <0> d          -8.238  -5.176  -0.083  0.00  0.00     0.084 C 
ATOM     25  C22 <0> d          -7.970  -6.485  -0.828  0.00  0.00     0.025 C 
ATOM     26  C21 <0> d          -9.240  -7.338  -0.835  0.00  0.00     0.002 C 
ATOM     27  C20 <0> d          -9.655  -7.646   0.605  0.00  0.00     0.000 C 
ATOM     28  C19 <0> d          -9.924  -6.337   1.350  0.00  0.00     0.002 C 
ATOM     29  C18 <0> d          -8.654  -5.484   1.357  0.00  0.00     0.025 C 
ENDBRANCH  22  24
ENDBRANCH   4  20
BRANCH   1  30
ATOM     30  C3  <0> d          -4.910   1.481   0.076  0.00  0.00     0.132 C 
BRANCH  30  31
ATOM     31  C2  <0> d          -4.938   1.997  -1.364  0.00  0.00     0.016 C 
ATOM     32  C1  <0> d          -5.027   3.525  -1.356  0.00  0.00     0.006 C 
ENDBRANCH  30  31
ENDBRANCH   1  30
TORSDOF 4
