REMARK  5 active torsions:
REMARK  status: ('A' for Active; 'I' for Inactive)
REMARK    1  A    between atoms: C7_7  and  C8_8 
REMARK       I    between atoms: C8_8  and  N1_10 
REMARK    2  A    between atoms: N1_10  and  C9_11 
REMARK    3  A    between atoms: C12_14  and  S1_17 
REMARK    4  A    between atoms: S1_17  and  C15_18 
REMARK    5  A    between atoms: C15_18  and  C16_19 
ROOT
ATOM      1  C9  <0> d          -0.322   0.188   4.758  0.00  0.00     0.035 A 
ATOM      2  C10 <0> d          -0.448   1.571   4.762  0.00  0.00     0.031 A 
ATOM      3  C11 <0> d          -0.441   2.261   5.958  0.00  0.00     0.021 A 
ATOM      4  C12 <0> d          -0.307   1.571   7.157  0.00  0.00     0.000 A 
ATOM      5  C13 <0> d          -0.182   0.188   7.152  0.00  0.00     0.021 A 
ATOM      6  C14 <0> d          -0.195  -0.502   5.956  0.00  0.00     0.031 A 
ENDROOT
BRANCH   4   7
ATOM      7  S1  <0> d          -0.297   2.452   8.683  0.00  0.00    -0.128 SA
BRANCH   7   8
ATOM      8  C15 <0> d          -0.105   1.155   9.937  0.00  0.00     0.114 C 
BRANCH   8   9
ATOM      9  C16 <0> d          -0.081   1.790  11.328  0.00  0.00     0.184 A 
ATOM     10  N3  <0> d           0.997   2.792  11.345  0.00  0.00    -0.374 N 
ATOM     11  C23 <0> d           1.944   2.671  12.229  0.00  0.00     0.055 A 
ATOM     12  H20 <0> d           1.001   3.526  10.712  0.00  0.00     0.160 HD
ATOM     13  C18 <0> d           1.946   1.549  13.202  0.00  0.00     0.061 A 
ATOM     14  C22 <0> d           3.044   3.647  12.289  0.00  0.00     0.031 A 
ATOM     15  N2  <0> d           0.992   0.634  13.211  0.00  0.00    -0.323 N 
ATOM     16  C19 <0> d           3.006   1.479  14.134  0.00  0.00     0.032 A 
ATOM     17  C17 <0> d          -0.023   0.672  12.344  0.00  0.00     0.245 A 
ATOM     18  H21 <0> d           1.030  -0.083  13.863  0.00  0.00     0.169 HD
ATOM     19  O2  <0> d          -0.887  -0.181  12.371  0.00  0.00    -0.271 OA
ATOM     20  C20 <0> d           3.985   2.414  14.129  0.00  0.00     0.002 A 
ATOM     21  C21 <0> d           4.009   3.485  13.221  0.00  0.00     0.002 A 
ENDBRANCH   8   9
ENDBRANCH   7   8
ENDBRANCH   4   7
BRANCH   1  22
ATOM     22  N1  <0> d          -0.330  -0.512   3.544  0.00  0.00    -0.323 N 
ATOM     23  C8  <0> d          -0.882  -1.740   3.478  0.00  0.00     0.256 C 
ATOM     24  O1  <0> d          -1.456  -2.201   4.445  0.00  0.00    -0.267 OA
ATOM     25  H9  <0> d           0.063  -0.113   2.752  0.00  0.00     0.169 HD
BRANCH  23  26
ATOM     26  C7  <0> d          -0.789  -2.525   2.229  0.00  0.00     0.038 A 
ATOM     27  C2  <0> d          -1.236  -3.847   2.197  0.00  0.00    -0.046 A 
ATOM     28  C1  <0> d          -1.815  -4.478   3.437  0.00  0.00     0.049 C 
ATOM     29  C3  <0> d          -1.151  -4.573   1.027  0.00  0.00     0.007 A 
ATOM     30  C4  <0> d          -0.620  -3.995  -0.112  0.00  0.00     0.001 A 
ATOM     31  C5  <0> d          -0.169  -2.687  -0.086  0.00  0.00     0.001 A 
ATOM     32  C6  <0> d          -0.248  -1.950   1.077  0.00  0.00     0.017 A 
ENDBRANCH  23  26
ENDBRANCH   1  22
TORSDOF 5
