REMARK  5 active torsions:
REMARK  status: ('A' for Active; 'I' for Inactive)
REMARK    1  A    between atoms: C14_15  and  C15_16 
REMARK    2  A    between atoms: C14_15  and  N1_32 
REMARK    3  A    between atoms: C15_16  and  C16_17 
REMARK    4  A    between atoms: C15_16  and  O2_26 
REMARK    5  A    between atoms: C26_28  and  O3_29 
ROOT
ATOM      1  C1  <0> d          -4.624  -8.594  -0.153  0.00  0.00     0.049 C 
ATOM      2  C2  <0> d          -4.641  -7.244   0.516  0.00  0.00    -0.055 A 
ATOM      3  C3  <0> d          -5.772  -6.453   0.446  0.00  0.00     0.019 A 
ATOM      4  C4  <0> d          -5.795  -5.211   1.058  0.00  0.00     0.004 A 
ATOM      5  C5  <0> d          -4.681  -4.762   1.746  0.00  0.00     0.079 A 
ATOM      6  C6  <0> d          -3.545  -5.561   1.815  0.00  0.00     0.044 A 
ATOM      7  C7  <0> d          -3.527  -6.797   1.201  0.00  0.00    -0.053 A 
ATOM      8  C8  <0> d          -2.293  -7.659   1.278  0.00  0.00     0.049 C 
ATOM      9  O1  <0> d          -4.661  -3.552   2.364  0.00  0.00    -0.339 OA
ATOM     10  C9  <0> d          -5.659  -2.600   2.001  0.00  0.00     0.073 C 
ATOM     11  C10 <0> d          -5.650  -1.434   2.992  0.00  0.00     0.066 C 
ATOM     12  C11 <0> d          -4.305  -0.709   2.908  0.00  0.00     0.238 C 
ATOM     13  C12 <0> d          -4.048  -1.327   0.580  0.00  0.00     0.238 C 
ATOM     14  C13 <0> d          -5.385  -2.072   0.592  0.00  0.00     0.066 C 
ATOM     15  C25 <0> d          -7.028  -3.288   2.032  0.00  0.00     0.075 C 
ATOM     16  C26 <0> d          -7.045  -4.374   0.954  0.00  0.00     0.156 C 
ATOM     17  N1  <0> d          -4.119  -0.200   1.533  0.00  0.00    -0.068 N 
ATOM     18  H34 <0> d          -4.919   0.395   1.287  0.00  0.00     0.280 HD
ENDROOT
BRANCH  17  19
ATOM     19  C14 <0> d          -2.882   0.605   1.455  0.00  0.00     0.271 C 
BRANCH  19  20
ATOM     20  C15 <0> d          -3.074   1.883   2.274  0.00  0.00     0.177 C 
BRANCH  20  21
ATOM     21  C16 <0> d          -1.835   2.735   2.174  0.00  0.00    -0.028 A 
ATOM     22  C21 <0> d          -0.856   2.647   3.144  0.00  0.00     0.017 A 
ATOM     23  C20 <0> d           0.282   3.433   3.060  0.00  0.00    -0.051 A 
ATOM     24  C19 <0> d           0.440   4.302   1.997  0.00  0.00    -0.052 A 
ATOM     25  C22 <0> d           1.478   3.528   3.982  0.00  0.00     0.039 C 
ATOM     26  C18 <0> d          -0.539   4.383   1.021  0.00  0.00     0.008 A 
ATOM     27  C24 <0> d           1.754   5.040   2.131  0.00  0.00     0.039 C 
ATOM     28  C17 <0> d          -1.673   3.600   1.107  0.00  0.00     0.010 A 
ATOM     29  C23 <0> d           2.174   4.853   3.605  0.00  0.00     0.009 C 
ENDBRANCH  20  21
BRANCH  20  30
ATOM     30  O2  <0> d          -4.194   2.611   1.765  0.00  0.00    -0.389 OA
ATOM     31  H30 <0> d          -4.103   2.875   0.839  0.00  0.00     0.210 HD
ENDBRANCH  20  30
ENDBRANCH  19  20
ENDBRANCH  17  19
BRANCH  16  32
ATOM     32  O3  <0> d          -8.191  -5.207   1.137  0.00  0.00    -0.391 OA
ATOM     33  H33 <0> d          -8.269  -5.918   0.486  0.00  0.00     0.210 HD
ENDBRANCH  16  32
TORSDOF 5
