REMARK  2 active torsions:
REMARK  status: ('A' for Active; 'I' for Inactive)
REMARK    1  A    between atoms: C6_8  and  C11_16 
REMARK    2  A    between atoms: C11_16  and  O6_17 
ROOT
ATOM      1  C1  <0> d          -1.453   2.534   4.106  0.00  0.00     0.078 C 
ATOM      2  C2  <0> d          -1.452   1.205   3.349  0.00  0.00     0.158 C 
ATOM      3  O1  <0> d          -0.278   1.126   2.502  0.00  0.00    -0.346 OA
ATOM      4  C3  <0> d          -0.752   1.590   1.238  0.00  0.00     0.181 C 
ATOM      5  C4  <0> d          -0.013   1.086   0.008  0.00  0.00     0.205 C 
ATOM      6  O2  <0> d          -0.731   1.573  -1.131  0.00  0.00    -0.355 OA
ATOM      7  C5  <0> d          -2.101   1.216  -1.274  0.00  0.00     0.302 C 
ATOM      8  C6  <0> d          -2.912   1.434   0.028  0.00  0.00     0.163 C 
ATOM      9  C7  <0> d          -2.144   0.894   1.197  0.00  0.00     0.198 C 
ATOM     10  O3  <0> d          -2.628   1.120   2.511  0.00  0.00    -0.345 OA
ATOM     11  O4  <0> d          -3.086   2.857   0.078  0.00  0.00    -0.335 OA
ATOM     12  C8  <0> d          -2.958   3.338  -1.269  0.00  0.00     0.161 C 
ATOM     13  O5  <0> d          -2.709   2.218  -2.137  0.00  0.00    -0.323 OA
ATOM     14  C9  <0> d          -4.251   4.039  -1.690  0.00  0.00     0.078 C 
ATOM     15  C10 <0> d          -1.791   4.324  -1.354  0.00  0.00     0.078 C 
ATOM     16  C12 <0> d          -1.445   0.044   4.346  0.00  0.00     0.078 C 
ENDROOT
BRANCH   8  17
ATOM     17  C11 <0> d          -4.267   0.731  -0.076  0.00  0.00     0.210 C 
BRANCH  17  18
ATOM     18  O6  <0> d          -4.942   1.171  -1.256  0.00  0.00    -0.398 OA
ATOM     19  H17 <0> d          -5.810   0.765  -1.387  0.00  0.00     0.209 HD
ENDBRANCH  17  18
ENDBRANCH   8  17
TORSDOF 2
