REMARK  5 active torsions:
REMARK  status: ('A' for Active; 'I' for Inactive)
REMARK    1  A    between atoms: C6_6  and  N1_7 
REMARK       I    between atoms: N1_7  and  C7_8 
REMARK    2  A    between atoms: C7_8  and  C8_10 
REMARK    3  A    between atoms: N3_13  and  C16_21 
REMARK    4  A    between atoms: C10_14  and  C11_15 
REMARK    5  A    between atoms: C19_24  and  N5_27 
ROOT
ATOM      1  C8  <0> d           2.413  -4.232  -0.081  0.00  0.00     0.076 A 
ATOM      2  C9  <0> d           1.293  -5.055  -0.340  0.00  0.00     0.158 A 
ATOM      3  N2  <0> d           1.726  -6.256  -0.607  0.00  0.00    -0.178 NA
ATOM      4  N3  <0> d           3.124  -6.261  -0.533  0.00  0.00    -0.237 N 
ATOM      5  C10 <0> d           3.538  -5.021  -0.217  0.00  0.00     0.058 A 
ENDROOT
BRANCH   1   6
ATOM      6  C7  <0> d           2.385  -2.799   0.262  0.00  0.00     0.259 C 
ATOM      7  N1  <0> d           1.207  -2.179   0.473  0.00  0.00    -0.323 N 
ATOM      8  H5  <0> d           0.273  -2.760   0.477  0.00  0.00     0.169 HD
ATOM      9  O1  <0> d           3.425  -2.176   0.356  0.00  0.00    -0.267 OA
BRANCH   7  10
ATOM     10  C6  <0> d           1.172  -0.797   0.686  0.00  0.00     0.035 A 
ATOM     11  C1  <0> d           0.222  -0.248   1.538  0.00  0.00     0.031 A 
ATOM     12  C2  <0> d           0.190   1.116   1.747  0.00  0.00     0.026 A 
ATOM     13  C3  <0> d           1.103   1.937   1.108  0.00  0.00     0.034 A 
ATOM     14  C4  <0> d           2.051   1.393   0.259  0.00  0.00     0.026 A 
ATOM     15 Cl1  <0> d           1.059   3.652   1.373  0.00  0.00    -0.084 Cl
ATOM     16  C5  <0> d           2.087   0.029   0.047  0.00  0.00     0.031 A 
ENDBRANCH   7  10
ENDBRANCH   1   6
BRANCH   5  17
ATOM     17  C11 <0> d           4.967  -4.575  -0.041  0.00  0.00     0.042 C 
ATOM     18  C15 <0> d           5.298  -3.495  -1.075  0.00  0.00     0.038 C 
ATOM     19  C14 <0> d           6.729  -3.004  -0.852  0.00  0.00     0.233 C 
ATOM     20  N4  <0> d           6.856  -2.460   0.506  0.00  0.00    -0.075 N 
ATOM     21  C13 <0> d           6.589  -3.491   1.517  0.00  0.00     0.233 C 
ATOM     22  H12 <0> d           6.136  -1.637   0.623  0.00  0.00     0.277 HD
ATOM     23  H21 <0> d           7.878  -2.075   0.636  0.00  0.00     0.277 HD
ATOM     24  C12 <0> d           5.153  -3.998   1.365  0.00  0.00     0.038 C 
ENDBRANCH   5  17
BRANCH   4  25
ATOM     25  C16 <0> d           3.952  -7.370  -0.756  0.00  0.00     0.058 A 
ATOM     26  C21 <0> d           3.623  -8.604  -0.212  0.00  0.00     0.034 A 
ATOM     27  C20 <0> d           4.441  -9.695  -0.434  0.00  0.00     0.038 A 
ATOM     28  C19 <0> d           5.586  -9.558  -1.196  0.00  0.00     0.103 A 
ATOM     29  C18 <0> d           5.917  -8.330  -1.739  0.00  0.00     0.038 A 
ATOM     30  C17 <0> d           5.100  -7.237  -1.525  0.00  0.00     0.034 A 
BRANCH  28  31
ATOM     31  N5  <0> d           6.461 -10.729  -1.432  0.00  0.00    -0.116 N 
ATOM     32  O2  <0> d           6.171 -11.812  -0.954  0.00  0.00    -0.532 OA
ATOM     33  O3  <0> d           7.470 -10.610  -2.103  0.00  0.00    -0.532 OA
ENDBRANCH  28  31
ENDBRANCH   4  25
TORSDOF 5
