REMARK  3 active torsions:
REMARK  status: ('A' for Active; 'I' for Inactive)
REMARK    1  A    between atoms: C5_5  and  C9_9 
REMARK    2  A    between atoms: C18_20  and  N2_25 
REMARK    3  A    between atoms: C19_21  and  C20_22 
REMARK       I    between atoms: C20_22  and  N1_24 
ROOT
ATOM      1  C9  <0> d           1.649  -3.418   0.545  0.00  0.00     0.102 C 
ATOM      2  C10 <0> d           0.893  -4.672   0.914  0.00  0.00     0.031 C 
ATOM      3  C11 <0> d           1.010  -5.205   2.144  0.00  0.00     0.067 C 
ATOM      4  C12 <0> d           0.264  -6.465   2.513  0.00  0.00     0.075 C 
ATOM      5  C13 <0> d          -1.053  -6.530   1.736  0.00  0.00    -0.035 C 
ATOM      6  C14 <0> d          -0.735  -6.497   0.238  0.00  0.00     0.092 C 
ATOM      7  C15 <0> d           0.066  -5.260  -0.063  0.00  0.00     0.159 C 
ATOM      8  O1  <0> d          -0.002  -4.759  -1.167  0.00  0.00    -0.293 OA
ATOM      9  C16 <0> d          -1.926  -5.328   2.103  0.00  0.00     0.015 C 
ATOM     10  C17 <0> d          -1.788  -7.828   2.078  0.00  0.00     0.015 C 
ATOM     11  O2  <0> d           1.791  -4.634   3.081  0.00  0.00    -0.297 OA
ATOM     12  C18 <0> d           2.783  -3.803   2.721  0.00  0.00     0.154 C 
ATOM     13  C19 <0> d           2.772  -3.186   1.516  0.00  0.00     0.073 C 
ENDROOT
BRANCH   1  14
ATOM     14  C5  <0> d           0.709  -2.241   0.578  0.00  0.00    -0.033 A 
ATOM     15  C4  <0> d           0.496  -1.493  -0.565  0.00  0.00    -0.054 A 
ATOM     16  C3  <0> d          -0.367  -0.414  -0.534  0.00  0.00     0.014 A 
ATOM     17  C21 <0> d           1.204  -1.856  -1.845  0.00  0.00     0.049 C 
ATOM     18  C2  <0> d          -1.017  -0.082   0.640  0.00  0.00    -0.061 A 
ATOM     19  C1  <0> d          -1.958   1.095   0.673  0.00  0.00     0.048 C 
ATOM     20  C7  <0> d          -0.801  -0.826   1.784  0.00  0.00     0.014 A 
ATOM     21  C6  <0> d           0.059  -1.909   1.752  0.00  0.00    -0.054 A 
ATOM     22  C8  <0> d           0.291  -2.724   2.999  0.00  0.00     0.049 C 
ENDBRANCH   1  14
BRANCH  13  23
ATOM     23  C20 <0> d           3.825  -2.320   1.171  0.00  0.00     0.250 C 
ATOM     24  O3  <0> d           4.725  -2.712   0.449  0.00  0.00    -0.268 OA
ATOM     25  N1  <0> d           3.839  -1.056   1.639  0.00  0.00    -0.366 N 
ATOM     26  H20 <0> d           3.163  -0.766   2.271  0.00  0.00     0.159 HD
ATOM     27  H21 <0> d           4.525  -0.437   1.344  0.00  0.00     0.159 HD
ENDBRANCH  13  23
BRANCH  12  28
ATOM     28  N2  <0> d           3.819  -3.575   3.588  0.00  0.00    -0.379 N 
ATOM     29  H22 <0> d           3.792  -3.946   4.484  0.00  0.00     0.158 HD
ATOM     30  H23 <0> d           4.579  -3.043   3.306  0.00  0.00     0.158 HD
ENDBRANCH  12  28
TORSDOF 3
