REMARK  6 active torsions:
REMARK  status: ('A' for Active; 'I' for Inactive)
REMARK    1  A    between atoms: C2_2  and  O1_3 
REMARK    2  A    between atoms: O1_3  and  C3_4 
REMARK    3  A    between atoms: C6_7  and  C9_10 
REMARK       I    between atoms: C9_10  and  N1_12 
REMARK    4  A    between atoms: N1_12  and  C10_13 
REMARK    5  A    between atoms: N2_15  and  C11_16 
REMARK    6  A    between atoms: C16_21  and  C17_22 
REMARK       I    between atoms: C17_22  and  N3_24 
ROOT
ATOM      1  C10 <0> d           1.484   1.402  -1.465  0.00  0.00     0.179 C 
ATOM      2  S1  <0> d           1.839   2.762  -2.443  0.00  0.00    -0.040 SA
ATOM      3  N2  <0> d           2.344   1.024  -0.499  0.00  0.00    -0.332 N 
ATOM      4  H11 <0> d           2.111   0.299   0.102  0.00  0.00     0.168 HD
ENDROOT
BRANCH   3   5
ATOM      5  C11 <0> d           3.568   1.674  -0.363  0.00  0.00     0.050 A 
ATOM      6  C16 <0> d           4.750   0.931  -0.233  0.00  0.00     0.058 A 
ATOM      7  C15 <0> d           5.971   1.595  -0.098  0.00  0.00     0.019 A 
ATOM      8  C14 <0> d           6.008   2.973  -0.093  0.00  0.00     0.001 A 
ATOM      9  C13 <0> d           4.838   3.704  -0.222  0.00  0.00     0.002 A 
ATOM     10  C12 <0> d           3.624   3.062  -0.361  0.00  0.00     0.030 A 
BRANCH   6  11
ATOM     11  C17 <0> d           4.704  -0.543  -0.239  0.00  0.00     0.256 C 
ATOM     12  O3  <0> d           4.153  -1.131  -1.150  0.00  0.00    -0.267 OA
ATOM     13  N3  <0> d           5.273  -1.240   0.765  0.00  0.00    -0.345 N 
ATOM     14  C21 <0> d           5.159  -2.705   0.827  0.00  0.00     0.154 C 
ATOM     15  C18 <0> d           6.029  -0.555   1.825  0.00  0.00     0.154 C 
ATOM     16  C20 <0> d           4.661  -3.096   2.222  0.00  0.00     0.254 C 
ATOM     17  N4  <0> d           5.567  -2.506   3.232  0.00  0.00    -0.072 N 
ATOM     18  C19 <0> d           5.492  -1.030   3.184  0.00  0.00     0.254 C 
ATOM     19  C22 <0> d           5.199  -2.986   4.580  0.00  0.00     0.269 C 
ATOM     20  H27 <0> d           6.530  -2.797   3.026  0.00  0.00     0.279 HD
ENDBRANCH   6  11
ENDBRANCH   3   5
BRANCH   1  21
ATOM     21  N1  <0> d           0.344   0.710  -1.661  0.00  0.00    -0.299 N 
ATOM     22  C9  <0> d          -0.513   1.085  -2.631  0.00  0.00     0.257 C 
ATOM     23  O2  <0> d          -0.261   2.050  -3.326  0.00  0.00    -0.267 OA
ATOM     24  H10 <0> d           0.143  -0.060  -1.107  0.00  0.00     0.171 HD
BRANCH  22  25
ATOM     25  C6  <0> d          -1.758   0.324  -2.850  0.00  0.00     0.032 A 
ATOM     26  C5  <0> d          -2.648   0.711  -3.855  0.00  0.00     0.020 A 
ATOM     27  C4  <0> d          -3.809  -0.003  -4.056  0.00  0.00     0.038 A 
ATOM     28  C3  <0> d          -4.095  -1.107  -3.261  0.00  0.00     0.068 A 
ATOM     29  C8  <0> d          -3.212  -1.494  -2.260  0.00  0.00     0.038 A 
ATOM     30  C7  <0> d          -2.047  -0.790  -2.057  0.00  0.00     0.020 A 
BRANCH  28  31
ATOM     31  O1  <0> d          -5.240  -1.807  -3.462  0.00  0.00    -0.352 OA
BRANCH  31  32
ATOM     32  C2  <0> d          -5.472  -2.930  -2.610  0.00  0.00     0.171 C 
ATOM     33  C1  <0> d          -6.801  -3.589  -2.984  0.00  0.00     0.034 C 
ENDBRANCH  31  32
ENDBRANCH  28  31
ENDBRANCH  22  25
ENDBRANCH   1  21
TORSDOF 6
