REMARK  3 active torsions:
REMARK  status: ('A' for Active; 'I' for Inactive)
REMARK    1  A    between atoms: C7_7  and  N1_8 
REMARK       I    between atoms: N1_8  and  C8_9 
REMARK    2  A    between atoms: C8_9  and  C9_11 
REMARK    3  A    between atoms: C13_19  and  C14_20 
ROOT
ATOM      1  C9  <0> d          -0.015   1.711   2.383  0.00  0.00     0.063 C 
ATOM      2  C10 <0> d          -0.716   1.585   1.248  0.00  0.00     0.037 C 
ATOM      3  N2  <0> d          -2.050   1.904   1.172  0.00  0.00    -0.192 N 
ATOM      4  C11 <0> d          -2.727   2.105   2.369  0.00  0.00     0.726 A 
ATOM      5  N3  <0> d          -4.006   2.191   2.609  0.00  0.00    -0.046 NA
ATOM      6  C12 <0> d          -4.204   2.386   3.917  0.00  0.00     0.162 A 
ATOM      7  N4  <0> d          -3.044   2.427   4.526  0.00  0.00    -0.141 NA
ATOM      8  N5  <0> d          -2.069   2.250   3.546  0.00  0.00    -0.083 N 
ATOM      9  C13 <0> d          -0.614   2.217   3.668  0.00  0.00     0.209 C 
ATOM     10  C18 <0> d          -5.546   2.534   4.584  0.00  0.00     0.096 C 
ATOM     11  C19 <0> d          -0.017   1.080   0.011  0.00  0.00     0.070 C 
ATOM     12  H10 <0> d          -2.540   1.992   0.191  0.00  0.00     0.184 HD
ENDROOT
BRANCH   1  13
ATOM     13  C8  <0> d           1.354   1.353   2.373  0.00  0.00     0.256 C 
ATOM     14  N1  <0> d           2.062   1.364   3.520  0.00  0.00    -0.323 N 
ATOM     15  H9  <0> d           1.556   1.561   4.477  0.00  0.00     0.169 HD
ATOM     16  O1  <0> d           1.892   1.034   1.328  0.00  0.00    -0.267 OA
BRANCH  14  17
ATOM     17  C7  <0> d           3.440   1.126   3.494  0.00  0.00     0.041 A 
ATOM     18  C2  <0> d           4.083   0.636   4.623  0.00  0.00    -0.035 A 
ATOM     19  C1  <0> d           3.297   0.361   5.879  0.00  0.00     0.050 C 
ATOM     20  C3  <0> d           5.443   0.397   4.592  0.00  0.00     0.009 A 
ATOM     21  C4  <0> d           6.166   0.655   3.442  0.00  0.00     0.001 A 
ATOM     22  C5  <0> d           5.529   1.147   2.317  0.00  0.00     0.002 A 
ATOM     23  C6  <0> d           4.169   1.383   2.340  0.00  0.00     0.030 A 
ENDBRANCH  14  17
ENDBRANCH   1  13
BRANCH   9  24
ATOM     24  C14 <0> d          -0.102   3.606   3.949  0.00  0.00     0.013 A 
ATOM     25  S1  <0> d          -0.259   5.084   2.959  0.00  0.00    -0.104 SA
ATOM     26  C17 <0> d           0.618   6.204   4.039  0.00  0.00     0.050 A 
ATOM     27  C16 <0> d           0.972   5.388   5.061  0.00  0.00     0.008 A 
ATOM     28  C15 <0> d           0.603   4.057   5.016  0.00  0.00     0.017 A 
ENDBRANCH   9  24
TORSDOF 3
