REMARK  3 active torsions:
REMARK  status: ('A' for Active; 'I' for Inactive)
REMARK    1  A    between atoms: C3_3  and  C12_14 
REMARK    2  A    between atoms: N1_5  and  C5_7 
REMARK       I    between atoms: C12_14  and  N3_16 
REMARK    3  A    between atoms: N3_16  and  C13_17 
ROOT
ATOM      1  C1  <0> d          -0.251   6.744  -0.915  0.00  0.00     0.073 C 
ATOM      2  C2  <0> d           0.514   5.549  -0.407  0.00  0.00     0.069 A 
ATOM      3  C3  <0> d           1.679   5.588   0.393  0.00  0.00     0.082 A 
ATOM      4  C4  <0> d           2.050   4.281   0.636  0.00  0.00     0.050 A 
ATOM      5  N1  <0> d           1.161   3.487   0.010  0.00  0.00    -0.237 N 
ATOM      6  N2  <0> d           0.216   4.298  -0.628  0.00  0.00    -0.171 NA
ATOM      7  C11 <0> d           3.233   3.826   1.450  0.00  0.00     0.071 C 
ENDROOT
BRANCH   3   8
ATOM      8  C12 <0> d           2.366   6.798   0.880  0.00  0.00     0.260 C 
ATOM      9  O1  <0> d           2.054   7.285   1.950  0.00  0.00    -0.267 OA
ATOM     10  N3  <0> d           3.340   7.364   0.140  0.00  0.00    -0.320 N 
ATOM     11  H12 <0> d           3.622   6.923  -0.828  0.00  0.00     0.169 HD
BRANCH  10  12
ATOM     12  C13 <0> d           3.996   8.519   0.605  0.00  0.00     0.078 A 
ATOM     13  C15 <0> d           4.989   9.187  -0.036  0.00  0.00     0.054 A 
ATOM     14  N5  <0> d           5.345  10.240   0.745  0.00  0.00    -0.277 N 
ATOM     15  C16 <0> d           5.587   8.827  -1.372  0.00  0.00     0.072 C 
ATOM     16  N4  <0> d           4.545  10.212   1.895  0.00  0.00    -0.183 NA
ATOM     17  C17 <0> d           6.381  11.229   0.439  0.00  0.00     0.179 C 
ATOM     18  C14 <0> d           3.736   9.188   1.810  0.00  0.00     0.170 A 
ENDBRANCH  10  12
ENDBRANCH   3   8
BRANCH   5  19
ATOM     19  C5  <0> d           1.177   2.086   0.002  0.00  0.00     0.058 A 
ATOM     20  C10 <0> d           2.386   1.404  -0.013  0.00  0.00     0.031 A 
ATOM     21  C9  <0> d           2.398   0.023  -0.021  0.00  0.00     0.002 A 
ATOM     22  C8  <0> d           1.208  -0.680  -0.013  0.00  0.00     0.000 A 
ATOM     23  C7  <0> d           0.002  -0.004   0.002  0.00  0.00     0.002 A 
ATOM     24  C6  <0> d          -0.017   1.377   0.010  0.00  0.00     0.031 A 
ENDBRANCH   5  19
TORSDOF 3
