REMARK  5 active torsions:
REMARK  status: ('A' for Active; 'I' for Inactive)
REMARK       I    between atoms: C2_2  and  N1_4 
REMARK    1  A    between atoms: N1_4  and  C3_5 
REMARK    2  A    between atoms: C3_5  and  C4_6 
REMARK    3  A    between atoms: C4_6  and  N2_7 
REMARK       I    between atoms: N2_7  and  C5_8 
REMARK    4  A    between atoms: C5_8  and  C6_10 
REMARK       I    between atoms: C6_10  and  N3_12 
REMARK    5  A    between atoms: N3_12  and  C7_13 
ROOT
ATOM      1  C6  <0> d          -3.689  -6.337   0.010  0.00  0.00     0.314 C 
ATOM      2  O3  <0> d          -2.630  -6.929  -0.007  0.00  0.00    -0.262 OA
ATOM      3  N3  <0> d          -4.847  -7.026   0.011  0.00  0.00    -0.316 N 
ATOM      4  H10 <0> d          -5.691  -6.555   0.089  0.00  0.00     0.169 HD
ENDROOT
BRANCH   1   5
ATOM      5  C5  <0> d          -3.708  -4.843   0.030  0.00  0.00     0.309 C 
ATOM      6  N2  <0> d          -2.550  -4.154   0.030  0.00  0.00    -0.351 N 
ATOM      7  H9  <0> d          -1.704  -4.628   0.016  0.00  0.00     0.162 HD
ATOM      8  O2  <0> d          -4.767  -4.250   0.047  0.00  0.00    -0.262 OA
BRANCH   6   9
ATOM      9  C4  <0> d          -2.569  -2.689   0.049  0.00  0.00     0.143 C 
BRANCH   9  10
ATOM     10  C3  <0> d          -1.133  -2.161   0.044  0.00  0.00     0.142 C 
BRANCH  10  11
ATOM     11  N1  <0> d          -1.153  -0.696   0.064  0.00  0.00    -0.360 N 
ATOM     12  C2  <0> d           0.006  -0.007   0.064  0.00  0.00     0.213 C 
ATOM     13  C1  <0> d          -0.014   1.500   0.084  0.00  0.00     0.117 C 
ATOM     14  O1  <0> d           1.064  -0.599   0.047  0.00  0.00    -0.274 OA
ATOM     15  H4  <0> d          -1.999  -0.222   0.078  0.00  0.00     0.162 HD
ENDBRANCH  10  11
ENDBRANCH   9  10
ENDBRANCH   6   9
ENDBRANCH   1   5
BRANCH   3  16
ATOM     16  C7  <0> d          -4.831  -8.419  -0.103  0.00  0.00     0.075 A 
ATOM     17  C12 <0> d          -5.848  -9.074  -0.789  0.00  0.00     0.164 A 
ATOM     18  C11 <0> d          -5.825 -10.453  -0.904  0.00  0.00     0.074 A 
ATOM     19  F1  <0> d          -6.854  -8.365  -1.347  0.00  0.00    -0.202 F 
ATOM     20  C10 <0> d          -4.798 -11.179  -0.326  0.00  0.00     0.027 A 
ATOM     21 Cl1  <0> d          -7.089 -11.274  -1.767  0.00  0.00    -0.081 Cl
ATOM     22  C9  <0> d          -3.790 -10.530   0.362  0.00  0.00     0.004 A 
ATOM     23  C8  <0> d          -3.803  -9.153   0.475  0.00  0.00     0.033 A 
ENDBRANCH   3  16
TORSDOF 5
