REMARK  7 active torsions:
REMARK  status: ('A' for Active; 'I' for Inactive)
REMARK    1  A    between atoms: C2_2  and  C3_3 
REMARK    2  A    between atoms: C2_2  and  O2_14 
REMARK       I    between atoms: C3_3  and  N1_5 
REMARK    3  A    between atoms: N1_5  and  C4_6 
REMARK    4  A    between atoms: O2_14  and  C10_15 
REMARK    5  A    between atoms: C10_15  and  C11_17 
REMARK    6  A    between atoms: C11_17  and  C12_18 
REMARK    7  A    between atoms: C12_18  and  C13_19 
ROOT
ATOM      1  C10 <0> d          -1.912  -0.733  -1.189  0.00  0.00     0.259 C 
ATOM      2  O3  <0> d          -1.302  -0.504  -2.207  0.00  0.00    -0.265 OA
ENDROOT
BRANCH   1   3
ATOM      3  O2  <0> d          -1.333  -0.519   0.003  0.00  0.00    -0.307 OA
BRANCH   3   4
ATOM      4  C2  <0> d           0.006  -0.020  -0.006  0.00  0.00     0.220 C 
ATOM      5  C1  <0> d          -0.021   1.510  -0.007  0.00  0.00     0.050 C 
BRANCH   4   6
ATOM      6  C3  <0> d           0.732  -0.509   1.220  0.00  0.00     0.251 C 
ATOM      7  O1  <0> d           0.136  -1.139   2.068  0.00  0.00    -0.270 OA
ATOM      8  N1  <0> d           2.045  -0.246   1.375  0.00  0.00    -0.323 N 
ATOM      9  H6  <0> d           2.537   0.201   0.669  0.00  0.00     0.169 HD
BRANCH   8  10
ATOM     10  C4  <0> d           2.699  -0.618   2.556  0.00  0.00     0.058 A 
ATOM     11  C9  <0> d           3.719   0.176   3.067  0.00  0.00     0.082 A 
ATOM     12  C8  <0> d           4.359  -0.192   4.236  0.00  0.00     0.058 A 
ATOM     13 Cl1  <0> d           4.185   1.630   2.241  0.00  0.00    -0.080 Cl
ATOM     14  C7  <0> d           3.990  -1.355   4.891  0.00  0.00     0.026 A 
ATOM     15 Cl2  <0> d           5.628   0.801   4.880  0.00  0.00    -0.082 Cl
ATOM     16  C6  <0> d           2.979  -2.148   4.381  0.00  0.00     0.004 A 
ATOM     17  C5  <0> d           2.333  -1.783   3.217  0.00  0.00     0.031 A 
ENDBRANCH   8  10
ENDBRANCH   4   6
ENDBRANCH   3   4
ENDBRANCH   1   3
BRANCH   1  18
ATOM     18  C11 <0> d          -3.322  -1.259  -1.259  0.00  0.00     0.113 C 
BRANCH  18  19
ATOM     19  C12 <0> d          -3.738  -1.412  -2.723  0.00  0.00     0.044 C 
BRANCH  19  20
ATOM     20  C13 <0> d          -5.170  -1.946  -2.794  0.00  0.00     0.174 A 
ATOM     21  N3  <0> d          -6.047  -0.967  -2.132  0.00  0.00    -0.375 N 
ATOM     22  C20 <0> d          -7.027  -0.451  -2.814  0.00  0.00     0.055 A 
ATOM     23  H18 <0> d          -5.898  -0.713  -1.208  0.00  0.00     0.160 HD
ATOM     24  C15 <0> d          -7.263  -0.834  -4.229  0.00  0.00     0.061 A 
ATOM     25  C19 <0> d          -7.934   0.533  -2.199  0.00  0.00     0.031 A 
ATOM     26  N2  <0> d          -6.492  -1.710  -4.850  0.00  0.00    -0.323 N 
ATOM     27  C16 <0> d          -8.346  -0.234  -4.909  0.00  0.00     0.032 A 
ATOM     28  C14 <0> d          -5.462  -2.295  -4.235  0.00  0.00     0.245 A 
ATOM     29  H19 <0> d          -6.680  -1.934  -5.775  0.00  0.00     0.169 HD
ATOM     30  O4  <0> d          -4.767  -3.098  -4.827  0.00  0.00    -0.271 OA
ATOM     31  C17 <0> d          -9.139   0.664  -4.278  0.00  0.00     0.002 A 
ATOM     32  C18 <0> d          -8.940   1.046  -2.941  0.00  0.00     0.002 A 
ENDBRANCH  19  20
ENDBRANCH  18  19
ENDBRANCH   1  18
TORSDOF 7
