REMARK  3 active torsions:
REMARK  status: ('A' for Active; 'I' for Inactive)
REMARK    1  A    between atoms: C4_4  and  C7_8 
REMARK       I    between atoms: C7_8  and  N1_10 
REMARK       I    between atoms: N2_13  and  C12_16 
REMARK       I    between atoms: C12_16  and  N3_18 
REMARK    2  A    between atoms: N3_18  and  C13_19 
REMARK    3  A    between atoms: C19_26  and  S2_28 
ROOT
ATOM      1  C7  <0> d          -1.289  -4.109  -0.031  0.00  0.00     0.256 C 
ATOM      2  O2  <0> d          -0.818  -5.044  -0.649  0.00  0.00    -0.267 OA
ATOM      3  N1  <0> d          -2.617  -4.044   0.186  0.00  0.00    -0.345 N 
ATOM      4  C8  <0> d          -3.211  -2.878   0.855  0.00  0.00     0.146 C 
ATOM      5  C9  <0> d          -4.306  -2.299  -0.048  0.00  0.00     0.147 C 
ATOM      6  N2  <0> d          -5.188  -3.394  -0.478  0.00  0.00    -0.331 N 
ATOM      7  C10 <0> d          -4.595  -4.560  -1.147  0.00  0.00     0.147 C 
ATOM      8  C11 <0> d          -3.500  -5.136  -0.249  0.00  0.00     0.146 C 
ATOM      9  C12 <0> d          -6.516  -3.330  -0.261  0.00  0.00     0.323 C 
ATOM     10  O3  <0> d          -7.006  -2.328   0.224  0.00  0.00    -0.247 OA
ATOM     11  N3  <0> d          -7.303  -4.376  -0.582  0.00  0.00    -0.309 N 
ATOM     12  H16 <0> d          -6.912  -5.178  -0.964  0.00  0.00     0.170 HD
ENDROOT
BRANCH  11  13
ATOM     13  C13 <0> d          -8.686  -4.306  -0.365  0.00  0.00     0.037 A 
ATOM     14  C18 <0> d          -9.407  -5.450  -0.051  0.00  0.00     0.051 A 
ATOM     15  C17 <0> d         -10.759  -5.360   0.163  0.00  0.00     0.038 A 
ATOM     16  C16 <0> d         -11.469  -4.142   0.067  0.00  0.00     0.076 A 
ATOM     17  S1  <0> d         -12.044  -6.515   0.578  0.00  0.00    -0.061 SA
ATOM     18  C15 <0> d         -10.706  -2.997  -0.260  0.00  0.00     0.035 A 
ATOM     19  N4  <0> d         -12.798  -4.218   0.300  0.00  0.00    -0.233 NA
ATOM     20  C14 <0> d          -9.355  -3.089  -0.468  0.00  0.00     0.032 A 
ATOM     21  C19 <0> d         -13.398  -5.349   0.598  0.00  0.00     0.135 A 
BRANCH  21  22
ATOM     22  S2  <0> d         -15.103  -5.641   0.930  0.00  0.00    -0.107 SA
ATOM     23  C20 <0> d         -15.868  -4.004   0.771  0.00  0.00     0.097 C 
ENDBRANCH  21  22
ENDBRANCH  11  13
BRANCH   1  24
ATOM     24  C4  <0> d          -0.406  -3.045   0.482  0.00  0.00     0.063 A 
ATOM     25  C3  <0> d          -0.484  -2.379   1.790  0.00  0.00     0.051 A 
ATOM     26  C2  <0> d           0.518  -1.487   1.810  0.00  0.00     0.050 A 
ATOM     27  C1  <0> d           0.840  -0.561   2.954  0.00  0.00     0.076 C 
ATOM     28  O1  <0> d           1.184  -1.548   0.647  0.00  0.00    -0.319 OA
ATOM     29  C5  <0> d           0.654  -2.473  -0.159  0.00  0.00     0.065 A 
ATOM     30  C6  <0> d           1.141  -2.821  -1.542  0.00  0.00     0.077 C 
ENDBRANCH   1  24
TORSDOF 3
