REMARK  9 active torsions:
REMARK  status: ('A' for Active; 'I' for Inactive)
REMARK    1  A    between atoms: C6_6  and  C7_7 
REMARK       I    between atoms: C7_7  and  N1_9 
REMARK    2  A    between atoms: N1_9  and  N2_10 
REMARK    3  A    between atoms: C8_11  and  C9_12 
REMARK    4  A    between atoms: C8_11  and  C17_24 
REMARK    5  A    between atoms: C17_24  and  C18_25 
REMARK    6  A    between atoms: C17_24  and  O5_29 
REMARK    7  A    between atoms: C18_25  and  C19_26 
REMARK    8  A    between atoms: C18_25  and  O4_28 
REMARK    9  A    between atoms: C19_26  and  O3_27 
ROOT
ATOM      1  N2  <0> d          -2.955  -2.684  -0.032  0.00  0.00    -0.175 NA
ATOM      2  C8  <0> d          -2.721  -3.940   0.043  0.00  0.00     0.095 C 
ENDROOT
BRANCH   2   3
ATOM      3  C9  <0> d          -1.377  -4.429   0.517  0.00  0.00     0.227 A 
ATOM      4  N4  <0> d          -1.609  -5.520   1.477  0.00  0.00    -0.370 N 
ATOM      5  C16 <0> d          -1.085  -6.686   1.232  0.00  0.00     0.057 A 
ATOM      6  H18 <0> d          -2.142  -5.374   2.275  0.00  0.00     0.161 HD
ATOM      7  C11 <0> d          -0.269  -6.918   0.013  0.00  0.00     0.061 A 
ATOM      8  C15 <0> d          -1.287  -7.810   2.159  0.00  0.00     0.055 A 
ATOM      9  N3  <0> d          -0.043  -5.958  -0.867  0.00  0.00    -0.323 N 
ATOM     10  C12 <0> d           0.271  -8.209  -0.191  0.00  0.00     0.033 A 
ATOM     11  C10 <0> d          -0.538  -4.729  -0.704  0.00  0.00     0.251 A 
ATOM     12  H17 <0> d           0.495  -6.151  -1.651  0.00  0.00     0.169 HD
ATOM     13  O2  <0> d          -0.317  -3.862  -1.526  0.00  0.00    -0.270 OA
ATOM     14  C13 <0> d           0.043  -9.196   0.706  0.00  0.00     0.026 A 
ATOM     15  C14 <0> d          -0.726  -9.005   1.867  0.00  0.00     0.036 A 
ATOM     16 Cl1  <0> d          -0.960 -10.338   2.955  0.00  0.00    -0.084 Cl
ENDBRANCH   2   3
BRANCH   2  17
ATOM     17  C17 <0> d          -3.790  -4.930  -0.342  0.00  0.00     0.201 C 
BRANCH  17  18
ATOM     18  C18 <0> d          -5.004  -4.181  -0.895  0.00  0.00     0.176 C 
BRANCH  18  19
ATOM     19  C19 <0> d          -6.135  -5.174  -1.170  0.00  0.00     0.198 C 
BRANCH  19  20
ATOM     20  O3  <0> d          -7.225  -4.493  -1.794  0.00  0.00    -0.398 OA
ATOM     21  H14 <0> d          -7.980  -5.063  -1.998  0.00  0.00     0.209 HD
ENDBRANCH  19  20
ENDBRANCH  18  19
BRANCH  18  22
ATOM     22  O4  <0> d          -5.442  -3.212   0.060  0.00  0.00    -0.390 OA
ATOM     23  H15 <0> d          -5.703  -3.590   0.911  0.00  0.00     0.210 HD
ENDBRANCH  18  22
ENDBRANCH  17  18
BRANCH  17  24
ATOM     24  O5  <0> d          -4.179  -5.683   0.809  0.00  0.00    -0.387 OA
ATOM     25  H16 <0> d          -3.501  -6.294   1.127  0.00  0.00     0.210 HD
ENDBRANCH  17  24
ENDBRANCH   2  17
BRANCH   1  26
ATOM     26  N1  <0> d          -1.934  -1.764   0.239  0.00  0.00    -0.243 N 
ATOM     27  C7  <0> d          -2.189  -0.441   0.192  0.00  0.00     0.271 C 
ATOM     28  O1  <0> d          -3.325  -0.047   0.011  0.00  0.00    -0.266 OA
ATOM     29  H8  <0> d          -1.044  -2.078   0.462  0.00  0.00     0.192 HD
BRANCH  27  30
ATOM     30  C6  <0> d          -1.088   0.530   0.358  0.00  0.00     0.033 A 
ATOM     31  C1  <0> d          -1.327   1.896   0.196  0.00  0.00     0.019 A 
ATOM     32  C2  <0> d          -0.295   2.797   0.353  0.00  0.00     0.025 A 
ATOM     33  C3  <0> d           0.976   2.350   0.671  0.00  0.00     0.034 A 
ATOM     34  C4  <0> d           1.220   0.996   0.834  0.00  0.00     0.025 A 
ATOM     35 Cl2  <0> d           2.270   3.490   0.867  0.00  0.00    -0.084 Cl
ATOM     36  C5  <0> d           0.196   0.085   0.679  0.00  0.00     0.019 A 
ENDBRANCH  27  30
ENDBRANCH   1  26
TORSDOF 9
