REMARK  3 active torsions:
REMARK  status: ('A' for Active; 'I' for Inactive)
REMARK    1  A    between atoms: N1_4  and  C7_10 
REMARK    2  A    between atoms: C4_5  and  N3_9 
REMARK    3  A    between atoms: C7_10  and  C8_11 
ROOT
ATOM      1  C1  <0> d          -0.018   1.503   0.010  0.00  0.00     0.052 C 
ATOM      2  C2  <0> d           0.002  -0.004   0.002  0.00  0.00    -0.015 A 
ATOM      3  C3  <0> d           0.008  -0.799  -1.079  0.00  0.00     0.017 A 
ATOM      4  N1  <0> d           0.029  -2.110  -0.678  0.00  0.00    -0.331 N 
ATOM      5  C4  <0> d           0.036  -2.184   0.678  0.00  0.00     0.123 A 
ATOM      6  C5  <0> d           0.026  -0.887   1.176  0.00  0.00     0.096 A 
ATOM      7  C6  <0> d           0.033  -0.492   2.552  0.00  0.00     0.104 C 
ATOM      8  N2  <0> d           0.039  -0.178   3.644  0.00  0.00    -0.191 NA
ATOM      9  C12 <0> d          -0.006  -0.326  -2.510  0.00  0.00     0.069 C 
ENDROOT
BRANCH   5  10
ATOM     10  N3  <0> d           0.056  -3.344   1.430  0.00  0.00    -0.384 N 
ATOM     11  H4  <0> d           0.066  -4.208   0.989  0.00  0.00     0.157 HD
ATOM     12  H5  <0> d           0.060  -3.295   2.399  0.00  0.00     0.157 HD
ENDBRANCH   5  10
BRANCH   4  13
ATOM     13  C7  <0> d           0.040  -3.264  -1.581  0.00  0.00     0.178 C 
BRANCH  13  14
ATOM     14  C8  <0> d           1.465  -3.639  -1.897  0.00  0.00     0.020 A 
ATOM     15  S1  <0> d           2.526  -3.077  -3.219  0.00  0.00    -0.077 SA
ATOM     16  C10 <0> d           3.890  -3.978  -2.819  0.00  0.00     0.071 A 
ATOM     17  N4  <0> d           3.509  -4.644  -1.758  0.00  0.00    -0.257 NA
ATOM     18  C11 <0> d           5.226  -4.014  -3.517  0.00  0.00     0.078 C 
ATOM     19  C9  <0> d           2.296  -4.503  -1.260  0.00  0.00     0.133 A 
ENDBRANCH  13  14
ENDBRANCH   4  13
TORSDOF 3
