REMARK  7 active torsions:
REMARK  status: ('A' for Active; 'I' for Inactive)
REMARK    1  A    between atoms: C2_2  and  C3_3 
REMARK    2  A    between atoms: C2_2  and  S1_12 
REMARK       I    between atoms: C3_3  and  N1_5 
REMARK    3  A    between atoms: N1_5  and  C4_6 
REMARK    4  A    between atoms: C4_6  and  C5_7 
REMARK    5  A    between atoms: S1_12  and  C9_13 
REMARK    6  A    between atoms: C10_16  and  C14_21 
REMARK    7  A    between atoms: N4_17  and  C11_18 
ROOT
ATOM      1  C9  <0> d           2.516  -0.044   1.192  0.00  0.00     0.268 A 
ATOM      2  N2  <0> d           2.388   1.404   0.959  0.00  0.00    -0.279 N 
ATOM      3  N3  <0> d           3.082   1.679  -0.226  0.00  0.00    -0.158 NA
ATOM      4  C10 <0> d           3.606   0.594  -0.731  0.00  0.00     0.157 A 
ATOM      5  N4  <0> d           3.323  -0.526   0.059  0.00  0.00    -0.328 N 
ATOM      6  H16 <0> d           1.915   2.042   1.516  0.00  0.00     0.185 HD
ENDROOT
BRANCH   1   7
ATOM      7  S1  <0> d           0.883  -0.834   1.189  0.00  0.00    -0.108 SA
BRANCH   7   8
ATOM      8  C2  <0> d           0.185  -0.394  -0.426  0.00  0.00     0.139 C 
ATOM      9  C1  <0> d          -0.027   1.120  -0.495  0.00  0.00     0.031 C 
BRANCH   8  10
ATOM     10  C3  <0> d          -1.136  -1.095  -0.610  0.00  0.00     0.231 C 
ATOM     11  O1  <0> d          -1.783  -1.433   0.358  0.00  0.00    -0.272 OA
ATOM     12  N1  <0> d          -1.598  -1.346  -1.851  0.00  0.00    -0.358 N 
ATOM     13  H7  <0> d          -1.081  -1.075  -2.626  0.00  0.00     0.162 HD
BRANCH  12  14
ATOM     14  C4  <0> d          -2.883  -2.028  -2.030  0.00  0.00     0.154 C 
BRANCH  14  15
ATOM     15  C5  <0> d          -3.171  -2.188  -3.524  0.00  0.00     0.139 C 
ATOM     16  O2  <0> d          -3.295  -0.901  -4.149  0.00  0.00    -0.384 OA
ATOM     17  C8  <0> d          -4.311  -0.944  -5.159  0.00  0.00     0.168 C 
ATOM     18  C7  <0> d          -4.912  -2.366  -5.156  0.00  0.00     0.029 C 
ATOM     19  C6  <0> d          -4.543  -2.877  -3.736  0.00  0.00     0.035 C 
ENDBRANCH  14  15
ENDBRANCH  12  14
ENDBRANCH   8  10
ENDBRANCH   7   8
ENDBRANCH   1   7
BRANCH   5  20
ATOM     20  C11 <0> d           3.745  -1.907  -0.190  0.00  0.00     0.089 A 
ATOM     21  C13 <0> d           4.705  -2.545   0.817  0.00  0.00     0.027 A 
ATOM     22  C12 <0> d           3.240  -2.985   0.771  0.00  0.00     0.027 A 
ENDBRANCH   5  20
BRANCH   4  23
ATOM     23  C14 <0> d           4.359   0.556  -1.915  0.00  0.00     0.019 A 
ATOM     24  C21 <0> d           4.909  -0.669  -2.611  0.00  0.00     0.163 A 
ATOM     25  N5  <0> d           5.612  -0.179  -3.800  0.00  0.00    -0.385 N 
ATOM     26  C20 <0> d           5.530   1.137  -3.843  0.00  0.00     0.039 A 
ATOM     27  H28 <0> d           6.070  -0.734  -4.450  0.00  0.00     0.160 HD
ATOM     28  C15 <0> d           4.761   1.642  -2.694  0.00  0.00     0.002 A 
ATOM     29  C19 <0> d           6.040   2.079  -4.772  0.00  0.00     0.030 A 
ATOM     30  C16 <0> d           4.564   3.033  -2.564  0.00  0.00     0.014 A 
ATOM     31  C17 <0> d           5.082   3.877  -3.493  0.00  0.00     0.001 A 
ATOM     32  C18 <0> d           5.812   3.402  -4.585  0.00  0.00     0.002 A 
ENDBRANCH   4  23
TORSDOF 7
