REMARK  8 active torsions:
REMARK  status: ('A' for Active; 'I' for Inactive)
REMARK    1  A    between atoms: C3_3  and  C8_11 
REMARK    2  A    between atoms: N1_5  and  C5_7 
REMARK    3  A    between atoms: C5_7  and  C6_8 
REMARK    4  A    between atoms: C6_8  and  O1_9 
REMARK    5  A    between atoms: C8_11  and  N3_12 
REMARK    6  A    between atoms: N3_12  and  C9_13 
REMARK    7  A    between atoms: C9_13  and  C10_14 
REMARK       I    between atoms: C10_14  and  N4_16 
REMARK    8  A    between atoms: N4_16  and  C11_17 
ROOT
ATOM      1  N3  <0> d           1.376  -0.194  -3.045  0.00  0.00    -0.063 N 
ATOM      2  H14 <0> d           1.839   0.489  -2.465  0.00  0.00     0.278 HD
ATOM      3  H20 <0> d           1.870  -1.072  -2.991  0.00  0.00     0.278 HD
ENDROOT
BRANCH   1   4
ATOM      4  C8  <0> d          -0.004  -0.379  -2.576  0.00  0.00     0.275 C 
BRANCH   4   5
ATOM      5  C3  <0> d           0.011  -0.860  -1.148  0.00  0.00     0.017 A 
ATOM      6  C2  <0> d          -0.003  -0.051  -0.007  0.00  0.00     0.061 A 
ATOM      7  C1  <0> d          -0.034   1.455   0.007  0.00  0.00     0.073 C 
ATOM      8  N2  <0> d           0.022  -0.828   1.045  0.00  0.00    -0.177 NA
ATOM      9  N1  <0> d           0.043  -2.159   0.606  0.00  0.00    -0.272 N 
ATOM     10  C4  <0> d           0.039  -2.151  -0.743  0.00  0.00     0.036 A 
ATOM     11  C7  <0> d           0.062  -3.363  -1.638  0.00  0.00     0.070 C 
BRANCH   9  12
ATOM     12  C5  <0> d           0.070  -3.348   1.462  0.00  0.00     0.177 C 
BRANCH  12  13
ATOM     13  C6  <0> d           1.522  -3.732   1.755  0.00  0.00     0.185 C 
BRANCH  13  14
ATOM     14  O1  <0> d           1.549  -4.891   2.589  0.00  0.00    -0.399 OA
ATOM     15  H8  <0> d           2.439  -5.192   2.816  0.00  0.00     0.209 HD
ENDBRANCH  13  14
ENDBRANCH  12  13
ENDBRANCH   9  12
ENDBRANCH   4   5
ENDBRANCH   1   4
BRANCH   1  16
ATOM     16  C9  <0> d           1.361   0.275  -4.437  0.00  0.00     0.335 C 
BRANCH  16  17
ATOM     17  C10 <0> d           2.777   0.465  -4.918  0.00  0.00     0.247 C 
ATOM     18  O2  <0> d           3.707   0.233  -4.174  0.00  0.00    -0.271 OA
ATOM     19  N4  <0> d           3.010   0.893  -6.175  0.00  0.00    -0.323 N 
ATOM     20  H17 <0> d           2.271   1.017  -6.790  0.00  0.00     0.169 HD
BRANCH  19  21
ATOM     21  C11 <0> d           4.321   1.159  -6.592  0.00  0.00     0.077 A 
ATOM     22  C16 <0> d           4.569   2.190  -7.491  0.00  0.00     0.184 A 
ATOM     23  C15 <0> d           5.867   2.455  -7.896  0.00  0.00     0.195 A 
ATOM     24  F1  <0> d           3.547   2.937  -7.963  0.00  0.00    -0.200 F 
ATOM     25  C14 <0> d           6.914   1.684  -7.416  0.00  0.00     0.158 A 
ATOM     26  F2  <0> d           6.111   3.460  -8.765  0.00  0.00    -0.199 F 
ATOM     27  C13 <0> d           6.665   0.653  -6.525  0.00  0.00     0.048 A 
ATOM     28  F3  <0> d           8.179   1.939  -7.816  0.00  0.00    -0.203 F 
ATOM     29  C12 <0> d           5.373   0.390  -6.113  0.00  0.00     0.036 A 
ENDBRANCH  19  21
ENDBRANCH  16  17
ENDBRANCH   1  16
TORSDOF 8
