REMARK  6 active torsions:
REMARK  status: ('A' for Active; 'I' for Inactive)
REMARK    1  A    between atoms: C2_2  and  C3_3 
REMARK    2  A    between atoms: C2_2  and  N3_14 
REMARK       I    between atoms: C3_3  and  N1_5 
REMARK    3  A    between atoms: N1_5  and  C4_6 
REMARK    4  A    between atoms: C5_7  and  C8_11 
REMARK       I    between atoms: C8_11  and  N2_13 
REMARK    5  A    between atoms: C11_17  and  C14_20 
REMARK    6  A    between atoms: C14_20  and  N4_21 
ROOT
ATOM      1  N3  <0> d           0.517  -0.497   1.111  0.00  0.00    -0.059 N 
ATOM      2  C9  <0> d           0.123  -1.793   0.548  0.00  0.00     0.236 C 
ATOM      3  C10 <0> d           0.529  -2.915   1.506  0.00  0.00     0.034 C 
ATOM      4  C11 <0> d          -0.171  -2.708   2.852  0.00  0.00     0.015 C 
ATOM      5  C12 <0> d           0.188  -1.322   3.395  0.00  0.00     0.034 C 
ATOM      6  C13 <0> d          -0.206  -0.259   2.367  0.00  0.00     0.236 C 
ATOM      7  H34 <0> d           1.510  -0.498   1.291  0.00  0.00     0.280 HD
ENDROOT
BRANCH   1   8
ATOM      8  C2  <0> d           0.195   0.570   0.154  0.00  0.00     0.275 C 
ATOM      9  C1  <0> d           0.532   1.929   0.771  0.00  0.00     0.050 C 
BRANCH   8  10
ATOM     10  C3  <0> d           1.002   0.376  -1.104  0.00  0.00     0.253 C 
ATOM     11  O1  <0> d           2.074  -0.190  -1.056  0.00  0.00    -0.271 OA
ATOM     12  N1  <0> d           0.533   0.831  -2.283  0.00  0.00    -0.319 N 
ATOM     13  H5  <0> d          -0.324   1.283  -2.321  0.00  0.00     0.169 HD
BRANCH  12  14
ATOM     14  C4  <0> d           1.276   0.652  -3.440  0.00  0.00     0.092 A 
ATOM     15  S1  <0> d           2.769  -0.095  -3.602  0.00  0.00    -0.083 SA
ATOM     16  C7  <0> d           3.021   0.085  -5.354  0.00  0.00     0.053 A 
ATOM     17  C6  <0> d           1.917   0.739  -5.761  0.00  0.00     0.027 A 
ATOM     18  C5  <0> d           0.957   1.055  -4.729  0.00  0.00     0.066 A 
BRANCH  18  19
ATOM     19  C8  <0> d          -0.291   1.764  -5.028  0.00  0.00     0.252 C 
ATOM     20  O2  <0> d          -1.079   2.014  -4.134  0.00  0.00    -0.268 OA
ATOM     21  N2  <0> d          -0.566   2.140  -6.293  0.00  0.00    -0.366 N 
ATOM     22  H8  <0> d           0.061   1.940  -7.005  0.00  0.00     0.159 HD
ATOM     23  H9  <0> d          -1.392   2.609  -6.491  0.00  0.00     0.159 HD
ENDBRANCH  18  19
ENDBRANCH  12  14
ENDBRANCH   8  10
ENDBRANCH   1   8
BRANCH   4  24
ATOM     24  C14 <0> d           0.292  -3.780   3.840  0.00  0.00     0.239 C 
BRANCH  24  25
ATOM     25  N4  <0> d          -0.487  -3.672   5.081  0.00  0.00    -0.071 N 
ATOM     26  C20 <0> d          -1.815  -4.003   4.806  0.00  0.00     0.235 C 
ATOM     27  C19 <0> d          -2.724  -3.823   6.040  0.00  0.00     0.028 C 
ATOM     28  C18 <0> d          -2.537  -4.999   6.964  0.00  0.00     0.002 C 
ATOM     29  C17 <0> d          -1.467  -4.735   8.042  0.00  0.00     0.002 C 
ATOM     30  C16 <0> d          -0.243  -4.000   7.465  0.00  0.00     0.028 C 
ATOM     31  C15 <0> d           0.131  -4.536   6.105  0.00  0.00     0.235 C 
ATOM     32  H33 <0> d          -0.452  -2.716   5.402  0.00  0.00     0.279 HD
ENDBRANCH  24  25
ENDBRANCH   4  24
TORSDOF 6
