REMARK  7 active torsions:
REMARK  status: ('A' for Active; 'I' for Inactive)
REMARK    1  A    between atoms: C2_2  and  C3_3 
REMARK    2  A    between atoms: C2_2  and  C17_21 
REMARK       I    between atoms: N1_6  and  C8_9 
REMARK    3  A    between atoms: C8_9  and  C9_11 
REMARK       I    between atoms: C17_21  and  N3_23 
REMARK    4  A    between atoms: N3_23  and  C18_24 
REMARK    5  A    between atoms: C18_24  and  C19_25 
REMARK    6  A    between atoms: C19_25  and  C20_26 
REMARK    7  A    between atoms: C20_26  and  N4_27 
ROOT
ATOM      1  C3  <0> d           0.742  -0.511   1.242  0.00  0.00     0.001 C 
ATOM      2  C4  <0> d           0.761  -2.041   1.234  0.00  0.00     0.025 C 
ATOM      3  C5  <0> d           1.472  -2.545   2.493  0.00  0.00     0.126 C 
ATOM      4  N1  <0> d           2.803  -1.926   2.566  0.00  0.00    -0.350 N 
ATOM      5  C6  <0> d           2.905  -0.462   2.490  0.00  0.00     0.126 C 
ATOM      6  C7  <0> d           2.178   0.019   1.230  0.00  0.00     0.025 C 
ATOM      7  C8  <0> d           3.908  -2.685   2.699  0.00  0.00     0.246 C 
ATOM      8  O1  <0> d           3.810  -3.893   2.760  0.00  0.00    -0.271 OA
ENDROOT
BRANCH   1   9
ATOM      9  C2  <0> d           0.002  -0.004   0.002  0.00  0.00     0.078 C 
ATOM     10  C1  <0> d          -0.019   1.526   0.010  0.00  0.00     0.020 C 
BRANCH   9  11
ATOM     11  C17 <0> d          -1.412  -0.526   0.013  0.00  0.00     0.221 C 
ATOM     12  O2  <0> d          -1.790  -1.233   0.922  0.00  0.00    -0.273 OA
ATOM     13  N3  <0> d          -2.256  -0.206  -0.988  0.00  0.00    -0.361 N 
ATOM     14  H19 <0> d          -1.953   0.360  -1.716  0.00  0.00     0.162 HD
BRANCH  13  15
ATOM     15  C18 <0> d          -3.630  -0.713  -0.978  0.00  0.00     0.124 C 
BRANCH  15  16
ATOM     16  C19 <0> d          -4.370  -0.206  -2.217  0.00  0.00     0.050 C 
BRANCH  16  17
ATOM     17  C20 <0> d          -5.805  -0.736  -2.207  0.00  0.00     0.274 C 
BRANCH  17  18
ATOM     18  N4  <0> d          -6.516  -0.249  -3.397  0.00  0.00     0.091 N 
ATOM     19  C24 <0> d          -7.814  -0.922  -3.547  0.00  0.00     0.300 C 
ATOM     20  C23 <0> d          -8.494  -0.432  -4.827  0.00  0.00     0.264 C 
ATOM     21  N5  <0> d          -8.682   1.023  -4.755  0.00  0.00    -0.072 N 
ATOM     22  C22 <0> d          -7.376   1.682  -4.630  0.00  0.00     0.264 C 
ATOM     23  C25 <0> d          -9.352   1.491  -5.977  0.00  0.00     0.269 C 
ATOM     24  H38 <0> d          -9.251   1.249  -3.953  0.00  0.00     0.279 HD
ATOM     25  C21 <0> d          -6.687   1.210  -3.348  0.00  0.00     0.300 C 
ENDBRANCH  17  18
ENDBRANCH  16  17
ENDBRANCH  15  16
ENDBRANCH  13  15
ENDBRANCH   9  11
ENDBRANCH   1   9
BRANCH   7  26
ATOM     26  C9  <0> d           5.265  -2.035   2.771  0.00  0.00     0.198 A 
ATOM     27  N2  <0> d           6.311  -3.057   2.890  0.00  0.00    -0.373 N 
ATOM     28  C16 <0> d           7.109  -2.960   1.853  0.00  0.00     0.039 A 
ATOM     29  H37 <0> d           6.396  -3.698   3.614  0.00  0.00     0.161 HD
ATOM     30  C11 <0> d           6.662  -1.865   0.963  0.00  0.00    -0.009 A 
ATOM     31  C15 <0> d           8.266  -3.696   1.477  0.00  0.00     0.031 A 
ATOM     32  C10 <0> d           5.556  -1.290   1.488  0.00  0.00     0.021 A 
ATOM     33  C12 <0> d           7.436  -1.602  -0.256  0.00  0.00     0.037 A 
ATOM     34  C13 <0> d           8.523  -2.364  -0.521  0.00  0.00     0.035 A 
ATOM     35  C14 <0> d           8.927  -3.395   0.339  0.00  0.00     0.026 A 
ATOM     36 Cl1  <0> d           9.441  -2.056  -1.962  0.00  0.00    -0.084 Cl
ENDBRANCH   7  26
TORSDOF 7
