REMARK  7 active torsions:
REMARK  status: ('A' for Active; 'I' for Inactive)
REMARK    1  A    between atoms: C2_2  and  O1_3 
REMARK    2  A    between atoms: O1_3  and  C3_4 
REMARK    3  A    between atoms: C6_7  and  C9_13 
REMARK    4  A    between atoms: C8_9  and  N1_10 
REMARK       I    between atoms: C9_13  and  N2_15 
REMARK    5  A    between atoms: N2_15  and  C10_16 
REMARK    6  A    between atoms: N3_18  and  C11_19 
REMARK    7  A    between atoms: C16_24  and  C17_25 
ROOT
ATOM      1  C9  <0> d           0.177  -4.204   0.422  0.00  0.00     0.257 C 
ATOM      2  O4  <0> d          -0.853  -4.806   0.657  0.00  0.00    -0.267 OA
ATOM      3  N2  <0> d           1.312  -4.885   0.169  0.00  0.00    -0.299 N 
ATOM      4  H9  <0> d           2.134  -4.405  -0.018  0.00  0.00     0.171 HD
ENDROOT
BRANCH   3   5
ATOM      5  C10 <0> d           1.305  -6.233   0.177  0.00  0.00     0.179 C 
ATOM      6  S1  <0> d          -0.145  -7.080   0.508  0.00  0.00    -0.040 SA
ATOM      7  N3  <0> d           2.441  -6.914  -0.076  0.00  0.00    -0.332 N 
ATOM      8  H10 <0> d           3.246  -6.437  -0.331  0.00  0.00     0.168 HD
BRANCH   7   9
ATOM      9  C11 <0> d           2.458  -8.302   0.029  0.00  0.00     0.051 A 
ATOM     10  C16 <0> d           3.489  -8.943   0.731  0.00  0.00     0.067 A 
ATOM     11  C15 <0> d           3.494 -10.337   0.829  0.00  0.00     0.021 A 
ATOM     12  C14 <0> d           2.489 -11.071   0.238  0.00  0.00     0.001 A 
ATOM     13  C13 <0> d           1.472 -10.434  -0.455  0.00  0.00     0.002 A 
ATOM     14  C12 <0> d           1.450  -9.058  -0.556  0.00  0.00     0.030 A 
BRANCH  10  15
ATOM     15  C17 <0> d           4.561  -8.152   1.362  0.00  0.00     0.211 C 
ATOM     16  O5  <0> d           4.501  -6.938   1.360  0.00  0.00    -0.644 OA
ATOM     17  O6  <0> d           5.607  -8.774   1.940  0.00  0.00    -0.644 OA
ENDBRANCH  10  15
ENDBRANCH   7   9
ENDBRANCH   3   5
BRANCH   1  18
ATOM     18  C6  <0> d           0.184  -2.729   0.414  0.00  0.00     0.035 A 
ATOM     19  C5  <0> d           1.368  -2.036   0.144  0.00  0.00     0.020 A 
ATOM     20  C4  <0> d           1.370  -0.659   0.136  0.00  0.00     0.040 A 
ATOM     21  C3  <0> d           0.198   0.042   0.397  0.00  0.00     0.101 A 
ATOM     22  C8  <0> d          -0.979  -0.644   0.672  0.00  0.00     0.137 A 
ATOM     23  C7  <0> d          -0.992  -2.021   0.675  0.00  0.00     0.056 A 
BRANCH  21  24
ATOM     24  O1  <0> d           0.205   1.399   0.389  0.00  0.00    -0.349 OA
BRANCH  24  25
ATOM     25  C2  <0> d           1.450   2.039   0.105  0.00  0.00     0.171 C 
ATOM     26  C1  <0> d           1.262   3.558   0.140  0.00  0.00     0.034 C 
ENDBRANCH  24  25
ENDBRANCH  21  24
BRANCH  22  27
ATOM     27  N1  <0> d          -2.223   0.107   0.955  0.00  0.00    -0.113 N 
ATOM     28  O2  <0> d          -3.255  -0.493   1.195  0.00  0.00    -0.532 OA
ATOM     29  O3  <0> d          -2.214   1.325   0.947  0.00  0.00    -0.532 OA
ENDBRANCH  22  27
ENDBRANCH   1  18
TORSDOF 7
