REMARK  3 active torsions:
REMARK  status: ('A' for Active; 'I' for Inactive)
REMARK    1  A    between atoms: N1_4  and  C9_13 
REMARK    2  A    between atoms: C6_7  and  N4_12 
REMARK    3  A    between atoms: C9_13  and  C11_15 
ROOT
ATOM      1  C1  <0> d           0.129   1.605  -0.331  0.00  0.00     0.051 C 
ATOM      2  C2  <0> d           0.112   0.101  -0.233  0.00  0.00    -0.022 A 
ATOM      3  C3  <0> d           0.078  -0.768  -1.256  0.00  0.00     0.017 A 
ATOM      4  N1  <0> d           0.073  -2.052  -0.775  0.00  0.00    -0.326 N 
ATOM      5  C4  <0> d           0.103  -2.040   0.592  0.00  0.00     0.147 A 
ATOM      6  C5  <0> d           0.136  -0.693   0.995  0.00  0.00     0.063 A 
ATOM      7  C6  <0> d           0.177  -0.401   2.367  0.00  0.00     0.138 A 
ATOM      8  N2  <0> d           0.187  -1.415   3.227  0.00  0.00    -0.216 NA
ATOM      9  C7  <0> d           0.159  -2.666   2.806  0.00  0.00     0.126 A 
ATOM     10  N3  <0> d           0.112  -2.986   1.530  0.00  0.00    -0.215 NA
ATOM     11  C8  <0> d           0.173  -3.773   3.828  0.00  0.00     0.093 C 
ATOM     12  C16 <0> d           0.051  -0.389  -2.714  0.00  0.00     0.069 C 
ENDROOT
BRANCH   4  13
ATOM     13  C9  <0> d           0.039  -3.259  -1.605  0.00  0.00     0.120 C 
ATOM     14  C10 <0> d          -1.121  -4.152  -1.158  0.00  0.00     0.038 C 
BRANCH  13  15
ATOM     15  C11 <0> d           1.337  -4.009  -1.454  0.00  0.00    -0.033 A 
ATOM     16  C15 <0> d           2.244  -4.075  -2.501  0.00  0.00     0.028 A 
ATOM     17  C14 <0> d           3.427  -4.767  -2.324  0.00  0.00     0.116 A 
ATOM     18  N5  <0> d           3.693  -5.368  -1.181  0.00  0.00    -0.273 NA
ATOM     19  C13 <0> d           2.852  -5.331  -0.166  0.00  0.00     0.116 A 
ATOM     20  C12 <0> d           1.651  -4.653  -0.267  0.00  0.00     0.028 A 
ENDBRANCH  13  15
ENDBRANCH   4  13
BRANCH   7  21
ATOM     21  N4  <0> d           0.207   0.908   2.813  0.00  0.00    -0.383 N 
ATOM     22  H8  <0> d           0.199   1.638   2.174  0.00  0.00     0.157 HD
ATOM     23  H9  <0> d           0.235   1.096   3.764  0.00  0.00     0.157 HD
ENDBRANCH   7  21
TORSDOF 3
