REMARK  3 active torsions:
REMARK  status: ('A' for Active; 'I' for Inactive)
REMARK    1  A    between atoms: C4_8  and  C5_10 
REMARK       I    between atoms: C5_10  and  N5_12 
REMARK    2  A    between atoms: N5_12  and  C6_13 
REMARK    3  A    between atoms: C11_18  and  C12_19 
ROOT
ATOM      1  C5  <0> d           0.654  -1.738   4.728  0.00  0.00     0.283 C 
ATOM      2  O1  <0> d           1.210  -2.676   5.266  0.00  0.00    -0.265 OA
ATOM      3  N5  <0> d           0.063  -0.786   5.476  0.00  0.00    -0.321 N 
ATOM      4  H4  <0> d          -0.310   0.002   5.051  0.00  0.00     0.169 HD
ENDROOT
BRANCH   1   5
ATOM      5  C4  <0> d           0.628  -1.643   3.254  0.00  0.00     0.189 A 
ATOM      6  N4  <0> d           0.086  -0.721   2.501  0.00  0.00    -0.151 NA
ATOM      7  N3  <0> d           0.158  -0.791   1.116  0.00  0.00    -0.191 N 
ATOM      8  C2  <0> d          -0.246  -0.084  -0.001  0.00  0.00     0.148 A 
ATOM      9  C3  <0> d           0.821  -1.877   0.590  0.00  0.00     0.218 A 
ATOM     10  C1  <0> d          -1.026   1.206   0.002  0.00  0.00     0.095 C 
ATOM     11  N1  <0> d           0.170  -0.725  -1.055  0.00  0.00    -0.133 NA
ATOM     12  N2  <0> d           0.804  -1.789  -0.706  0.00  0.00    -0.120 NA
ATOM     13  S1  <0> d           1.317  -2.763   2.046  0.00  0.00    -0.021 SA
ENDBRANCH   1   5
BRANCH   3  14
ATOM     14  C6  <0> d          -0.013  -0.933   6.864  0.00  0.00     0.041 A 
ATOM     15  C11 <0> d          -0.118   0.187   7.678  0.00  0.00    -0.028 A 
ATOM     16  C10 <0> d          -0.199   0.037   9.049  0.00  0.00     0.010 A 
ATOM     17  C9  <0> d          -0.163  -1.226   9.611  0.00  0.00     0.001 A 
ATOM     18  C8  <0> d          -0.051  -2.343   8.804  0.00  0.00     0.002 A 
ATOM     19  C7  <0> d           0.024  -2.201   7.432  0.00  0.00     0.030 A 
BRANCH  15  20
ATOM     20  C12 <0> d          -0.151   1.563   7.067  0.00  0.00     0.013 C 
ATOM     21  C13 <0> d          -1.403   2.303   7.542  0.00  0.00     0.015 C 
ATOM     22  C14 <0> d           1.094   2.342   7.495  0.00  0.00     0.015 C 
ENDBRANCH  15  20
ENDBRANCH   3  14
TORSDOF 3
