REMARK  6 active torsions:
REMARK  status: ('A' for Active; 'I' for Inactive)
REMARK    1  A    between atoms: C4_4  and  C7_7 
REMARK    2  A    between atoms: C7_7  and  N1_8 
REMARK    3  A    between atoms: C11_12  and  C13_15 
REMARK       I    between atoms: C13_15  and  N2_17 
REMARK    4  A    between atoms: N2_17  and  C14_18 
REMARK    5  A    between atoms: N3_21  and  C17_23 
REMARK    6  A    between atoms: C17_23  and  C18_24 
ROOT
ATOM      1  C13 <0> d           3.814  -3.569   3.986  0.00  0.00     0.262 C 
ATOM      2  O2  <0> d           4.262  -3.814   5.090  0.00  0.00    -0.267 OA
ATOM      3  N2  <0> d           2.965  -4.434   3.396  0.00  0.00    -0.306 N 
ATOM      4  H11 <0> d           2.669  -4.278   2.485  0.00  0.00     0.170 HD
ENDROOT
BRANCH   1   5
ATOM      5  C11 <0> d           4.200  -2.330   3.294  0.00  0.00     0.100 A 
ATOM      6  C10 <0> d           4.986  -1.375   3.937  0.00  0.00     0.024 A 
ATOM      7  C9  <0> d           5.332  -0.212   3.248  0.00  0.00     0.018 A 
ATOM      8  C8  <0> d           4.907  -0.022   1.973  0.00  0.00     0.094 A 
ATOM      9  N1  <0> d           4.143  -0.946   1.343  0.00  0.00    -0.320 N 
ATOM     10  C12 <0> d           3.776  -2.084   1.963  0.00  0.00     0.263 A 
ATOM     11  O1  <0> d           3.084  -2.901   1.381  0.00  0.00    -0.267 OA
BRANCH   9  12
ATOM     12  C7  <0> d           3.705  -0.702  -0.034  0.00  0.00     0.170 C 
BRANCH  12  13
ATOM     13  C4  <0> d           2.385   0.025  -0.019  0.00  0.00    -0.040 A 
ATOM     14  C3  <0> d           2.358   1.407  -0.010  0.00  0.00     0.009 A 
ATOM     15  C2  <0> d           1.147   2.075   0.002  0.00  0.00     0.001 A 
ATOM     16  C1  <0> d          -0.036   1.359   0.005  0.00  0.00     0.000 A 
ATOM     17  C6  <0> d          -0.008  -0.023  -0.004  0.00  0.00     0.001 A 
ATOM     18  C5  <0> d           1.202  -0.690  -0.015  0.00  0.00     0.009 A 
ENDBRANCH  12  13
ENDBRANCH   9  12
ENDBRANCH   1   5
BRANCH   3  19
ATOM     19  C14 <0> d           2.510  -5.557   4.098  0.00  0.00     0.151 A 
ATOM     20  N4  <0> d           1.685  -6.470   3.640  0.00  0.00    -0.154 NA
ATOM     21  N3  <0> d           1.485  -7.422   4.648  0.00  0.00    -0.273 N 
ATOM     22  C16 <0> d           2.207  -7.049   5.725  0.00  0.00     0.116 A 
ATOM     23  C15 <0> d           2.851  -5.900   5.416  0.00  0.00     0.071 A 
BRANCH  21  24
ATOM     24  C17 <0> d           0.637  -8.613   4.550  0.00  0.00     0.209 C 
BRANCH  24  25
ATOM     25  C18 <0> d          -0.756  -8.205   4.147  0.00  0.00     0.054 A 
ATOM     26  N5  <0> d          -1.405  -7.306   4.861  0.00  0.00    -0.264 NA
ATOM     27  C22 <0> d          -2.623  -6.914   4.542  0.00  0.00     0.117 A 
ATOM     28  C21 <0> d          -3.273  -7.447   3.445  0.00  0.00     0.019 A 
ATOM     29  C20 <0> d          -2.625  -8.400   2.673  0.00  0.00     0.003 A 
ATOM     30  C19 <0> d          -1.342  -8.782   3.036  0.00  0.00     0.029 A 
ENDBRANCH  24  25
ENDBRANCH  21  24
ENDBRANCH   3  19
TORSDOF 6
