REMARK  6 active torsions:
REMARK  status: ('A' for Active; 'I' for Inactive)
REMARK    1  A    between atoms: C3_3  and  N1_9 
REMARK    2  A    between atoms: N1_9  and  S1_10 
REMARK    3  A    between atoms: S1_10  and  C8_13 
REMARK    4  A    between atoms: C8_13  and  C9_14 
REMARK    5  A    between atoms: C12_17  and  C15_20 
REMARK    6  A    between atoms: C15_20  and  N2_21 
ROOT
ATOM      1  S1  <0> d          -0.725  -0.657  -3.748  0.00  0.00     0.234 S 
ATOM      2  O1  <0> d          -0.433   0.247  -4.804  0.00  0.00    -0.205 OA
ATOM      3  O2  <0> d          -0.245  -1.994  -3.786  0.00  0.00    -0.205 OA
ENDROOT
BRANCH   1   4
ATOM      4  N1  <0> d          -0.010   0.010  -2.411  0.00  0.00    -0.284 N 
ATOM      5  H7  <0> d           0.520   0.818  -2.497  0.00  0.00     0.178 HD
BRANCH   4   6
ATOM      6  C3  <0> d          -0.171  -0.591  -1.160  0.00  0.00     0.051 A 
ATOM      7  C2  <0> d          -0.269   0.194  -0.019  0.00  0.00     0.004 A 
ATOM      8  C1  <0> d          -0.202   1.696  -0.128  0.00  0.00     0.054 C 
ATOM      9  C7  <0> d          -0.423  -0.404   1.218  0.00  0.00     0.124 A 
ATOM     10  C6  <0> d          -0.491  -1.785   1.317  0.00  0.00     0.043 A 
ATOM     11  F1  <0> d          -0.514   0.357   2.330  0.00  0.00    -0.205 F 
ATOM     12  C5  <0> d          -0.392  -2.567   0.182  0.00  0.00     0.005 A 
ATOM     13  C4  <0> d          -0.233  -1.975  -1.056  0.00  0.00     0.031 A 
ENDBRANCH   4   6
ENDBRANCH   1   4
BRANCH   1  14
ATOM     14  C8  <0> d          -2.502  -0.641  -3.384  0.00  0.00     0.201 C 
BRANCH  14  15
ATOM     15  C9  <0> d          -3.258  -1.233  -4.545  0.00  0.00    -0.043 A 
ATOM     16  C14 <0> d          -3.513  -2.591  -4.585  0.00  0.00     0.009 A 
ATOM     17  C13 <0> d          -4.211  -3.132  -5.649  0.00  0.00     0.009 A 
ATOM     18  C12 <0> d          -4.645  -2.317  -6.677  0.00  0.00    -0.033 A 
ATOM     19  C11 <0> d          -4.385  -0.960  -6.640  0.00  0.00     0.009 A 
ATOM     20  C10 <0> d          -3.691  -0.418  -5.575  0.00  0.00     0.009 A 
BRANCH  18  21
ATOM     21  C15 <0> d          -5.402  -2.908  -7.838  0.00  0.00     0.268 C 
BRANCH  21  22
ATOM     22  N2  <0> d          -4.454  -3.311  -8.887  0.00  0.00    -0.075 N 
ATOM     23  H16 <0> d          -3.816  -3.998  -8.517  0.00  0.00     0.274 HD
ATOM     24  H17 <0> d          -4.961  -3.706  -9.664  0.00  0.00     0.274 HD
ATOM     25  H18 <0> d          -3.936  -2.503  -9.199  0.00  0.00     0.274 HD
ENDBRANCH  21  22
ENDBRANCH  18  21
ENDBRANCH  14  15
ENDBRANCH   1  14
TORSDOF 6
