REMARK  4 active torsions:
REMARK  status: ('A' for Active; 'I' for Inactive)
REMARK    1  A    between atoms: C3_3  and  C5_6 
REMARK    2  A    between atoms: C6_8  and  C7_12 
REMARK    3  A    between atoms: C7_12  and  N4_13 
REMARK       I    between atoms: N4_13  and  C8_14 
REMARK       I    between atoms: C8_14  and  N5_16 
REMARK    4  A    between atoms: N5_16  and  C9_17 
ROOT
ATOM      1  N4  <0> d           6.514   4.844   1.345  0.00  0.00    -0.336 N 
ATOM      2  C8  <0> d           7.221   5.965   1.590  0.00  0.00     0.316 C 
ATOM      3  O1  <0> d           7.633   6.638   0.665  0.00  0.00    -0.247 OA
ATOM      4  N5  <0> d           7.473   6.339   2.860  0.00  0.00    -0.336 N 
ATOM      5  H9  <0> d           6.186   4.307   2.083  0.00  0.00     0.164 HD
ATOM      6  H10 <0> d           7.145   5.802   3.598  0.00  0.00     0.164 HD
ENDROOT
BRANCH   1   7
ATOM      7  C7  <0> d           6.240   4.437  -0.035  0.00  0.00     0.206 C 
BRANCH   7   8
ATOM      8  C6  <0> d           5.439   3.161  -0.034  0.00  0.00     0.166 A 
ATOM      9  N1  <0> d           4.111   3.088  -0.021  0.00  0.00    -0.210 NA
ATOM     10  C5  <0> d           3.734   1.822  -0.024  0.00  0.00     0.163 A 
ATOM     11  N3  <0> d           4.859   1.058  -0.034  0.00  0.00    -0.258 N 
ATOM     12  N2  <0> d           5.940   1.954  -0.045  0.00  0.00    -0.156 NA
ATOM     13  H1  <0> d           4.905   0.089  -0.034  0.00  0.00     0.191 HD
BRANCH  10  14
ATOM     14  C3  <0> d           2.347   1.329  -0.013  0.00  0.00     0.052 A 
ATOM     15  C2  <0> d           1.175   2.042   0.002  0.00  0.00     0.023 A 
ATOM     16  C1  <0> d          -0.016   1.355   0.009  0.00  0.00     0.009 A 
ATOM     17  C4  <0> d           0.002  -0.004   0.002  0.00  0.00     0.050 A 
ATOM     18  S1  <0> d           1.752  -0.355  -0.017  0.00  0.00    -0.098 SA
ENDBRANCH  10  14
ENDBRANCH   7   8
ENDBRANCH   1   7
BRANCH   4  19
ATOM     19  C9  <0> d           8.242   7.557   3.126  0.00  0.00     0.118 C 
ATOM     20  C12 <0> d           8.870   7.516   4.530  0.00  0.00     0.210 C 
ATOM     21  N6  <0> d           9.109   8.957   4.810  0.00  0.00    -0.065 N 
ATOM     22  C13 <0> d          10.219   6.812   4.574  0.00  0.00     0.035 C 
ATOM     23  C11 <0> d           7.885   9.640   4.387  0.00  0.00     0.237 C 
ATOM     24  C16 <0> d           9.464   9.097   6.215  0.00  0.00     0.235 C 
ATOM     25  H23 <0> d           9.879   9.270   4.239  0.00  0.00     0.280 HD
ATOM     26  C10 <0> d           7.306   8.793   3.228  0.00  0.00     0.055 C 
ATOM     27  C15 <0> d          10.824   8.410   6.426  0.00  0.00     0.028 C 
ATOM     28  C14 <0> d          10.760   6.942   6.007  0.00  0.00     0.004 C 
ENDBRANCH   4  19
TORSDOF 4
