REMARK  7 active torsions:
REMARK  status: ('A' for Active; 'I' for Inactive)
REMARK    1  A    between atoms: C2_2  and  C3_3 
REMARK    2  A    between atoms: C3_3  and  S1_4 
REMARK    3  A    between atoms: S1_4  and  C4_6 
REMARK    4  A    between atoms: C4_6  and  C6_8 
REMARK       I    between atoms: C6_8  and  N1_10 
REMARK    5  A    between atoms: N1_10  and  C7_11 
REMARK    6  A    between atoms: C10_14  and  N2_19 
REMARK    7  A    between atoms: C12_16  and  O3_17 
ROOT
ATOM      1  C7  <0> d          -4.460  -6.332  -0.313  0.00  0.00     0.068 A 
ATOM      2  C8  <0> d          -3.868  -7.048   0.718  0.00  0.00     0.035 A 
ATOM      3  C9  <0> d          -3.937  -8.427   0.731  0.00  0.00     0.031 A 
ATOM      4  C10 <0> d          -4.600  -9.101  -0.287  0.00  0.00     0.028 A 
ATOM      5  C11 <0> d          -5.194  -8.389  -1.320  0.00  0.00     0.068 A 
ATOM      6  C12 <0> d          -5.130  -7.005  -1.332  0.00  0.00     0.097 A 
ENDROOT
BRANCH   1   7
ATOM      7  N1  <0> d          -4.389  -4.931  -0.326  0.00  0.00    -0.324 N 
ATOM      8  C6  <0> d          -3.289  -4.307   0.141  0.00  0.00     0.238 C 
ATOM      9  O2  <0> d          -2.394  -4.953   0.645  0.00  0.00    -0.272 OA
ATOM     10  H12 <0> d          -5.132  -4.411  -0.670  0.00  0.00     0.169 HD
BRANCH   8  11
ATOM     11  C4  <0> d          -3.170  -2.809   0.035  0.00  0.00     0.167 C 
ATOM     12  C5  <0> d          -3.868  -2.156   1.231  0.00  0.00     0.034 C 
BRANCH  11  13
ATOM     13  S1  <0> d          -1.418  -2.340   0.028  0.00  0.00     0.028 S 
ATOM     14  O1  <0> d          -0.813  -2.788  -1.178  0.00  0.00    -0.257 OA
BRANCH  13  15
ATOM     15  C3  <0> d          -1.448  -0.526   0.051  0.00  0.00     0.109 C 
BRANCH  15  16
ATOM     16  C2  <0> d          -0.015   0.008   0.047  0.00  0.00     0.008 C 
ATOM     17  C1  <0> d          -0.041   1.538   0.066  0.00  0.00     0.006 C 
ENDBRANCH  15  16
ENDBRANCH  13  15
ENDBRANCH  11  13
ENDBRANCH   8  11
ENDBRANCH   1   7
BRANCH   6  18
ATOM     18  O3  <0> d          -5.715  -6.305  -2.340  0.00  0.00    -0.354 OA
ATOM     19  C13 <0> d          -6.385  -7.061  -3.351  0.00  0.00     0.210 C 
ENDBRANCH   6  18
BRANCH   4  20
ATOM     20  N2  <0> d          -4.668 -10.498  -0.272  0.00  0.00    -0.399 N 
ATOM     21  H19 <0> d          -4.252 -10.996   0.450  0.00  0.00     0.156 HD
ATOM     22  H20 <0> d          -5.130 -10.969  -0.983  0.00  0.00     0.156 HD
ENDBRANCH   4  20
TORSDOF 7
