REMARK  3 active torsions:
REMARK  status: ('A' for Active; 'I' for Inactive)
REMARK       I    between atoms: C2_2  and  N1_4 
REMARK    1  A    between atoms: C9_11  and  N2_13 
REMARK       I    between atoms: N2_13  and  C11_14 
REMARK    2  A    between atoms: C11_14  and  C12_16 
REMARK    3  A    between atoms: N3_24  and  C20_26 
ROOT
ATOM      1  C12 <0> d          -0.557   2.456  -8.349  0.00  0.00     0.127 C 
ATOM      2  C13 <0> d          -1.883   1.983  -9.028  0.00  0.00     0.159 C 
ATOM      3  C14 <0> d          -3.037   2.542  -8.189  0.00  0.00     0.005 C 
ATOM      4  C15 <0> d          -3.098   3.859  -8.422  0.00  0.00     0.012 C 
ATOM      5  C16 <0> d          -1.970   4.103  -9.359  0.00  0.00     0.108 C 
ATOM      6  C17 <0> d          -0.629   3.982  -8.545  0.00  0.00     0.134 C 
ATOM      7  C18 <0> d           0.372   4.543  -9.515  0.00  0.00     0.228 C 
ATOM      8  O3  <0> d           1.557   4.281  -9.531  0.00  0.00    -0.273 OA
ATOM      9  N3  <0> d          -0.257   5.387 -10.371  0.00  0.00    -0.344 N 
ATOM     10  C19 <0> d          -1.749   5.378 -10.112  0.00  0.00     0.169 C 
ATOM     11  O4  <0> d          -1.912   2.891 -10.188  0.00  0.00    -0.364 OA
ENDROOT
BRANCH   1  12
ATOM     12  C11 <0> d          -0.544   2.101  -6.885  0.00  0.00     0.230 C 
ATOM     13  N2  <0> d          -0.547   0.808  -6.505  0.00  0.00    -0.327 N 
ATOM     14  H14 <0> d          -0.624   0.107  -7.171  0.00  0.00     0.169 HD
ATOM     15  O2  <0> d          -0.532   2.979  -6.048  0.00  0.00    -0.273 OA
BRANCH  13  16
ATOM     16  C9  <0> d          -0.437   0.476  -5.149  0.00  0.00     0.035 A 
ATOM     17  C8  <0> d           0.258  -0.662  -4.763  0.00  0.00     0.032 A 
ATOM     18  C7  <0> d           0.366  -0.988  -3.428  0.00  0.00     0.032 A 
ATOM     19  C6  <0> d          -0.221  -0.179  -2.454  0.00  0.00     0.043 A 
ATOM     20  N1  <0> d          -0.227  -0.330  -1.062  0.00  0.00    -0.318 N 
ATOM     21  C5  <0> d          -0.917   0.954  -2.847  0.00  0.00    -0.027 A 
ATOM     22  C2  <0> d           0.365  -1.339  -0.392  0.00  0.00     0.220 C 
ATOM     23  C3  <0> d          -0.967   0.772  -0.441  0.00  0.00     0.137 A 
ATOM     24  C1  <0> d           0.192  -1.455   1.100  0.00  0.00     0.117 C 
ATOM     25  O1  <0> d           1.037  -2.152  -0.990  0.00  0.00    -0.273 OA
ATOM     26  C4  <0> d          -1.441   1.649  -1.610  0.00  0.00     0.061 A 
ATOM     27  C10 <0> d          -1.030   1.279  -4.184  0.00  0.00     0.039 A 
ENDBRANCH  13  16
ENDBRANCH   1  12
BRANCH   9  28
ATOM     28  C20 <0> d           0.419   6.209 -11.377  0.00  0.00     0.087 C 
ATOM     29  C24 <0> d           1.413   7.165 -10.694  0.00  0.00     0.025 C 
ATOM     30  C23 <0> d           2.810   6.818 -11.248  0.00  0.00     0.002 C 
ATOM     31  C22 <0> d           2.522   6.144 -12.612  0.00  0.00     0.002 C 
ATOM     32  C21 <0> d           1.248   5.313 -12.321  0.00  0.00     0.025 C 
ENDBRANCH   9  28
TORSDOF 3
