REMARK  7 active torsions:
REMARK  status: ('A' for Active; 'I' for Inactive)
REMARK    1  A    between atoms: C6_6  and  N1_8 
REMARK    2  A    between atoms: N2_11  and  C12_14 
REMARK    3  A    between atoms: C12_14  and  C13_15 
REMARK    4  A    between atoms: C13_15  and  C14_16 
REMARK    5  A    between atoms: C14_16  and  N3_18 
REMARK       I    between atoms: N3_18  and  C16_19 
REMARK       I    between atoms: C16_19  and  N4_21 
REMARK    6  A    between atoms: N4_21  and  N5_22 
REMARK    7  A    between atoms: N5_22  and  C17_23 
ROOT
ATOM      1  C13 <0> d          -1.694  -6.062   5.866  0.00  0.00     0.052 C 
ENDROOT
BRANCH   1   2
ATOM      2  C12 <0> d          -1.865  -4.554   5.668  0.00  0.00     0.237 C 
BRANCH   2   3
ATOM      3  N2  <0> d          -0.872  -4.071   4.700  0.00  0.00    -0.068 N 
ATOM      4  C9  <0> d          -0.958  -2.609   4.601  0.00  0.00     0.254 C 
ATOM      5  C8  <0> d           0.152  -2.094   3.679  0.00  0.00     0.150 C 
ATOM      6  N1  <0> d           0.051  -2.796   2.390  0.00  0.00    -0.378 N 
ATOM      7  C11 <0> d          -0.039  -4.265   2.406  0.00  0.00     0.150 C 
ATOM      8  C10 <0> d          -1.135  -4.677   3.388  0.00  0.00     0.254 C 
ATOM      9  H30 <0> d           0.052  -4.332   5.011  0.00  0.00     0.280 HD
BRANCH   6  10
ATOM     10  C6  <0> d           0.036  -2.089   1.186  0.00  0.00     0.030 A 
ATOM     11  C5  <0> d           0.053  -2.773  -0.023  0.00  0.00     0.029 A 
ATOM     12  C4  <0> d           0.038  -2.070  -1.212  0.00  0.00     0.003 A 
ATOM     13  C3  <0> d           0.006  -0.688  -1.200  0.00  0.00     0.007 A 
ATOM     14  C2  <0> d          -0.012  -0.004   0.002  0.00  0.00    -0.060 A 
ATOM     15  C1  <0> d          -0.047   1.502   0.010  0.00  0.00     0.048 C 
ATOM     16  C7  <0> d           0.009  -0.700   1.194  0.00  0.00     0.036 A 
ENDBRANCH   6  10
ENDBRANCH   2   3
ENDBRANCH   1   2
BRANCH   1  17
ATOM     17  C14 <0> d          -2.729  -6.564   6.875  0.00  0.00     0.083 C 
ATOM     18  C15 <0> d          -2.641  -8.088   6.979  0.00  0.00     0.032 C 
BRANCH  17  19
ATOM     19  N3  <0> d          -2.462  -5.969   8.186  0.00  0.00    -0.337 N 
ATOM     20  C16 <0> d          -3.460  -5.836   9.082  0.00  0.00     0.335 C 
ATOM     21  O1  <0> d          -4.582  -6.211   8.802  0.00  0.00    -0.246 OA
ATOM     22  N4  <0> d          -3.214  -5.288  10.289  0.00  0.00    -0.237 N 
ATOM     23  H25 <0> d          -3.932  -5.193  10.933  0.00  0.00     0.192 HD
ATOM     24  H24 <0> d          -1.566  -5.670   8.410  0.00  0.00     0.164 HD
BRANCH  22  25
ATOM     25  N5  <0> d          -1.921  -4.857  10.612  0.00  0.00    -0.124 N 
ATOM     26  H26 <0> d          -1.202  -4.952   9.967  0.00  0.00     0.206 HD
BRANCH  25  27
ATOM     27  C17 <0> d          -1.668  -4.294  11.851  0.00  0.00     0.740 A 
ATOM     28  N7  <0> d          -0.440  -3.892  12.140  0.00  0.00    -0.074 NA
ATOM     29  C20 <0> d          -0.166  -3.345  13.313  0.00  0.00     0.138 A 
ATOM     30  C19 <0> d          -1.180  -3.206  14.247  0.00  0.00     0.040 A 
ATOM     31  C18 <0> d          -2.452  -3.643  13.914  0.00  0.00     0.138 A 
ATOM     32  N6  <0> d          -2.660  -4.176  12.722  0.00  0.00    -0.074 NA
ENDBRANCH  25  27
ENDBRANCH  22  25
ENDBRANCH  17  19
ENDBRANCH   1  17
TORSDOF 7
