REMARK  2 active torsions:
REMARK  status: ('A' for Active; 'I' for Inactive)
REMARK    1  A    between atoms: C7_7  and  C8_8 
REMARK    2  A    between atoms: C12_12  and  C15_16 
ROOT
ATOM      1  C8  <0> d          -0.438   1.037   0.193  0.00  0.00     0.201 C 
ATOM      2  C9  <0> d          -1.372   1.484   1.296  0.00  0.00     0.041 C 
ATOM      3  C10 <0> d          -1.039   2.459   2.168  0.00  0.00     0.040 C 
ATOM      4  C11 <0> d          -2.003   2.901   3.243  0.00  0.00     0.070 C 
ATOM      5  C12 <0> d          -2.868   1.715   3.676  0.00  0.00     0.056 C 
ATOM      6  C13 <0> d          -3.616   1.189   2.447  0.00  0.00     0.095 C 
ATOM      7  C14 <0> d          -2.617   0.834   1.381  0.00  0.00     0.160 C 
ATOM      8  O1  <0> d          -2.891  -0.033   0.575  0.00  0.00    -0.293 OA
ATOM      9  N1  <0> d           0.180   3.093   2.115  0.00  0.00    -0.191 N 
ATOM     10  C19 <0> d           1.178   2.523   1.342  0.00  0.00     0.725 A 
ATOM     11  N2  <0> d           0.904   1.550   0.437  0.00  0.00    -0.084 N 
ATOM     12  N3  <0> d           2.120   1.200  -0.148  0.00  0.00    -0.149 NA
ATOM     13  C20 <0> d           3.037   1.954   0.406  0.00  0.00     0.275 A 
ATOM     14  N4  <0> d           2.461   2.755   1.308  0.00  0.00    -0.054 NA
ATOM     15  H17 <0> d           0.336   3.915   2.606  0.00  0.00     0.184 HD
ENDROOT
BRANCH   1  16
ATOM     16  C7  <0> d          -0.940   1.559  -1.128  0.00  0.00    -0.022 A 
ATOM     17  C2  <0> d          -1.173   0.686  -2.173  0.00  0.00    -0.053 A 
ATOM     18  C1  <0> d          -0.923  -0.789  -1.992  0.00  0.00     0.049 C 
ATOM     19  C3  <0> d          -1.634   1.165  -3.385  0.00  0.00     0.007 A 
ATOM     20  C4  <0> d          -1.863   2.518  -3.551  0.00  0.00     0.001 A 
ATOM     21  C5  <0> d          -1.632   3.392  -2.505  0.00  0.00     0.001 A 
ATOM     22  C6  <0> d          -1.175   2.912  -1.292  0.00  0.00     0.010 A 
ENDBRANCH   1  16
BRANCH   5  23
ATOM     23  C15 <0> d          -3.858   2.162   4.721  0.00  0.00     0.057 A 
ATOM     24  O2  <0> d          -4.780   3.125   4.567  0.00  0.00    -0.327 OA
ATOM     25  C18 <0> d          -5.489   3.252   5.701  0.00  0.00     0.142 A 
ATOM     26  C17 <0> d          -5.015   2.370   6.599  0.00  0.00     0.027 A 
ATOM     27  C16 <0> d          -3.964   1.667   5.967  0.00  0.00     0.035 A 
ENDBRANCH   5  23
TORSDOF 2
