REMARK  6 active torsions:
REMARK  status: ('A' for Active; 'I' for Inactive)
REMARK    1  A    between atoms: C4_5  and  N3_7 
REMARK    2  A    between atoms: C7_10  and  C10_13 
REMARK    3  A    between atoms: C10_13  and  O1_14 
REMARK    4  A    between atoms: C14_18  and  N4_26 
REMARK    5  A    between atoms: C15_19  and  C16_20 
REMARK    6  A    between atoms: C15_19  and  N4_26 
ROOT
ATOM      1  C1  <0> d           1.820   2.585   1.965  0.00  0.00     0.131 A 
ATOM      2  C2  <0> d           0.938   2.091   2.924  0.00  0.00     0.015 A 
ATOM      3  C3  <0> d           1.078   2.512   4.226  0.00  0.00     0.047 A 
ATOM      4  N1  <0> d           2.045   3.372   4.525  0.00  0.00    -0.222 NA
ATOM      5  C4  <0> d           2.867   3.825   3.592  0.00  0.00     0.204 A 
ATOM      6  N2  <0> d           2.759   3.440   2.329  0.00  0.00    -0.230 NA
ATOM      7  C11 <0> d           0.173   2.038   5.330  0.00  0.00     0.060 C 
ATOM      8  C12 <0> d          -0.566   0.769   4.908  0.00  0.00     0.008 C 
ATOM      9  C13 <0> d          -1.220   1.018   3.544  0.00  0.00     0.038 C 
ATOM     10  C14 <0> d          -0.118   1.113   2.489  0.00  0.00     0.222 C 
ENDROOT
BRANCH   5  11
ATOM     11  N3  <0> d           3.862   4.721   3.944  0.00  0.00    -0.251 NA
ATOM     12  C9  <0> d           4.664   5.102   2.775  0.00  0.00     0.099 C 
ATOM     13  C8  <0> d           5.656   6.198   3.171  0.00  0.00     0.021 C 
ATOM     14  C7  <0> d           6.564   5.678   4.289  0.00  0.00     0.011 C 
ATOM     15  C6  <0> d           5.701   5.243   5.476  0.00  0.00     0.021 C 
ATOM     16  C5  <0> d           4.707   4.174   5.013  0.00  0.00     0.099 C 
BRANCH  14  17
ATOM     17  C10 <0> d           7.518   6.790   4.731  0.00  0.00     0.168 C 
BRANCH  17  18
ATOM     18  O1  <0> d           8.441   6.271   5.691  0.00  0.00    -0.400 OA
ATOM     19  H14 <0> d           9.078   6.923   6.016  0.00  0.00     0.209 HD
ENDBRANCH  17  18
ENDBRANCH  14  17
ENDBRANCH   5  11
BRANCH  10  20
ATOM     20  N4  <0> d          -0.701   1.570   1.213  0.00  0.00    -0.066 N 
ATOM     21  H32 <0> d           0.024   2.041   0.659  0.00  0.00     0.278 HD
ATOM     22  H33 <0> d          -1.465   2.227   1.407  0.00  0.00     0.278 HD
BRANCH  20  23
ATOM     23  C15 <0> d          -1.227   0.422   0.450  0.00  0.00     0.237 C 
BRANCH  23  24
ATOM     24  C16 <0> d          -1.938   0.937  -0.803  0.00  0.00     0.011 C 
ATOM     25  C20 <0> d          -2.386  -0.246  -1.679  0.00  0.00     0.006 C 
ATOM     26  C19 <0> d          -3.922  -0.159  -1.785  0.00  0.00     0.000 C 
ATOM     27  C18 <0> d          -4.237   1.333  -1.514  0.00  0.00     0.000 C 
ATOM     28  C17 <0> d          -3.217   1.703  -0.408  0.00  0.00     0.006 C 
ENDBRANCH  23  24
ENDBRANCH  20  23
ENDBRANCH  10  20
TORSDOF 6
