REMARK  4 active torsions:
REMARK  status: ('A' for Active; 'I' for Inactive)
REMARK    1  A    between atoms: C5_6  and  N1_10 
REMARK    2  A    between atoms: N1_10  and  S2_11 
REMARK    3  A    between atoms: S2_11  and  C9_14 
REMARK    4  A    between atoms: C9_14  and  C10_15 
ROOT
ATOM      1  S2  <0> d          -2.998   0.144   1.826  0.00  0.00     0.229 S 
ATOM      2  O1  <0> d          -3.264  -0.178   3.184  0.00  0.00    -0.206 OA
ATOM      3  O2  <0> d          -2.498   1.426   1.470  0.00  0.00    -0.206 OA
ENDROOT
BRANCH   1   4
ATOM      4  N1  <0> d          -1.810  -0.914   1.365  0.00  0.00    -0.310 N 
ATOM      5  H11 <0> d          -1.477  -1.573   1.995  0.00  0.00     0.172 HD
BRANCH   4   6
ATOM      6  C5  <0> d          -1.264  -0.856   0.007  0.00  0.00     0.126 C 
ATOM      7  C4  <0> d           0.002  -0.004   0.002  0.00  0.00    -0.021 A 
ATOM      8  C1  <0> d          -0.017   1.391   0.010  0.00  0.00     0.017 A 
ATOM      9  C3  <0> d           1.227  -0.595  -0.012  0.00  0.00    -0.009 A 
ATOM     10  C2  <0> d           1.145   2.084   0.002  0.00  0.00     0.051 A 
ATOM     11  S1  <0> d           2.356   0.771  -0.016  0.00  0.00    -0.106 SA
ATOM     12  C8  <0> d           1.533  -2.058  -0.020  0.00  0.00     0.047 C 
ATOM     13  C7  <0> d           0.255  -2.821   0.358  0.00  0.00     0.007 C 
ATOM     14  C6  <0> d          -0.910  -2.267  -0.467  0.00  0.00     0.031 C 
ENDBRANCH   4   6
ENDBRANCH   1   4
BRANCH   1  15
ATOM     15  C9  <0> d          -4.427  -0.279   0.792  0.00  0.00     0.196 C 
BRANCH  15  16
ATOM     16  C10 <0> d          -5.596   0.645   1.135  0.00  0.00     0.201 C 
ATOM     17  N2  <0> d          -5.949   0.482   2.550  0.00  0.00    -0.070 N 
ATOM     18  C14 <0> d          -7.020   1.421   2.908  0.00  0.00     0.232 C 
ATOM     19  H22 <0> d          -6.264  -0.463   2.711  0.00  0.00     0.277 HD
ATOM     20  H23 <0> d          -5.138   0.666   3.122  0.00  0.00     0.277 HD
ATOM     21  C13 <0> d          -8.279   1.094   2.102  0.00  0.00     0.027 C 
ATOM     22  C12 <0> d          -7.969   1.217   0.608  0.00  0.00     0.004 C 
ATOM     23  C11 <0> d          -6.801   0.289   0.261  0.00  0.00     0.034 C 
ENDBRANCH  15  16
ENDBRANCH   1  15
TORSDOF 4
