REMARK  1 active torsions:
REMARK  status: ('A' for Active; 'I' for Inactive)
REMARK       I    between atoms: C2_2  and  N1_4 
REMARK    1  A    between atoms: C3_5  and  C11_19 
ROOT
ATOM      1  C1  <0> d           3.560  -2.738  -0.048  0.00  0.00     0.119 C 
ATOM      2  C2  <0> d           4.509  -1.567  -0.051  0.00  0.00     0.234 C 
ATOM      3  O1  <0> d           5.707  -1.757  -0.063  0.00  0.00    -0.272 OA
ATOM      4  N1  <0> d           4.026  -0.309  -0.039  0.00  0.00    -0.251 N 
ATOM      5  C3  <0> d           4.841   0.914  -0.040  0.00  0.00     0.157 A 
ATOM      6  C4  <0> d           3.813   2.061  -0.029  0.00  0.00     0.092 A 
ATOM      7  C5  <0> d           2.473   1.362  -0.014  0.00  0.00     0.049 A 
ATOM      8  C6  <0> d           1.240   1.986   0.001  0.00  0.00     0.124 A 
ATOM      9  C7  <0> d           1.122   3.455   0.009  0.00  0.00     0.267 A 
ATOM     10  O2  <0> d           2.112   4.162   0.004  0.00  0.00    -0.267 OA
ATOM     11  N2  <0> d          -0.114   3.996   0.024  0.00  0.00    -0.274 N 
ATOM     12  C8  <0> d          -1.214   3.229   0.030  0.00  0.00     0.331 A 
ATOM     13  O3  <0> d          -2.298   3.779   0.042  0.00  0.00    -0.246 OA
ATOM     14  N3  <0> d          -1.181   1.889   0.018  0.00  0.00    -0.270 N 
ATOM     15  C9  <0> d          -0.014   1.212   0.009  0.00  0.00     0.269 A 
ATOM     16  O4  <0> d           0.002  -0.004   0.002  0.00  0.00    -0.267 OA
ATOM     17  C10 <0> d          -2.442   1.143   0.020  0.00  0.00     0.164 C 
ATOM     18  N4  <0> d           2.676   0.036  -0.024  0.00  0.00    -0.298 N 
ATOM     19  H7  <0> d          -0.209   4.961   0.029  0.00  0.00     0.173 HD
ATOM     20  H11 <0> d           1.958  -0.615  -0.021  0.00  0.00     0.187 HD
ENDROOT
BRANCH   5  21
ATOM     21  C11 <0> d           5.710   0.968   1.190  0.00  0.00     0.008 A 
ATOM     22  S1  <0> d           5.321   0.485   2.864  0.00  0.00    -0.104 SA
ATOM     23  C14 <0> d           6.891   0.886   3.613  0.00  0.00     0.050 A 
ATOM     24  C13 <0> d           7.594   1.360   2.555  0.00  0.00     0.008 A 
ATOM     25  C12 <0> d           6.988   1.402   1.313  0.00  0.00     0.017 A 
ENDBRANCH   5  21
TORSDOF 1
