REMARK  3 active torsions:
REMARK  status: ('A' for Active; 'I' for Inactive)
REMARK    1  A    between atoms: C4_5  and  N3_7 
REMARK       I    between atoms: N3_7  and  C5_8 
REMARK    2  A    between atoms: C5_8  and  C6_10 
REMARK    3  A    between atoms: C12_17  and  C15_22 
ROOT
ATOM      1  C1  <0> d          -0.018   1.461   0.010  0.00  0.00     0.182 C 
ATOM      2  N1  <0> d           0.002  -0.004   0.002  0.00  0.00    -0.256 N 
ATOM      3  C2  <0> d           0.008  -0.791  -1.090  0.00  0.00     0.137 A 
ATOM      4  C3  <0> d           0.041  -2.092  -0.665  0.00  0.00     0.044 A 
ATOM      5  C4  <0> d           0.041  -2.089   0.727  0.00  0.00     0.161 A 
ATOM      6  N2  <0> d           0.025  -0.837   1.132  0.00  0.00    -0.152 NA
ATOM      7  C12 <0> d           0.078  -3.254  -1.626  0.00  0.00     0.068 C 
ATOM      8  C13 <0> d          -0.624  -2.831  -2.920  0.00  0.00     0.117 C 
ATOM      9  C14 <0> d          -0.204  -1.450  -3.340  0.00  0.00     0.224 C 
ATOM     10  O2  <0> d          -0.044  -1.218  -4.520  0.00  0.00    -0.273 OA
ATOM     11  N4  <0> d           0.001  -0.461  -2.445  0.00  0.00    -0.311 N 
ATOM     12  H12 <0> d           0.139   0.454  -2.736  0.00  0.00     0.170 HD
ENDROOT
BRANCH   5  13
ATOM     13  N3  <0> d           0.062  -3.221   1.551  0.00  0.00    -0.305 N 
ATOM     14  C5  <0> d           0.060  -3.078   2.892  0.00  0.00     0.258 C 
ATOM     15  O1  <0> d           0.041  -1.967   3.385  0.00  0.00    -0.267 OA
ATOM     16  H5  <0> d           0.078  -4.108   1.158  0.00  0.00     0.170 HD
BRANCH  14  17
ATOM     17  C6  <0> d           0.082  -4.272   3.762  0.00  0.00     0.049 A 
ATOM     18  C11 <0> d           0.081  -4.128   5.151  0.00  0.00     0.026 A 
ATOM     19  C10 <0> d           0.095  -5.249   5.958  0.00  0.00     0.020 A 
ATOM     20 Br1  <0> d           0.050  -2.403   5.925  0.00  0.00    -0.050 Br
ATOM     21  C9  <0> d           0.123  -6.511   5.393  0.00  0.00     0.001 A 
ATOM     22  C8  <0> d           0.131  -6.660   4.017  0.00  0.00     0.001 A 
ATOM     23  C7  <0> d           0.111  -5.550   3.199  0.00  0.00     0.018 A 
ENDBRANCH  14  17
ENDBRANCH   5  13
BRANCH   7  24
ATOM     24  C15 <0> d          -0.638  -4.435  -1.022  0.00  0.00    -0.049 A 
ATOM     25  C20 <0> d           0.041  -5.621  -0.812  0.00  0.00     0.008 A 
ATOM     26  C19 <0> d          -0.614  -6.703  -0.254  0.00  0.00     0.001 A 
ATOM     27  C18 <0> d          -1.950  -6.602   0.085  0.00  0.00     0.000 A 
ATOM     28  C17 <0> d          -2.631  -5.418  -0.130  0.00  0.00     0.001 A 
ATOM     29  C16 <0> d          -1.974  -4.334  -0.684  0.00  0.00     0.008 A 
ENDBRANCH   7  24
TORSDOF 3
