REMARK  5 active torsions:
REMARK  status: ('A' for Active; 'I' for Inactive)
REMARK    1  A    between atoms: C3_3  and  C16_24 
REMARK    2  A    between atoms: C4_4  and  N3_12 
REMARK    3  A    between atoms: C12_18  and  C13_19 
REMARK    4  A    between atoms: C13_19  and  C14_20 
REMARK    5  A    between atoms: C14_20  and  O4_22 
ROOT
ATOM      1  C1  <0> d          -0.334   6.824  -3.070  0.00  0.00     0.051 C 
ATOM      2  C2  <0> d          -0.377   6.426  -1.618  0.00  0.00    -0.019 A 
ATOM      3  C3  <0> d          -0.454   5.070  -1.249  0.00  0.00     0.048 A 
ATOM      4  C4  <0> d          -0.493   4.713   0.107  0.00  0.00     0.102 A 
ATOM      5  N1  <0> d          -0.463   5.656   1.082  0.00  0.00    -0.307 N 
ATOM      6  C5  <0> d          -0.384   6.966   0.781  0.00  0.00     0.269 A 
ATOM      7  O1  <0> d          -0.353   7.795   1.672  0.00  0.00    -0.266 OA
ATOM      8  C6  <0> d          -0.340   7.392  -0.619  0.00  0.00     0.119 A 
ATOM      9  C7  <0> d          -0.262   8.782  -0.953  0.00  0.00     0.105 C 
ATOM     10  N2  <0> d          -0.201   9.885  -1.219  0.00  0.00    -0.191 NA
ATOM     11  C8  <0> d          -0.511   5.241   2.486  0.00  0.00     0.161 C 
ENDROOT
BRANCH   3  12
ATOM     12  C16 <0> d          -0.493   4.035  -2.279  0.00  0.00     0.273 C 
ATOM     13  O5  <0> d          -0.564   4.346  -3.451  0.00  0.00    -0.301 OA
ENDBRANCH   3  12
BRANCH   4  14
ATOM     14  N3  <0> d          -0.568   3.397   0.451  0.00  0.00    -0.253 NA
ATOM     15  C12 <0> d           0.623   2.666  -0.002  0.00  0.00     0.165 C 
ATOM     16  C11 <0> d           0.449   1.195   0.249  0.00  0.00     0.236 C 
ATOM     17  N4  <0> d          -0.743   0.638   0.487  0.00  0.00    -0.359 N 
ATOM     18  O2  <0> d           1.431   0.483   0.236  0.00  0.00    -0.272 OA
ATOM     19  C10 <0> d          -1.981   1.409   0.554  0.00  0.00     0.137 C 
ATOM     20  H12 <0> d          -0.788  -0.323   0.617  0.00  0.00     0.162 HD
ATOM     21  C9  <0> d          -1.784   2.777  -0.099  0.00  0.00     0.118 C 
BRANCH  15  22
ATOM     22  C13 <0> d           1.849   3.170   0.761  0.00  0.00     0.140 C 
BRANCH  22  23
ATOM     23  C14 <0> d           1.688   2.867   2.228  0.00  0.00     0.260 C 
ATOM     24  O3  <0> d           0.651   2.400   2.638  0.00  0.00    -0.265 OA
BRANCH  23  25
ATOM     25  O4  <0> d           2.695   3.116   3.080  0.00  0.00    -0.326 OA
ATOM     26  C15 <0> d           2.468   2.800   4.479  0.00  0.00     0.213 C 
ENDBRANCH  23  25
ENDBRANCH  22  23
ENDBRANCH  15  22
ENDBRANCH   4  14
TORSDOF 5
