REMARK  7 active torsions:
REMARK  status: ('A' for Active; 'I' for Inactive)
REMARK    1  A    between atoms: C2_2  and  N1_3 
REMARK    2  A    between atoms: C7_9  and  C17_25 
REMARK    3  A    between atoms: C10_13  and  S1_14 
REMARK    4  A    between atoms: S1_14  and  C11_15 
REMARK    5  A    between atoms: C11_15  and  C12_16 
REMARK       I    between atoms: C12_16  and  N3_18 
REMARK    6  A    between atoms: N3_18  and  C13_19 
REMARK    7  A    between atoms: C13_19  and  C14_20 
REMARK       I    between atoms: C14_20  and  N4_22 
ROOT
ATOM      1  N1  <0> d           2.332   1.482  -0.012  0.00  0.00    -0.293 N 
ATOM      2  C3  <0> d           2.472   0.137  -0.021  0.00  0.00     0.262 A 
ATOM      3  O1  <0> d           3.572  -0.383  -0.035  0.00  0.00    -0.267 OA
ATOM      4  C4  <0> d           1.245  -0.676  -0.013  0.00  0.00     0.061 A 
ATOM      5  C5  <0> d           1.290  -2.070  -0.022  0.00  0.00     0.020 A 
ATOM      6  C6  <0> d           0.129  -2.788  -0.015  0.00  0.00     0.019 A 
ATOM      7  C7  <0> d          -1.112  -2.137   0.000  0.00  0.00     0.043 A 
ATOM      8  C8  <0> d          -1.180  -0.750   0.009  0.00  0.00     0.051 A 
ATOM      9  C9  <0> d           0.002  -0.004   0.002  0.00  0.00     0.076 A 
ATOM     10  N2  <0> d          -0.016   1.350   0.009  0.00  0.00    -0.224 NA
ATOM     11  C10 <0> d           1.091   2.051   0.003  0.00  0.00     0.172 A 
ENDROOT
BRANCH  11  12
ATOM     12  S1  <0> d           0.972   3.809   0.013  0.00  0.00    -0.082 SA
BRANCH  12  13
ATOM     13  C11 <0> d          -0.828   4.002   0.032  0.00  0.00     0.185 C 
BRANCH  13  14
ATOM     14  C12 <0> d          -1.176   5.468   0.043  0.00  0.00     0.227 C 
ATOM     15  O2  <0> d          -0.294   6.301   0.039  0.00  0.00    -0.273 OA
ATOM     16  N3  <0> d          -2.467   5.854   0.057  0.00  0.00    -0.352 N 
ATOM     17  H11 <0> d          -3.172   5.189   0.060  0.00  0.00     0.162 HD
BRANCH  16  18
ATOM     18  C13 <0> d          -2.805   7.280   0.068  0.00  0.00     0.225 C 
BRANCH  18  19
ATOM     19  C14 <0> d          -4.303   7.441   0.083  0.00  0.00     0.236 C 
ATOM     20  O3  <0> d          -5.018   6.461   0.085  0.00  0.00    -0.272 OA
ATOM     21  N4  <0> d          -4.849   8.673   0.095  0.00  0.00    -0.359 N 
ATOM     22  C15 <0> d          -6.305   8.829   0.110  0.00  0.00     0.152 C 
ATOM     23  C16 <0> d          -3.985   9.856   0.093  0.00  0.00     0.152 C 
ENDBRANCH  18  19
ENDBRANCH  16  18
ENDBRANCH  13  14
ENDBRANCH  12  13
ENDBRANCH  11  12
BRANCH   1  24
ATOM     24  C2  <0> d           3.522   2.336  -0.019  0.00  0.00     0.130 C 
ATOM     25  C1  <0> d           3.922   2.642  -1.464  0.00  0.00     0.027 C 
ENDBRANCH   1  24
BRANCH   7  26
ATOM     26  C17 <0> d          -2.359  -2.934   0.007  0.00  0.00     0.209 C 
ATOM     27  O4  <0> d          -3.437  -2.374   0.020  0.00  0.00    -0.644 OA
ATOM     28  O5  <0> d          -2.299  -4.279  -0.001  0.00  0.00    -0.644 OA
ENDBRANCH   7  26
TORSDOF 7
