REMARK  4 active torsions:
REMARK  status: ('A' for Active; 'I' for Inactive)
REMARK    1  A    between atoms: C4_5  and  C6_7 
REMARK    2  A    between atoms: C7_9  and  C9_12 
REMARK    3  A    between atoms: C9_12  and  N3_13 
REMARK    4  A    between atoms: C12_16  and  O1_19 
ROOT
ATOM      1  C6  <0> d           1.269  -2.143  -0.022  0.00  0.00     0.126 A 
ATOM      2  N2  <0> d           2.314  -2.958  -0.031  0.00  0.00    -0.241 NA
ATOM      3  C7  <0> d           2.164  -4.260  -0.038  0.00  0.00     0.068 A 
ATOM      4  C8  <0> d           0.914  -4.797  -0.035  0.00  0.00     0.081 A 
ATOM      5  S1  <0> d          -0.083  -3.313  -0.015  0.00  0.00    -0.078 SA
ENDROOT
BRANCH   3   6
ATOM      6  C9  <0> d           3.373  -5.160  -0.049  0.00  0.00     0.294 C 
BRANCH   6   7
ATOM      7  N3  <0> d           3.831  -5.347  -1.432  0.00  0.00    -0.066 N 
ATOM      8  C14 <0> d           5.076  -6.125  -1.432  0.00  0.00     0.237 C 
ATOM      9  C13 <0> d           5.601  -6.254  -2.864  0.00  0.00     0.059 C 
ATOM     10  C12 <0> d           4.552  -6.966  -3.724  0.00  0.00     0.121 C 
ATOM     11  C11 <0> d           3.236  -6.186  -3.656  0.00  0.00     0.059 C 
ATOM     12  C10 <0> d           2.799  -6.060  -2.195  0.00  0.00     0.237 C 
ATOM     13  H18 <0> d           3.997  -4.447  -1.855  0.00  0.00     0.280 HD
BRANCH  10  14
ATOM     14  O1  <0> d           5.004  -7.024  -5.078  0.00  0.00    -0.395 OA
ATOM     15  H17 <0> d           5.835  -7.504  -5.195  0.00  0.00     0.210 HD
ENDBRANCH  10  14
ENDBRANCH   6   7
ENDBRANCH   3   6
BRANCH   1  16
ATOM     16  C4  <0> d           1.231  -0.665  -0.013  0.00  0.00     0.092 A 
ATOM     17  N1  <0> d           2.367   0.023  -0.020  0.00  0.00    -0.258 NA
ATOM     18  C3  <0> d           2.375   1.341  -0.013  0.00  0.00     0.117 A 
ATOM     19  C2  <0> d           1.194   2.059   0.002  0.00  0.00     0.019 A 
ATOM     20  C1  <0> d          -0.017   1.379   0.010  0.00  0.00     0.004 A 
ATOM     21  C5  <0> d           0.002  -0.004   0.002  0.00  0.00     0.034 A 
ENDBRANCH   1  16
TORSDOF 4
