REMARK  6 active torsions:
REMARK  status: ('A' for Active; 'I' for Inactive)
REMARK    1  A    between atoms: N2_4  and  C8_13 
REMARK    2  A    between atoms: N3_7  and  N4_8 
REMARK    3  A    between atoms: C8_13  and  C9_14 
REMARK       I    between atoms: C9_14  and  N5_16 
REMARK    4  A    between atoms: N5_16  and  C10_17 
REMARK    5  A    between atoms: C13_20  and  O3_25 
REMARK    6  A    between atoms: C15_22  and  O2_23 
ROOT
ATOM      1  C9  <0> d          -1.881   5.158  -1.375  0.00  0.00     0.242 C 
ATOM      2  O1  <0> d          -1.414   4.535  -2.304  0.00  0.00    -0.271 OA
ATOM      3  N5  <0> d          -2.675   6.222  -1.608  0.00  0.00    -0.323 N 
ATOM      4  H10 <0> d          -3.101   6.681  -0.867  0.00  0.00     0.169 HD
ENDROOT
BRANCH   1   5
ATOM      5  C8  <0> d          -1.575   4.742   0.041  0.00  0.00     0.257 C 
BRANCH   5   6
ATOM      6  N2  <0> d          -0.699   3.568   0.026  0.00  0.00    -0.232 N 
ATOM      7  N1  <0> d          -1.107   2.227   0.009  0.00  0.00    -0.154 NA
ATOM      8  C2  <0> d          -0.047   1.484   0.003  0.00  0.00     0.145 A 
ATOM      9  C1  <0> d          -0.033  -0.023  -0.013  0.00  0.00     0.095 C 
ATOM     10  N3  <0> d           1.062   2.293   0.006  0.00  0.00    -0.207 N 
ATOM     11  C3  <0> d           0.650   3.577   0.021  0.00  0.00     0.218 A 
ATOM     12  S1  <0> d           1.655   4.963   0.031  0.00  0.00    -0.037 SA
BRANCH  10  13
ATOM     13  N4  <0> d           2.394   1.859  -0.003  0.00  0.00    -0.268 N 
ATOM     14  C7  <0> d           3.291   2.068  -1.009  0.00  0.00     0.116 A 
ATOM     15  C6  <0> d           4.462   1.504  -0.653  0.00  0.00     0.021 A 
ATOM     16  C5  <0> d           4.283   0.925   0.619  0.00  0.00     0.021 A 
ATOM     17  C4  <0> d           3.010   1.163   0.995  0.00  0.00     0.116 A 
ENDBRANCH  10  13
ENDBRANCH   5   6
ENDBRANCH   1   5
BRANCH   3  18
ATOM     18  C10 <0> d          -2.885   6.667  -2.922  0.00  0.00     0.068 A 
ATOM     19  C15 <0> d          -3.042   8.026  -3.182  0.00  0.00     0.097 A 
ATOM     20  C14 <0> d          -3.244   8.462  -4.481  0.00  0.00     0.075 A 
ATOM     21  C13 <0> d          -3.300   7.543  -5.519  0.00  0.00     0.070 A 
ATOM     22  C12 <0> d          -3.149   6.189  -5.257  0.00  0.00     0.039 A 
ATOM     23  C11 <0> d          -2.942   5.752  -3.963  0.00  0.00     0.035 A 
BRANCH  19  24
ATOM     24  O2  <0> d          -2.991   8.924  -2.162  0.00  0.00    -0.354 OA
ATOM     25  C16 <0> d          -3.160  10.302  -2.502  0.00  0.00     0.210 C 
ENDBRANCH  19  24
BRANCH  21  26
ATOM     26  O3  <0> d          -3.504   7.971  -6.793  0.00  0.00    -0.356 OA
ATOM     27  C17 <0> d          -3.551   6.971  -7.813  0.00  0.00     0.210 C 
ENDBRANCH  21  26
ENDBRANCH   3  18
TORSDOF 6
