REMARK  7 active torsions:
REMARK  status: ('A' for Active; 'I' for Inactive)
REMARK    1  A    between atoms: C2_2  and  N1_3 
REMARK    2  A    between atoms: N1_3  and  C3_4 
REMARK    3  A    between atoms: N1_3  and  C5_6 
REMARK    4  A    between atoms: C5_6  and  C6_7 
REMARK    5  A    between atoms: C6_7  and  N2_8 
REMARK       I    between atoms: N2_8  and  C7_9 
REMARK    6  A    between atoms: C7_9  and  C8_11 
REMARK    7  A    between atoms: C8_11  and  N3_12 
ROOT
ATOM      1  N3  <0> d           0.315  -5.753   4.905  0.00  0.00    -0.340 N 
ATOM      2  C9  <0> d           1.655  -6.020   5.094  0.00  0.00     0.046 A 
ATOM      3  C10 <0> d           2.736  -6.143   4.227  0.00  0.00     0.032 A 
ATOM      4  C11 <0> d           3.988  -6.422   4.728  0.00  0.00     0.021 A 
ATOM      5  C12 <0> d           4.184  -6.582   6.094  0.00  0.00     0.011 A 
ATOM      6  C13 <0> d           3.137  -6.466   6.964  0.00  0.00     0.033 A 
ATOM      7  C14 <0> d           1.858  -6.183   6.479  0.00  0.00     0.002 A 
ATOM      8  C15 <0> d           0.551  -5.993   7.097  0.00  0.00     0.005 A 
ATOM      9  C16 <0> d          -0.328  -5.735   6.107  0.00  0.00     0.023 A 
ATOM     10  C17 <0> d          -1.796  -5.479   6.365  0.00  0.00     0.088 C 
ATOM     11  C18 <0> d          -2.116  -5.956   7.788  0.00  0.00     0.278 C 
ATOM     12  N4  <0> d          -1.131  -5.404   8.728  0.00  0.00     0.088 N 
ATOM     13  C19 <0> d           0.184  -6.052   8.557  0.00  0.00     0.313 C 
ATOM     14  C20 <0> d          -1.600  -5.527  10.114  0.00  0.00     0.310 C 
ATOM     15 Br1  <0> d           5.914  -6.966   6.754  0.00  0.00    -0.051 Br
ENDROOT
BRANCH   1  16
ATOM     16  C8  <0> d          -0.321  -5.519   3.607  0.00  0.00     0.231 C 
BRANCH  16  17
ATOM     17  C7  <0> d          -0.273  -4.048   3.282  0.00  0.00     0.235 C 
ATOM     18  N2  <0> d          -0.803  -3.594   2.129  0.00  0.00    -0.358 N 
ATOM     19  H15 <0> d          -1.214  -4.215   1.507  0.00  0.00     0.162 HD
ATOM     20  O1  <0> d           0.242  -3.272   4.060  0.00  0.00    -0.272 OA
BRANCH  18  21
ATOM     21  C6  <0> d          -0.756  -2.164   1.814  0.00  0.00     0.150 C 
BRANCH  21  22
ATOM     22  C5  <0> d          -1.421  -1.919   0.458  0.00  0.00     0.254 C 
BRANCH  22  23
ATOM     23  N1  <0> d          -1.374  -0.485   0.142  0.00  0.00    -0.070 N 
ATOM     24  H30 <0> d          -1.792   0.039   0.895  0.00  0.00     0.279 HD
BRANCH  23  25
ATOM     25  C2  <0> d           0.024  -0.066  -0.029  0.00  0.00     0.230 C 
ATOM     26  C1  <0> d           0.082   1.451  -0.216  0.00  0.00     0.034 C 
ENDBRANCH  23  25
BRANCH  23  27
ATOM     27  C3  <0> d          -2.116  -0.233  -1.101  0.00  0.00     0.230 C 
ATOM     28  C4  <0> d          -3.600  -0.533  -0.879  0.00  0.00     0.034 C 
ENDBRANCH  23  27
ENDBRANCH  22  23
ENDBRANCH  21  22
ENDBRANCH  18  21
ENDBRANCH  16  17
ENDBRANCH   1  16
TORSDOF 7
