REMARK  6 active torsions:
REMARK  status: ('A' for Active; 'I' for Inactive)
REMARK    1  A    between atoms: C6_8  and  C10_13 
REMARK    2  A    between atoms: C10_13  and  C11_14 
REMARK    3  A    between atoms: C11_14  and  N2_15 
REMARK    4  A    between atoms: N2_15  and  C13_17 
REMARK    5  A    between atoms: C13_17  and  C14_18 
REMARK    6  A    between atoms: C14_18  and  O3_19 
ROOT
ATOM      1  C1  <0> d           0.046   1.593   1.174  0.00  0.00     0.050 C 
ATOM      2  C2  <0> d           0.056   0.073   0.999  0.00  0.00     0.217 C 
ATOM      3  C3  <0> d          -1.362  -0.434   0.934  0.00  0.00     0.251 C 
ATOM      4  O1  <0> d          -2.245   0.280   0.507  0.00  0.00    -0.270 OA
ATOM      5  N1  <0> d          -1.646  -1.686   1.354  0.00  0.00    -0.323 N 
ATOM      6  C4  <0> d          -0.613  -2.477   1.877  0.00  0.00     0.069 A 
ATOM      7  C5  <0> d          -0.773  -3.846   2.020  0.00  0.00     0.041 A 
ATOM      8  C6  <0> d           0.258  -4.608   2.538  0.00  0.00    -0.036 A 
ATOM      9  C7  <0> d           1.446  -4.008   2.914  0.00  0.00     0.011 A 
ATOM     10  C8  <0> d           1.612  -2.642   2.773  0.00  0.00     0.040 A 
ATOM     11  C9  <0> d           0.585  -1.873   2.254  0.00  0.00     0.096 A 
ATOM     12  O2  <0> d           0.731  -0.529   2.106  0.00  0.00    -0.335 OA
ATOM     13  H6  <0> d          -2.550  -2.032   1.295  0.00  0.00     0.169 HD
ENDROOT
BRANCH   8  14
ATOM     14  C10 <0> d           0.086  -6.097   2.695  0.00  0.00     0.141 C 
ATOM     15 Cl1  <0> d           0.416  -6.564   4.405  0.00  0.00    -0.118 Cl
BRANCH  14  16
ATOM     16  C11 <0> d           1.064  -6.823   1.770  0.00  0.00     0.259 C 
BRANCH  16  17
ATOM     17  N2  <0> d           0.897  -8.275   1.922  0.00  0.00    -0.071 N 
ATOM     18  C12 <0> d          -0.441  -8.665   1.456  0.00  0.00     0.269 C 
ATOM     19  H20 <0> d           1.001  -8.525   2.894  0.00  0.00     0.279 HD
BRANCH  17  20
ATOM     20  C13 <0> d           1.915  -8.972   1.126  0.00  0.00     0.260 C 
BRANCH  20  21
ATOM     21  C14 <0> d           3.301  -8.692   1.712  0.00  0.00     0.192 C 
BRANCH  21  22
ATOM     22  O3  <0> d           3.386  -9.255   3.022  0.00  0.00    -0.399 OA
ATOM     23  H19 <0> d           4.239  -9.116   3.455  0.00  0.00     0.209 HD
ENDBRANCH  21  22
ENDBRANCH  20  21
ENDBRANCH  17  20
ENDBRANCH  16  17
ENDBRANCH  14  16
ENDBRANCH   8  14
TORSDOF 6
