REMARK  5 active torsions:
REMARK  status: ('A' for Active; 'I' for Inactive)
REMARK    1  A    between atoms: C5_5  and  N1_8 
REMARK    2  A    between atoms: C11_13  and  N3_19 
REMARK       I    between atoms: N3_19  and  C17_20 
REMARK    3  A    between atoms: C17_20  and  C18_22 
REMARK    4  A    between atoms: C21_25  and  C24_28 
REMARK    5  A    between atoms: C24_28  and  N4_29 
ROOT
ATOM      1  N1  <0> d           1.340  -0.426  -0.013  0.00  0.00    -0.238 N 
ATOM      2  C8  <0> d           2.109   0.671  -0.146  0.00  0.00     0.047 A 
ATOM      3  C9  <0> d           1.298   1.757  -0.080  0.00  0.00     0.008 A 
ATOM      4  C10 <0> d          -0.010   1.308   0.097  0.00  0.00     0.150 A 
ATOM      5  N2  <0> d           0.011  -0.002   0.138  0.00  0.00    -0.179 NA
ATOM      6  C11 <0> d           1.782   3.182  -0.184  0.00  0.00     0.122 C 
ATOM      7  C12 <0> d           3.298   3.195   0.046  0.00  0.00     0.039 C 
ATOM      8  C13 <0> d           3.960   2.143  -0.847  0.00  0.00    -0.040 C 
ATOM      9  C14 <0> d           3.603   0.741  -0.338  0.00  0.00     0.069 C 
ATOM     10  C15 <0> d           5.479   2.327  -0.812  0.00  0.00     0.015 C 
ATOM     11  C16 <0> d           3.459   2.306  -2.284  0.00  0.00     0.015 C 
ENDROOT
BRANCH   6  12
ATOM     12  N3  <0> d           1.121   4.003   0.834  0.00  0.00    -0.348 N 
ATOM     13  C17 <0> d          -0.082   4.554   0.578  0.00  0.00     0.252 C 
ATOM     14  O1  <0> d          -0.619   4.370  -0.497  0.00  0.00    -0.268 OA
ATOM     15  H20 <0> d           1.550   4.150   1.692  0.00  0.00     0.163 HD
BRANCH  13  16
ATOM     16  C18 <0> d          -0.749   5.383   1.605  0.00  0.00     0.032 A 
ATOM     17  C23 <0> d          -1.995   5.955   1.343  0.00  0.00     0.017 A 
ATOM     18  C22 <0> d          -2.612   6.727   2.306  0.00  0.00     0.010 A 
ATOM     19  C21 <0> d          -1.998   6.934   3.529  0.00  0.00    -0.038 A 
ATOM     20  C20 <0> d          -0.763   6.370   3.795  0.00  0.00     0.010 A 
ATOM     21  C19 <0> d          -0.138   5.592   2.842  0.00  0.00     0.017 A 
BRANCH  19  22
ATOM     22  C24 <0> d          -2.678   7.777   4.576  0.00  0.00     0.192 C 
BRANCH  22  23
ATOM     23  N4  <0> d          -3.521   6.925   5.418  0.00  0.00    -0.238 N 
ATOM     24  N7  <0> d          -4.456   6.133   5.014  0.00  0.00    -0.044 NA
ATOM     25  N6  <0> d          -4.974   5.546   6.037  0.00  0.00    -0.024 NA
ATOM     26  N5  <0> d          -4.388   5.957   7.108  0.00  0.00    -0.122 NA
ATOM     27  C25 <0> d          -3.469   6.824   6.760  0.00  0.00     0.256 A 
ENDBRANCH  22  23
ENDBRANCH  19  22
ENDBRANCH  13  16
ENDBRANCH   6  12
BRANCH   1  28
ATOM     28  C5  <0> d           1.787  -1.755  -0.024  0.00  0.00     0.058 A 
ATOM     29  C4  <0> d           2.949  -2.103   0.652  0.00  0.00     0.032 A 
ATOM     30  C3  <0> d           3.387  -3.413   0.640  0.00  0.00     0.009 A 
ATOM     31  C2  <0> d           2.669  -4.377  -0.044  0.00  0.00    -0.062 A 
ATOM     32  C1  <0> d           3.150  -5.805  -0.055  0.00  0.00     0.048 C 
ATOM     33  C7  <0> d           1.512  -4.033  -0.718  0.00  0.00     0.009 A 
ATOM     34  C6  <0> d           1.066  -2.726  -0.706  0.00  0.00     0.032 A 
ENDBRANCH   1  28
TORSDOF 5
