REMARK  10 active torsions:
REMARK  status: ('A' for Active; 'I' for Inactive)
REMARK    1  A    between atoms: C3_3  and  C20_29 
REMARK    2  A    between atoms: C4_5  and  N3_9 
REMARK       I    between atoms: N3_9  and  C7_10 
REMARK    3  A    between atoms: C7_10  and  C8_12 
REMARK    4  A    between atoms: C8_12  and  S1_13 
REMARK    5  A    between atoms: S1_13  and  C9_14 
REMARK    6  A    between atoms: C11_18  and  C12_20 
REMARK    7  A    between atoms: C12_20  and  C13_21 
REMARK    8  A    between atoms: C16_24  and  O2_27 
REMARK    9  A    between atoms: C20_29  and  C21_30 
REMARK   10  A    between atoms: C21_30  and  S2_31 
ROOT
ATOM      1  C1  <0> d          -0.013   1.086   0.008  0.00  0.00     0.017 C 
ATOM      2  C2  <0> d          -0.753   1.593  -1.232  0.00  0.00     0.050 C 
ATOM      3  C3  <0> d          -0.148   1.007  -2.488  0.00  0.00     0.015 C 
ATOM      4  N1  <0> d          -1.050   0.587  -3.282  0.00  0.00    -0.271 NA
ATOM      5  C4  <0> d          -2.404   0.793  -2.755  0.00  0.00     0.226 C 
ATOM      6  C5  <0> d          -2.210   1.071  -1.246  0.00  0.00     0.146 C 
ATOM      7  C6  <0> d          -3.148   2.101  -0.771  0.00  0.00     0.068 C 
ATOM      8  N2  <0> d          -3.872   2.896  -0.404  0.00  0.00    -0.197 NA
ENDROOT
BRANCH   5   9
ATOM      9  N3  <0> d          -3.215  -0.410  -2.954  0.00  0.00    -0.336 N 
ATOM     10  C7  <0> d          -4.175  -0.428  -3.899  0.00  0.00     0.229 C 
ATOM     11  O1  <0> d          -4.367   0.553  -4.587  0.00  0.00    -0.273 OA
ATOM     12  H8  <0> d          -3.062  -1.195  -2.404  0.00  0.00     0.164 HD
BRANCH  10  13
ATOM     13  C8  <0> d          -5.010  -1.666  -4.103  0.00  0.00     0.185 C 
BRANCH  13  14
ATOM     14  S1  <0> d          -6.205  -1.377  -5.437  0.00  0.00    -0.085 SA
BRANCH  14  15
ATOM     15  C9  <0> d          -7.092  -2.895  -5.552  0.00  0.00     0.145 A 
ATOM     16  N5  <0> d          -8.413  -3.024  -5.852  0.00  0.00    -0.338 N 
ATOM     17  H3  <0> d          -9.035  -2.304  -6.040  0.00  0.00     0.168 HD
ATOM     18  C11 <0> d          -8.698  -4.371  -5.839  0.00  0.00     0.037 A 
ATOM     19  C10 <0> d          -7.558  -5.010  -5.527  0.00  0.00     0.030 A 
ATOM     20  N4  <0> d          -6.592  -4.093  -5.357  0.00  0.00    -0.339 N 
ATOM     21  C19 <0> d          -7.392  -6.502  -5.393  0.00  0.00     0.070 C 
ATOM     22  H28 <0> d          -5.670  -4.285  -5.126  0.00  0.00     0.168 HD
BRANCH  18  23
ATOM     23  C12 <0> d         -10.036  -5.007  -6.117  0.00  0.00     0.097 C 
BRANCH  23  24
ATOM     24  C13 <0> d         -10.759  -5.244  -4.816  0.00  0.00    -0.052 A 
ATOM     25  C18 <0> d         -11.590  -4.266  -4.300  0.00  0.00     0.010 A 
ATOM     26  C17 <0> d         -12.259  -4.484  -3.111  0.00  0.00     0.037 A 
ATOM     27  C16 <0> d         -12.088  -5.679  -2.429  0.00  0.00     0.065 A 
ATOM     28  C15 <0> d         -11.249  -6.656  -2.946  0.00  0.00     0.037 A 
ATOM     29  C14 <0> d         -10.587  -6.436  -4.138  0.00  0.00     0.010 A 
BRANCH  27  30
ATOM     30  O2  <0> d         -12.741  -5.893  -1.256  0.00  0.00    -0.361 OA
ATOM     31  H17 <0> d         -12.249  -5.606  -0.474  0.00  0.00     0.217 HD
ENDBRANCH  27  30
ENDBRANCH  23  24
ENDBRANCH  18  23
ENDBRANCH  14  15
ENDBRANCH  13  14
ENDBRANCH  10  13
ENDBRANCH   5   9
BRANCH   3  32
ATOM     32  C20 <0> d           1.332   0.931  -2.764  0.00  0.00     0.065 C 
BRANCH  32  33
ATOM     33  C21 <0> d           1.563   0.278  -4.129  0.00  0.00     0.079 C 
BRANCH  33  34
ATOM     34  S2  <0> d           3.344   0.186  -4.462  0.00  0.00    -0.173 SA
ATOM     35  C22 <0> d           3.445  -0.601  -6.093  0.00  0.00     0.089 C 
ENDBRANCH  33  34
ENDBRANCH  32  33
ENDBRANCH   3  32
TORSDOF 10
