REMARK  7 active torsions:
REMARK  status: ('A' for Active; 'I' for Inactive)
REMARK    1  A    between atoms: C6_7  and  C9_10 
REMARK    2  A    between atoms: C9_10  and  C10_11 
REMARK    3  A    between atoms: C10_11  and  N2_12 
REMARK       I    between atoms: N2_12  and  C11_13 
REMARK    4  A    between atoms: C11_13  and  C12_15 
REMARK    5  A    between atoms: C12_15  and  C13_16 
REMARK    6  A    between atoms: C14_18  and  N4_21 
REMARK    7  A    between atoms: N4_21  and  C16_22 
ROOT
ATOM      1  N2  <0> d          -0.274  -4.946  -1.464  0.00  0.00    -0.357 N 
ATOM      2  C11 <0> d          -0.629  -5.555  -2.613  0.00  0.00     0.243 C 
ATOM      3  O1  <0> d          -0.031  -5.303  -3.644  0.00  0.00    -0.269 OA
ATOM      4  H12 <0> d          -0.750  -5.147  -0.642  0.00  0.00     0.162 HD
ENDROOT
BRANCH   2   5
ATOM      5  C12 <0> d          -1.694  -6.485  -2.622  0.00  0.00     0.099 C 
BRANCH   5   6
ATOM      6  C13 <0> d          -2.126  -7.005  -3.789  0.00  0.00     0.022 C 
ATOM      7  C15 <0> d          -3.161  -8.117  -3.830  0.00  0.00     0.134 C 
ATOM      8  S1  <0> d          -3.248  -8.463  -5.638  0.00  0.00    -0.117 SA
ATOM      9  C14 <0> d          -1.752  -7.498  -6.120  0.00  0.00     0.246 C 
ATOM     10  N3  <0> d          -1.656  -6.565  -4.975  0.00  0.00    -0.363 N 
ATOM     11  H14 <0> d          -1.274  -5.678  -5.073  0.00  0.00     0.162 HD
BRANCH   9  12
ATOM     12  N4  <0> d          -0.568  -8.358  -6.203  0.00  0.00    -0.360 N 
ATOM     13  H17 <0> d           0.036  -8.425  -5.447  0.00  0.00     0.162 HD
BRANCH  12  14
ATOM     14  C16 <0> d          -0.311  -9.081  -7.371  0.00  0.00     0.030 A 
ATOM     15  C21 <0> d           0.810  -9.897  -7.451  0.00  0.00     0.032 A 
ATOM     16  C20 <0> d           1.060 -10.614  -8.604  0.00  0.00     0.044 A 
ATOM     17  C19 <0> d           0.200 -10.513  -9.684  0.00  0.00     0.116 A 
ATOM     18  C18 <0> d          -0.916  -9.697  -9.608  0.00  0.00     0.044 A 
ATOM     19  F1  <0> d           0.449 -11.213 -10.813  0.00  0.00    -0.206 F 
ATOM     20  C17 <0> d          -1.173  -8.981  -8.455  0.00  0.00     0.032 A 
ENDBRANCH  12  14
ENDBRANCH   9  12
ENDBRANCH   5   6
ENDBRANCH   2   5
BRANCH   1  21
ATOM     21  C10 <0> d           0.829  -3.983  -1.455  0.00  0.00     0.127 C 
BRANCH  21  22
ATOM     22  C9  <0> d           1.024  -3.443  -0.036  0.00  0.00     0.056 C 
BRANCH  22  23
ATOM     23  C6  <0> d           2.159  -2.452  -0.027  0.00  0.00    -0.048 A 
ATOM     24  C5  <0> d           3.633  -2.760   0.107  0.00  0.00     0.155 A 
ATOM     25  N1  <0> d           4.320  -1.464   0.058  0.00  0.00    -0.385 N 
ATOM     26  C4  <0> d           3.422  -0.520  -0.082  0.00  0.00     0.038 A 
ATOM     27  H22 <0> d           5.279  -1.329   0.119  0.00  0.00     0.160 HD
ATOM     28  C3  <0> d           3.542   0.894  -0.182  0.00  0.00     0.030 A 
ATOM     29  C7  <0> d           2.065  -1.107  -0.138  0.00  0.00    -0.006 A 
ATOM     30  C2  <0> d           2.443   1.664  -0.324  0.00  0.00     0.002 A 
ATOM     31  C1  <0> d           1.147   1.131  -0.380  0.00  0.00     0.001 A 
ATOM     32  C8  <0> d           0.922  -0.200  -0.294  0.00  0.00     0.014 A 
ENDBRANCH  22  23
ENDBRANCH  21  22
ENDBRANCH   1  21
TORSDOF 7
