REMARK  7 active torsions:
REMARK  status: ('A' for Active; 'I' for Inactive)
REMARK    1  A    between atoms: C2_2  and  C4_4 
REMARK    2  A    between atoms: C4_4  and  C5_5 
REMARK    3  A    between atoms: C4_4  and  N4_20 
REMARK    4  A    between atoms: C5_5  and  N1_6 
REMARK       I    between atoms: N1_6  and  C6_7 
REMARK    5  A    between atoms: C6_7  and  C7_9 
REMARK       I    between atoms: C7_9  and  N2_11 
REMARK    6  A    between atoms: N2_11  and  C8_12 
REMARK    7  A    between atoms: C11_15  and  S1_18 
ROOT
ATOM      1  N1  <0> d          -2.345  -2.749  -0.013  0.00  0.00    -0.351 N 
ATOM      2  C6  <0> d          -2.375  -4.080   0.197  0.00  0.00     0.309 C 
ATOM      3  O1  <0> d          -1.375  -4.658   0.570  0.00  0.00    -0.262 OA
ATOM      4  H11 <0> d          -3.144  -2.287  -0.311  0.00  0.00     0.162 HD
ENDROOT
BRANCH   1   5
ATOM      5  C5  <0> d          -1.105  -2.001   0.207  0.00  0.00     0.159 C 
BRANCH   5   6
ATOM      6  C4  <0> d          -1.371  -0.506   0.016  0.00  0.00     0.244 C 
BRANCH   6   7
ATOM      7  C2  <0> d          -0.064   0.271   0.189  0.00  0.00     0.012 C 
ATOM      8  C1  <0> d          -0.339   1.769   0.049  0.00  0.00     0.012 C 
ATOM      9  C3  <0> d           0.518  -0.013   1.575  0.00  0.00     0.012 C 
ENDBRANCH   6   7
BRANCH   6  10
ATOM     10  N4  <0> d          -1.904  -0.272  -1.333  0.00  0.00     0.098 N 
ATOM     11  C17 <0> d          -2.704   0.961  -1.377  0.00  0.00     0.300 C 
ATOM     12  C16 <0> d          -3.289   1.136  -2.780  0.00  0.00     0.264 C 
ATOM     13  N5  <0> d          -2.197   1.204  -3.760  0.00  0.00    -0.072 N 
ATOM     14  C15 <0> d          -1.423  -0.043  -3.722  0.00  0.00     0.264 C 
ATOM     15  C18 <0> d          -2.759   1.391  -5.105  0.00  0.00     0.269 C 
ATOM     16  H30 <0> d          -1.594   1.982  -3.538  0.00  0.00     0.279 HD
ATOM     17  C14 <0> d          -0.823  -0.228  -2.327  0.00  0.00     0.300 C 
ENDBRANCH   6  10
ENDBRANCH   5   6
ENDBRANCH   1   5
BRANCH   2  18
ATOM     18  C7  <0> d          -3.639  -4.843  -0.028  0.00  0.00     0.314 C 
ATOM     19  O2  <0> d          -4.639  -4.265  -0.400  0.00  0.00    -0.262 OA
ATOM     20  N2  <0> d          -3.669  -6.174   0.183  0.00  0.00    -0.318 N 
ATOM     21  H12 <0> d          -2.891  -6.625   0.545  0.00  0.00     0.169 HD
BRANCH  20  22
ATOM     22  C8  <0> d          -4.823  -6.904  -0.121  0.00  0.00     0.052 A 
ATOM     23  C12 <0> d          -5.171  -8.014   0.635  0.00  0.00     0.147 A 
ATOM     24  N3  <0> d          -6.261  -8.704   0.358  0.00  0.00    -0.252 NA
ATOM     25  C11 <0> d          -7.054  -8.377  -0.651  0.00  0.00     0.092 A 
ATOM     26  C10 <0> d          -6.764  -7.280  -1.457  0.00  0.00     0.041 A 
ATOM     27  C9  <0> d          -5.634  -6.529  -1.193  0.00  0.00     0.034 A 
BRANCH  25  28
ATOM     28  S1  <0> d          -8.492  -9.342  -0.977  0.00  0.00    -0.115 SA
ATOM     29  C13 <0> d          -8.454 -10.630   0.299  0.00  0.00     0.097 C 
ENDBRANCH  25  28
ENDBRANCH  20  22
ENDBRANCH   2  18
TORSDOF 7
