REMARK  3 active torsions:
REMARK  status: ('A' for Active; 'I' for Inactive)
REMARK    1  A    between atoms: C2_2  and  C3_3 
REMARK    2  A    between atoms: C5_8  and  N4_13 
REMARK       I    between atoms: N4_13  and  C8_14 
REMARK    3  A    between atoms: C8_14  and  C9_16 
ROOT
ATOM      1  C3  <0> d           2.824  11.775   0.177  0.00  0.00     0.099 A 
ATOM      2  N1  <0> d           3.054  10.499   0.109  0.00  0.00    -0.160 NA
ATOM      3  N2  <0> d           2.020   9.568   0.125  0.00  0.00    -0.170 N 
ATOM      4  C4  <0> d           2.132   8.208   0.060  0.00  0.00     0.298 A 
ATOM      5  O1  <0> d           3.235   7.688  -0.022  0.00  0.00    -0.263 OA
ATOM      6  C5  <0> d           0.981   7.412   0.089  0.00  0.00     0.123 A 
ATOM      7  C6  <0> d          -0.262   8.011   0.177  0.00  0.00     0.155 A 
ATOM      8  N3  <0> d          -0.330   9.339   0.243  0.00  0.00    -0.233 NA
ATOM      9  C7  <0> d           0.751  10.074   0.216  0.00  0.00     0.199 A 
ATOM     10  S1  <0> d           1.042  11.829   0.276  0.00  0.00    -0.033 SA
ENDROOT
BRANCH   6  11
ATOM     11  N4  <0> d           1.088   6.013   0.022  0.00  0.00    -0.317 N 
ATOM     12  C8  <0> d           1.777   5.344   0.968  0.00  0.00     0.256 C 
ATOM     13  O2  <0> d           2.378   5.956   1.829  0.00  0.00    -0.267 OA
ATOM     14  H7  <0> d           0.665   5.528  -0.704  0.00  0.00     0.169 HD
BRANCH  12  15
ATOM     15  C9  <0> d           1.802   3.866   0.957  0.00  0.00     0.032 A 
ATOM     16  C14 <0> d           2.515   3.170   1.935  0.00  0.00     0.023 A 
ATOM     17  C13 <0> d           2.530   1.790   1.922  0.00  0.00    -0.061 A 
ATOM     18  C12 <0> d           1.850   1.097   0.937  0.00  0.00     0.007 A 
ATOM     19  C15 <0> d           3.295   1.037   2.980  0.00  0.00     0.048 C 
ATOM     20  C11 <0> d           1.141   1.781  -0.035  0.00  0.00     0.002 A 
ATOM     21  C10 <0> d           1.113   3.160  -0.031  0.00  0.00     0.017 A 
ENDBRANCH  12  15
ENDBRANCH   6  11
BRANCH   1  22
ATOM     22  C2  <0> d           3.807  12.916   0.173  0.00  0.00     0.064 C 
ATOM     23  C1  <0> d           5.230  12.363   0.072  0.00  0.00     0.012 C 
ENDBRANCH   1  22
TORSDOF 3
