REMARK  5 active torsions:
REMARK  status: ('A' for Active; 'I' for Inactive)
REMARK    1  A    between atoms: C6_8  and  C8_11 
REMARK       I    between atoms: C8_11  and  N2_13 
REMARK    2  A    between atoms: N2_13  and  C9_14 
REMARK    3  A    between atoms: C9_14  and  C10_15 
REMARK    4  A    between atoms: C10_15  and  C11_16 
REMARK    5  A    between atoms: C10_15  and  N3_21 
ROOT
ATOM      1  C8  <0> d           2.964  -0.311   2.709  0.00  0.00     0.241 C 
ATOM      2  O2  <0> d           2.482   0.269   3.659  0.00  0.00    -0.271 OA
ATOM      3  N2  <0> d           4.233  -0.053   2.336  0.00  0.00    -0.357 N 
ATOM      4  H12 <0> d           4.619  -0.517   1.576  0.00  0.00     0.162 HD
ENDROOT
BRANCH   3   5
ATOM      5  C9  <0> d           5.030   0.928   3.077  0.00  0.00     0.162 C 
BRANCH   5   6
ATOM      6  C10 <0> d           6.461   0.936   2.536  0.00  0.00     0.262 C 
BRANCH   6   7
ATOM      7  C11 <0> d           7.300   1.887   3.350  0.00  0.00     0.085 A 
ATOM      8  O3  <0> d           7.706   1.690   4.616  0.00  0.00    -0.325 OA
ATOM      9  C14 <0> d           8.438   2.741   5.020  0.00  0.00     0.142 A 
ATOM     10  C13 <0> d           8.499   3.630   4.011  0.00  0.00     0.027 A 
ATOM     11  C12 <0> d           7.765   3.079   2.936  0.00  0.00     0.037 A 
ENDBRANCH   6   7
BRANCH   6  12
ATOM     12  N3  <0> d           7.026  -0.417   2.627  0.00  0.00    -0.059 N 
ATOM     13  C19 <0> d           8.432  -0.388   2.205  0.00  0.00     0.236 C 
ATOM     14  C18 <0> d           9.002  -1.807   2.220  0.00  0.00     0.028 C 
ATOM     15  C17 <0> d           8.905  -2.375   3.639  0.00  0.00     0.003 C 
ATOM     16  C16 <0> d           7.445  -2.332   4.097  0.00  0.00     0.028 C 
ATOM     17  C15 <0> d           6.932  -0.893   4.012  0.00  0.00     0.236 C 
ATOM     18  H28 <0> d           6.508  -1.038   2.024  0.00  0.00     0.280 HD
ENDBRANCH   6  12
ENDBRANCH   5   6
ENDBRANCH   3   5
BRANCH   1  19
ATOM     19  C6  <0> d           2.145  -1.320   1.947  0.00  0.00     0.190 C 
ATOM     20  N1  <0> d           0.816  -1.400   2.564  0.00  0.00    -0.320 N 
ATOM     21  C2  <0> d          -0.271  -0.817   1.737  0.00  0.00     0.081 C 
ATOM     22  C5  <0> d           0.256  -1.931   3.685  0.00  0.00     0.222 C 
ATOM     23  C1  <0> d          -0.494   0.674   1.994  0.00  0.00     0.051 C 
ATOM     24  S1  <0> d           0.358  -1.171   0.043  0.00  0.00    -0.135 SA
ATOM     25  C3  <0> d          -1.508  -1.671   2.054  0.00  0.00     0.051 C 
ATOM     26  C7  <0> d           2.144  -0.916   0.454  0.00  0.00     0.111 C 
ATOM     27  C4  <0> d          -1.248  -1.998   3.546  0.00  0.00     0.106 C 
ATOM     28  O1  <0> d           0.876  -2.299   4.660  0.00  0.00    -0.273 OA
ENDBRANCH   1  19
TORSDOF 5
