REMARK  5 active torsions:
REMARK  status: ('A' for Active; 'I' for Inactive)
REMARK    1  A    between atoms: C2_2  and  O1_3 
REMARK    2  A    between atoms: O1_3  and  C3_4 
REMARK    3  A    between atoms: C6_7  and  C9_10 
REMARK    4  A    between atoms: C19_23  and  N4_25 
REMARK    5  A    between atoms: N4_25  and  C20_26 
ROOT
ATOM      1  C9  <0> d           1.144  -6.059   1.764  0.00  0.00     0.179 C 
ATOM      2  C10 <0> d           0.091  -6.553   2.750  0.00  0.00     0.159 C 
ATOM      3  C11 <0> d           0.406  -8.008   3.026  0.00  0.00     0.054 C 
ATOM      4  C12 <0> d          -0.654  -8.912   2.985  0.00  0.00     0.015 A 
ATOM      5  C13 <0> d          -0.478 -10.266   3.324  0.00  0.00     0.016 A 
ATOM      6  C14 <0> d          -1.549 -11.107   3.315  0.00  0.00     0.001 A 
ATOM      7  C15 <0> d          -2.818 -10.655   2.968  0.00  0.00     0.002 A 
ATOM      8  C16 <0> d          -3.046  -9.360   2.609  0.00  0.00     0.030 A 
ATOM      9  C17 <0> d          -1.985  -8.440   2.588  0.00  0.00     0.047 A 
ATOM     10  N1  <0> d          -2.203  -7.178   2.191  0.00  0.00    -0.326 N 
ATOM     11  C18 <0> d          -1.282  -6.212   2.230  0.00  0.00     0.234 C 
ATOM     12  O2  <0> d          -1.532  -5.084   1.845  0.00  0.00    -0.272 OA
ATOM     13  N2  <0> d           1.678  -8.378   3.226  0.00  0.00    -0.192 N 
ATOM     14  C19 <0> d           2.691  -7.472   2.966  0.00  0.00     0.703 C 
ATOM     15  N3  <0> d           2.475  -6.391   2.281  0.00  0.00    -0.096 NA
ATOM     16  H16 <0> d           1.885  -9.268   3.549  0.00  0.00     0.184 HD
ATOM     17  H22 <0> d          -3.087  -6.947   1.863  0.00  0.00     0.169 HD
ENDROOT
BRANCH  14  18
ATOM     18  N4  <0> d           3.959  -7.725   3.444  0.00  0.00    -0.151 N 
ATOM     19  H17 <0> d           4.133  -8.530   3.955  0.00  0.00     0.188 HD
BRANCH  18  20
ATOM     20  C20 <0> d           4.982  -6.832   3.193  0.00  0.00     0.266 A 
ATOM     21  O3  <0> d           6.252  -6.978   3.610  0.00  0.00    -0.275 OA
ATOM     22  C26 <0> d           6.964  -5.914   3.175  0.00  0.00     0.108 A 
ATOM     23  C21 <0> d           6.065  -5.095   2.475  0.00  0.00     0.095 A 
ATOM     24  C25 <0> d           8.291  -5.533   3.297  0.00  0.00     0.040 A 
ATOM     25  N5  <0> d           4.855  -5.717   2.521  0.00  0.00    -0.205 NA
ATOM     26  C22 <0> d           6.515  -3.903   1.906  0.00  0.00     0.034 A 
ATOM     27  C23 <0> d           7.837  -3.540   2.037  0.00  0.00     0.002 A 
ATOM     28  C24 <0> d           8.722  -4.352   2.729  0.00  0.00     0.003 A 
ENDBRANCH  18  20
ENDBRANCH  14  18
BRANCH   1  29
ATOM     29  C6  <0> d           1.024  -4.566   1.603  0.00  0.00    -0.032 A 
ATOM     30  C5  <0> d           0.372  -4.041   0.502  0.00  0.00     0.012 A 
ATOM     31  C4  <0> d           0.260  -2.673   0.351  0.00  0.00     0.037 A 
ATOM     32  C3  <0> d           0.802  -1.824   1.306  0.00  0.00     0.068 A 
ATOM     33  C8  <0> d           1.460  -2.353   2.406  0.00  0.00     0.037 A 
ATOM     34  C7  <0> d           1.565  -3.722   2.555  0.00  0.00     0.012 A 
BRANCH  32  35
ATOM     35  O1  <0> d           0.693  -0.477   1.160  0.00  0.00    -0.352 OA
BRANCH  35  36
ATOM     36  C2  <0> d           0.002  -0.004   0.002  0.00  0.00     0.171 C 
ATOM     37  C1  <0> d          -0.019   1.526   0.010  0.00  0.00     0.034 C 
ENDBRANCH  35  36
ENDBRANCH  32  35
ENDBRANCH   1  29
TORSDOF 5
