REMARK  3 active torsions:
REMARK  status: ('A' for Active; 'I' for Inactive)
REMARK    1  A    between atoms: N2_6  and  C5_9 
REMARK    2  A    between atoms: C5_9  and  C6_10 
REMARK       I    between atoms: C6_10  and  N3_12 
REMARK    3  A    between atoms: N3_12  and  C7_13 
ROOT
ATOM      1  C6  <0> d           2.098  -3.541  -1.449  0.00  0.00     0.240 C 
ATOM      2  O3  <0> d           1.557  -2.959  -2.365  0.00  0.00    -0.271 OA
ATOM      3  N3  <0> d           2.991  -4.517  -1.705  0.00  0.00    -0.326 N 
ATOM      4  H8  <0> d           3.474  -4.937  -0.975  0.00  0.00     0.169 HD
ENDROOT
BRANCH   1   5
ATOM      5  C5  <0> d           1.773  -3.172  -0.025  0.00  0.00     0.240 C 
BRANCH   5   6
ATOM      6  N2  <0> d           0.782  -2.092  -0.014  0.00  0.00    -0.260 N 
ATOM      7  C3  <0> d          -0.551  -2.288  -0.001  0.00  0.00     0.246 A 
ATOM      8  C2  <0> d          -1.168  -0.904   0.007  0.00  0.00     0.230 A 
ATOM      9  O1  <0> d          -1.135  -3.350   0.003  0.00  0.00    -0.271 OA
ATOM     10  N1  <0> d          -0.001  -0.004  -0.003  0.00  0.00    -0.329 N 
ATOM     11  C1  <0> d          -0.025   1.460  -0.002  0.00  0.00     0.155 C 
ATOM     12  C4  <0> d           1.090  -0.790  -0.020  0.00  0.00     0.327 A 
ATOM     13  O2  <0> d           2.229  -0.365  -0.037  0.00  0.00    -0.247 OA
ENDBRANCH   5   6
ENDBRANCH   1   5
BRANCH   3  14
ATOM     14  C7  <0> d           3.222  -4.926  -3.023  0.00  0.00     0.037 A 
ATOM     15  C12 <0> d           3.179  -4.000  -4.056  0.00  0.00     0.053 A 
ATOM     16  C11 <0> d           3.412  -4.406  -5.357  0.00  0.00     0.037 A 
ATOM     17  C10 <0> d           3.678  -5.736  -5.631  0.00  0.00     0.048 A 
ATOM     18 Cl1  <0> d           3.365  -3.247  -6.649  0.00  0.00    -0.084 Cl
ATOM     19  C9  <0> d           3.717  -6.662  -4.604  0.00  0.00     0.037 A 
ATOM     20  C8  <0> d           3.490  -6.260  -3.300  0.00  0.00     0.053 A 
ATOM     21 Cl2  <0> d           4.053  -8.329  -4.951  0.00  0.00    -0.084 Cl
ENDBRANCH   3  14
TORSDOF 3
