REMARK  3 active torsions:
REMARK  status: ('A' for Active; 'I' for Inactive)
REMARK    1  A    between atoms: C8_10  and  C9_11 
REMARK    2  A    between atoms: N4_23  and  C20_24 
REMARK    3  A    between atoms: C20_24  and  C21_25 
ROOT
ATOM      1  C9  <0> d           1.245  -0.697   1.959  0.00  0.00     0.257 C 
ATOM      2  C10 <0> d           2.488  -1.111   1.169  0.00  0.00     0.146 A 
ATOM      3  C11 <0> d           3.678  -0.863   2.088  0.00  0.00    -0.041 A 
ATOM      4  C12 <0> d           4.522  -0.098   1.411  0.00  0.00    -0.005 A 
ATOM      5  C13 <0> d           5.872   0.397   1.729  0.00  0.00     0.014 A 
ATOM      6  C14 <0> d           6.456   1.189   0.791  0.00  0.00     0.001 A 
ATOM      7  C15 <0> d           5.842   1.534  -0.416  0.00  0.00     0.002 A 
ATOM      8  C16 <0> d           4.606   1.120  -0.793  0.00  0.00     0.030 A 
ATOM      9  C17 <0> d           3.893   0.276   0.107  0.00  0.00     0.039 A 
ATOM     10  N3  <0> d           2.706  -0.285  -0.017  0.00  0.00    -0.379 N 
ATOM     11  C18 <0> d           3.695  -1.370   3.510  0.00  0.00     0.065 C 
ATOM     12  C19 <0> d           2.333  -0.986   4.116  0.00  0.00     0.240 C 
ATOM     13  N4  <0> d           1.245  -1.423   3.238  0.00  0.00    -0.055 N 
ATOM     14  H25 <0> d           2.084  -0.173  -0.753  0.00  0.00     0.160 HD
ATOM     15  H26 <0> d           1.347  -2.410   3.056  0.00  0.00     0.281 HD
ENDROOT
BRANCH   1  16
ATOM     16  C8  <0> d          -0.013  -1.052   1.165  0.00  0.00     0.217 A 
ATOM     17  N1  <0> d          -0.040  -0.309  -0.101  0.00  0.00    -0.360 N 
ATOM     18  C1  <0> d          -0.066   1.148  -0.252  0.00  0.00     0.152 C 
ATOM     19  C2  <0> d          -0.030  -1.251  -1.139  0.00  0.00     0.058 A 
ATOM     20  C7  <0> d          -0.004  -2.537  -0.607  0.00  0.00     0.056 A 
ATOM     21  C3  <0> d          -0.041  -1.075  -2.517  0.00  0.00     0.031 A 
ATOM     22  C6  <0> d           0.008  -3.635  -1.460  0.00  0.00     0.031 A 
ATOM     23  N2  <0> d           0.003  -2.472   0.793  0.00  0.00    -0.365 N 
ATOM     24  C5  <0> d          -0.003  -3.450  -2.829  0.00  0.00     0.002 A 
ATOM     25  C4  <0> d          -0.028  -2.173  -3.357  0.00  0.00     0.002 A 
ATOM     26  H11 <0> d           0.019  -3.226   1.403  0.00  0.00     0.162 HD
ENDBRANCH   1  16
BRANCH  13  27
ATOM     27  C20 <0> d          -0.038  -1.196   3.917  0.00  0.00     0.300 C 
BRANCH  27  28
ATOM     28  C21 <0> d          -0.091  -2.016   5.180  0.00  0.00     0.078 A 
ATOM     29  O1  <0> d          -0.559  -3.271   5.283  0.00  0.00    -0.325 OA
ATOM     30  C24 <0> d          -0.448  -3.687   6.555  0.00  0.00     0.142 A 
ATOM     31  C23 <0> d           0.087  -2.691   7.283  0.00  0.00     0.027 A 
ATOM     32  C22 <0> d           0.317  -1.614   6.397  0.00  0.00     0.036 A 
ENDBRANCH  27  28
ENDBRANCH  13  27
TORSDOF 3
