REMARK  4 active torsions:
REMARK  status: ('A' for Active; 'I' for Inactive)
REMARK    1  A    between atoms: C4_4  and  O1_9 
REMARK    2  A    between atoms: C7_7  and  N1_8 
REMARK    3  A    between atoms: O1_9  and  C8_10 
REMARK    4  A    between atoms: C11_16  and  N2_17 
ROOT
ATOM      1  O1  <0> d          -2.391   1.056   0.019  0.00  0.00    -0.343 OA
ENDROOT
BRANCH   1   2
ATOM      2  C4  <0> d          -1.221   1.747   0.073  0.00  0.00     0.070 A 
ATOM      3  C3  <0> d          -0.019   1.093  -0.152  0.00  0.00     0.045 A 
ATOM      4  C2  <0> d           1.170   1.795  -0.103  0.00  0.00    -0.033 A 
ATOM      5  C1  <0> d           2.475   1.085  -0.353  0.00  0.00     0.050 C 
ATOM      6  C7  <0> d           1.161   3.155   0.176  0.00  0.00     0.031 A 
ATOM      7  C6  <0> d          -0.043   3.808   0.406  0.00  0.00     0.032 A 
ATOM      8  C5  <0> d          -1.230   3.105   0.357  0.00  0.00     0.039 A 
BRANCH   6   9
ATOM      9  N1  <0> d           2.365   3.867   0.226  0.00  0.00    -0.399 N 
ATOM     10  H9  <0> d           2.358   4.944   0.447  0.00  0.00     0.156 HD
ATOM     11  H10 <0> d           3.318   3.349   0.044  0.00  0.00     0.156 HD
ENDBRANCH   6   9
ENDBRANCH   1   2
BRANCH   1  12
ATOM     12  C8  <0> d          -3.597   1.813   0.140  0.00  0.00     0.177 C 
ATOM     13  C11 <0> d          -4.713   1.076  -0.599  0.00  0.00     0.266 C 
ATOM     14  C10 <0> d          -5.443   0.097   0.363  0.00  0.00     0.178 C 
ATOM     15  S1  <0> d          -5.482   1.137   1.888  0.00  0.00     0.149 S 
ATOM     16  C9  <0> d          -3.894   2.034   1.636  0.00  0.00     0.175 C 
ATOM     17  O2  <0> d          -5.369   0.297   3.029  0.00  0.00    -0.228 OA
ATOM     18  O3  <0> d          -6.559   2.060   1.798  0.00  0.00    -0.228 OA
BRANCH  13  19
ATOM     19  N2  <0> d          -4.137   0.319  -1.719  0.00  0.00     0.088 N 
ATOM     20  C12 <0> d          -5.181  -0.405  -2.457  0.00  0.00     0.310 C 
ATOM     21  C13 <0> d          -3.375   1.200  -2.613  0.00  0.00     0.310 C 
ENDBRANCH  13  19
ENDBRANCH   1  12
TORSDOF 4
