REMARK  5 active torsions:
REMARK  status: ('A' for Active; 'I' for Inactive)
REMARK    1  A    between atoms: C4_4  and  N2_7 
REMARK       I    between atoms: N2_7  and  C5_8 
REMARK    2  A    between atoms: C5_8  and  C6_10 
REMARK       I    between atoms: C6_10  and  N3_12 
REMARK    3  A    between atoms: N3_12  and  C7_13 
REMARK    4  A    between atoms: C7_13  and  C8_14 
REMARK    5  A    between atoms: C8_14  and  N4_16 
ROOT
ATOM      1  C6  <0> d          -3.440  -3.801  -0.743  0.00  0.00     0.309 C 
ATOM      2  O3  <0> d          -2.899  -4.864  -0.968  0.00  0.00    -0.262 OA
ATOM      3  N3  <0> d          -4.743  -3.768  -0.401  0.00  0.00    -0.351 N 
ATOM      4  H8  <0> d          -5.195  -2.916  -0.294  0.00  0.00     0.162 HD
ENDROOT
BRANCH   3   5
ATOM      5  C7  <0> d          -5.478  -5.018  -0.190  0.00  0.00     0.155 C 
BRANCH   5   6
ATOM      6  C8  <0> d          -6.957  -4.707   0.047  0.00  0.00     0.202 C 
ATOM      7  C9  <0> d          -7.746  -6.015   0.132  0.00  0.00     0.042 C 
BRANCH   6   8
ATOM      8  N4  <0> d          -7.471  -3.896  -1.065  0.00  0.00    -0.062 N 
ATOM      9  C14 <0> d          -8.880  -3.567  -0.817  0.00  0.00     0.184 C 
ATOM     10  C13 <0> d          -9.398  -2.655  -1.931  0.00  0.00     0.033 C 
ATOM     11  C15 <0> d          -9.007  -2.849   0.528  0.00  0.00     0.040 C 
ATOM     12  C12 <0> d          -9.270  -3.377  -3.276  0.00  0.00     0.004 C 
ATOM     13  C11 <0> d          -7.808  -3.782  -3.489  0.00  0.00     0.028 C 
ATOM     14  C10 <0> d          -7.349  -4.652  -2.317  0.00  0.00     0.236 C 
ATOM     15  H25 <0> d          -6.935  -3.044  -1.134  0.00  0.00     0.280 HD
ENDBRANCH   6   8
ENDBRANCH   5   6
ENDBRANCH   3   5
BRANCH   1  16
ATOM     16  C5  <0> d          -2.662  -2.530  -0.846  0.00  0.00     0.315 C 
ATOM     17  N2  <0> d          -1.336  -2.569  -1.087  0.00  0.00    -0.302 N 
ATOM     18  H7  <0> d          -0.888  -3.423  -1.193  0.00  0.00     0.171 HD
ATOM     19  O2  <0> d          -3.223  -1.463  -0.713  0.00  0.00    -0.262 OA
BRANCH  17  20
ATOM     20  C4  <0> d          -0.611  -1.384  -1.183  0.00  0.00     0.160 A 
ATOM     21  C3  <0> d          -1.131  -0.076  -1.050  0.00  0.00     0.087 A 
ATOM     22  C2  <0> d          -0.118   0.794  -1.207  0.00  0.00     0.078 A 
ATOM     23  C1  <0> d          -0.226   2.296  -1.143  0.00  0.00     0.079 C 
ATOM     24  O1  <0> d           1.004   0.094  -1.436  0.00  0.00    -0.216 OA
ATOM     25  N1  <0> d           0.674  -1.283  -1.412  0.00  0.00    -0.110 NA
ENDBRANCH  17  20
ENDBRANCH   1  16
TORSDOF 5
