REMARK  5 active torsions:
REMARK  status: ('A' for Active; 'I' for Inactive)
REMARK    1  A    between atoms: O1_2  and  C2_3 
REMARK    2  A    between atoms: C5_6  and  C8_9 
REMARK    3  A    between atoms: C11_13  and  C15_25 
REMARK    4  A    between atoms: C12_14  and  S2_21 
REMARK    5  A    between atoms: S2_21  and  N3_24 
ROOT
ATOM      1  C8  <0> d          -3.697   1.540   0.443  0.00  0.00     0.226 C 
ATOM      2  N1  <0> d          -2.410   1.016  -0.008  0.00  0.00    -0.363 N 
ATOM      3  C9  <0> d          -1.231   1.754   0.017  0.00  0.00     0.054 A 
ATOM      4  C10 <0> d          -0.013   1.076   0.008  0.00  0.00     0.048 A 
ATOM      5  C11 <0> d           1.173   1.779   0.000  0.00  0.00     0.073 A 
ATOM      6  C12 <0> d           1.164   3.162   0.009  0.00  0.00     0.096 A 
ATOM      7  C13 <0> d          -0.040   3.842   0.035  0.00  0.00     0.053 A 
ATOM      8  C14 <0> d          -1.228   3.142   0.045  0.00  0.00     0.107 A 
ATOM      9  S1  <0> d          -2.764   4.015   0.097  0.00  0.00     0.263 S 
ATOM     10  O2  <0> d          -2.946   4.456   1.436  0.00  0.00    -0.200 OA
ATOM     11  O3  <0> d          -2.776   4.902  -1.013  0.00  0.00    -0.200 OA
ATOM     12  N2  <0> d          -3.924   2.852  -0.195  0.00  0.00    -0.289 N 
ATOM     13  H9  <0> d          -2.376   0.107  -0.346  0.00  0.00     0.162 HD
ATOM     14  H12 <0> d          -4.699   3.027  -0.751  0.00  0.00     0.175 HD
ENDROOT
BRANCH   1  15
ATOM     15  C5  <0> d          -3.679   1.703   1.941  0.00  0.00    -0.016 A 
ATOM     16  C4  <0> d          -4.427   2.703   2.536  0.00  0.00     0.014 A 
ATOM     17  C3  <0> d          -4.412   2.854   3.909  0.00  0.00     0.037 A 
ATOM     18  C2  <0> d          -3.646   2.003   4.691  0.00  0.00     0.068 A 
ATOM     19  C7  <0> d          -2.897   1.000   4.093  0.00  0.00     0.037 A 
ATOM     20  C6  <0> d          -2.919   0.849   2.720  0.00  0.00     0.014 A 
BRANCH  18  21
ATOM     21  O1  <0> d          -3.630   2.150   6.042  0.00  0.00    -0.356 OA
ATOM     22  C1  <0> d          -2.819   1.238   6.785  0.00  0.00     0.210 C 
ENDBRANCH  18  21
ENDBRANCH   1  15
BRANCH   5  23
ATOM     23  C15 <0> d           2.485   1.038  -0.018  0.00  0.00     0.419 C 
ATOM     24  F1  <0> d           2.243  -0.340  -0.025  0.00  0.00    -0.166 F 
ATOM     25  F2  <0> d           3.204   1.391  -1.166  0.00  0.00    -0.166 F 
ATOM     26  F3  <0> d           3.228   1.375   1.119  0.00  0.00    -0.166 F 
ENDBRANCH   5  23
BRANCH   6  27
ATOM     27  S2  <0> d           2.683   4.056  -0.012  0.00  0.00     0.257 S 
ATOM     28  O4  <0> d           3.469   3.496  -1.055  0.00  0.00    -0.201 OA
ATOM     29  O5  <0> d           2.343   5.435   0.030  0.00  0.00    -0.201 OA
BRANCH  27  30
ATOM     30  N3  <0> d           3.469   3.719   1.406  0.00  0.00    -0.324 N 
ATOM     31  H13 <0> d           3.065   3.121   2.055  0.00  0.00     0.169 HD
ATOM     32  H14 <0> d           4.334   4.119   1.588  0.00  0.00     0.169 HD
ENDBRANCH  27  30
ENDBRANCH   6  27
TORSDOF 5
