REMARK  5 active torsions:
REMARK  status: ('A' for Active; 'I' for Inactive)
REMARK    1  A    between atoms: C7_8  and  N2_12 
REMARK       I    between atoms: N2_12  and  C10_13 
REMARK    2  A    between atoms: C10_13  and  C11_15 
REMARK    3  A    between atoms: C11_15  and  S2_16 
REMARK    4  A    between atoms: S2_16  and  C12_17 
REMARK    5  A    between atoms: C13_20  and  N5_22 
ROOT
ATOM      1  C1  <0> d           4.623   4.848  -0.112  0.00  0.00     0.010 C 
ATOM      2  C2  <0> d           3.454   3.900  -0.390  0.00  0.00    -0.014 C 
ATOM      3  C3  <0> d           3.620   2.623   0.440  0.00  0.00     0.009 C 
ATOM      4  C4  <0> d           2.604   1.573  -0.013  0.00  0.00     0.042 C 
ATOM      5  C5  <0> d           1.214   2.197   0.002  0.00  0.00    -0.021 A 
ATOM      6  C6  <0> d           1.054   3.539   0.010  0.00  0.00    -0.007 A 
ATOM      7  S1  <0> d          -0.699   3.785   0.028  0.00  0.00    -0.075 SA
ATOM      8  C7  <0> d          -1.213   2.130   0.019  0.00  0.00     0.098 A 
ATOM      9  C8  <0> d          -0.017   1.428   0.010  0.00  0.00     0.085 A 
ATOM     10  C9  <0> d           0.002  -0.004   0.002  0.00  0.00     0.103 C 
ATOM     11  N1  <0> d           0.018  -1.140  -0.004  0.00  0.00    -0.191 NA
ATOM     12  C14 <0> d           2.133   4.578   0.004  0.00  0.00     0.051 C 
ENDROOT
BRANCH   8  13
ATOM     13  N2  <0> d          -2.507   1.629   0.023  0.00  0.00    -0.319 N 
ATOM     14  C10 <0> d          -3.557   2.475   0.032  0.00  0.00     0.232 C 
ATOM     15  O1  <0> d          -3.370   3.673   0.037  0.00  0.00    -0.272 OA
ATOM     16  H9  <0> d          -2.677   0.543   0.018  0.00  0.00     0.169 HD
BRANCH  14  17
ATOM     17  C11 <0> d          -4.963   1.931   0.036  0.00  0.00     0.184 C 
BRANCH  17  18
ATOM     18  S2  <0> d          -6.144   3.308   0.049  0.00  0.00    -0.092 SA
BRANCH  18  19
ATOM     19  C12 <0> d          -7.719   2.518   0.053  0.00  0.00     0.160 A 
ATOM     20  S3  <0> d          -9.350   3.246   0.064  0.00  0.00    -0.022 SA
ATOM     21  C13 <0> d         -10.288   1.726   0.061  0.00  0.00     0.188 A 
ATOM     22  N4  <0> d          -9.324   0.826   0.052  0.00  0.00    -0.123 NA
ATOM     23  N3  <0> d          -8.009   1.232   0.042  0.00  0.00    -0.133 NA
BRANCH  21  24
ATOM     24  N5  <0> d         -11.665   1.541   0.067  0.00  0.00    -0.377 N 
ATOM     25  H12 <0> d         -12.337   2.412   0.074  0.00  0.00     0.158 HD
ATOM     26  H13 <0> d         -12.083   0.523   0.063  0.00  0.00     0.158 HD
ENDBRANCH  21  24
ENDBRANCH  18  19
ENDBRANCH  17  18
ENDBRANCH  14  17
ENDBRANCH   8  13
TORSDOF 5
