REMARK  6 active torsions:
REMARK  status: ('A' for Active; 'I' for Inactive)
REMARK    1  A    between atoms: N1_2  and  C3_4 
REMARK    2  A    between atoms: C3_4  and  C4_5 
REMARK    3  A    between atoms: C4_5  and  O1_6 
REMARK    4  A    between atoms: O1_6  and  C5_7 
REMARK    5  A    between atoms: C5_7  and  C6_9 
REMARK    6  A    between atoms: C8_11  and  N2_17 
ROOT
ATOM      1  C6  <0> d          -1.342  -1.143  -4.804  0.00  0.00     0.059 A 
ATOM      2  C7  <0> d          -0.254  -2.008  -4.659  0.00  0.00     0.051 A 
ATOM      3  C8  <0> d           0.308  -2.599  -5.777  0.00  0.00     0.066 A 
ATOM      4  C9  <0> d          -0.211  -2.332  -7.042  0.00  0.00     0.143 A 
ATOM      5  C10 <0> d          -1.289  -1.475  -7.186  0.00  0.00     0.064 A 
ATOM      6  C11 <0> d          -1.860  -0.885  -6.076  0.00  0.00     0.030 A 
ATOM      7 Br1  <0> d          -3.337   0.278  -6.277  0.00  0.00    -0.050 Br
ATOM      8  F1  <0> d           0.339  -2.910  -8.132  0.00  0.00    -0.204 F 
ENDROOT
BRANCH   1   9
ATOM      9  C5  <0> d          -1.945  -0.508  -3.616  0.00  0.00     0.294 C 
ATOM     10  O2  <0> d          -2.894   0.239  -3.744  0.00  0.00    -0.259 OA
BRANCH   9  11
ATOM     11  O1  <0> d          -1.444  -0.758  -2.391  0.00  0.00    -0.316 OA
BRANCH  11  12
ATOM     12  C4  <0> d          -2.078  -0.110  -1.286  0.00  0.00     0.206 C 
BRANCH  12  13
ATOM     13  C3  <0> d          -1.376  -0.512   0.012  0.00  0.00     0.260 C 
BRANCH  13  14
ATOM     14  N1  <0> d           0.002  -0.004   0.002  0.00  0.00    -0.077 N 
ATOM     15  C1  <0> d          -0.018   1.465   0.010  0.00  0.00     0.269 C 
ATOM     16  C2  <0> d           0.713  -0.491   1.192  0.00  0.00     0.269 C 
ATOM     17  H15 <0> d           0.474  -0.330  -0.828  0.00  0.00     0.279 HD
ENDBRANCH  13  14
ENDBRANCH  12  13
ENDBRANCH  11  12
ENDBRANCH   9  11
ENDBRANCH   1   9
BRANCH   3  18
ATOM     18  N2  <0> d           1.398  -3.466  -5.637  0.00  0.00    -0.397 N 
ATOM     19  H13 <0> d           1.759  -3.651  -4.757  0.00  0.00     0.156 HD
ATOM     20  H14 <0> d           1.791  -3.880  -6.421  0.00  0.00     0.156 HD
ENDBRANCH   3  18
TORSDOF 6
