REMARK  2 active torsions:
REMARK  status: ('A' for Active; 'I' for Inactive)
REMARK    1  A    between atoms: C2_2  and  C12_14 
REMARK    2  A    between atoms: C14_17  and  N3_19 
ROOT
ATOM      1  C1  <0> d           0.002  -0.004   0.002  0.00  0.00     0.023 A 
ATOM      2  C2  <0> d           1.230  -0.672  -0.038  0.00  0.00    -0.006 A 
ATOM      3  C3  <0> d           2.430   0.040  -0.076  0.00  0.00     0.023 A 
ATOM      4  C4  <0> d           2.407   1.420  -0.062  0.00  0.00    -0.028 A 
ATOM      5  C5  <0> d           1.194   2.064   0.002  0.00  0.00     0.050 A 
ATOM      6  C6  <0> d          -0.017   1.366   0.010  0.00  0.00    -0.029 A 
ATOM      7  C7  <0> d          -1.274   2.192  -0.010  0.00  0.00     0.050 C 
ATOM      8  C8  <0> d          -1.061   3.533   0.686  0.00  0.00     0.108 C 
ATOM      9  C9  <0> d           0.216   4.217   0.262  0.00  0.00     0.224 C 
ATOM     10  O1  <0> d           0.249   5.416   0.086  0.00  0.00    -0.273 OA
ATOM     11  N1  <0> d           1.322   3.462   0.083  0.00  0.00    -0.317 N 
ATOM     12  C10 <0> d           2.725   3.819  -0.046  0.00  0.00     0.137 A 
ATOM     13  C11 <0> d           3.486   2.477  -0.113  0.00  0.00     0.061 A 
ENDROOT
BRANCH   2  14
ATOM     14  C12 <0> d           1.258  -2.155  -0.038  0.00  0.00     0.076 A 
ATOM     15  N2  <0> d           2.417  -2.806   0.025  0.00  0.00    -0.224 NA
ATOM     16  C14 <0> d           2.460  -4.126   0.025  0.00  0.00     0.164 A 
ATOM     17  S1  <0> d           0.724  -4.540  -0.072  0.00  0.00    -0.062 SA
ATOM     18  C13 <0> d           0.094  -2.867  -0.098  0.00  0.00     0.085 A 
BRANCH  16  19
ATOM     19  N3  <0> d           3.559  -4.967   0.085  0.00  0.00    -0.378 N 
ATOM     20  H12 <0> d           4.453  -4.594   0.135  0.00  0.00     0.158 HD
ATOM     21  H13 <0> d           3.435  -5.929   0.076  0.00  0.00     0.158 HD
ENDBRANCH  16  19
ENDBRANCH   2  14
TORSDOF 2
