REMARK  3 active torsions:
REMARK  status: ('A' for Active; 'I' for Inactive)
REMARK    1  A    between atoms: C5_5  and  O4_19 
REMARK    2  A    between atoms: C7_8  and  O3_18 
REMARK    3  A    between atoms: C8_9  and  O2_17 
ROOT
ATOM      1  C1  <0> d          -0.019   1.526   0.010  0.00  0.00     0.016 C 
ATOM      2  C2  <0> d           0.002  -0.004   0.002  0.00  0.00    -0.024 A 
ATOM      3  C3  <0> d          -0.810  -0.688   1.097  0.00  0.00     0.029 A 
ATOM      4  C4  <0> d           0.708  -0.663   1.179  0.00  0.00     0.053 A 
ATOM      5  C5  <0> d           1.477   0.179   2.208  0.00  0.00     0.269 C 
ATOM      6  O1  <0> d           2.350  -0.757   2.881  0.00  0.00    -0.357 OA
ATOM      7  C6  <0> d           2.800  -1.674   1.855  0.00  0.00     0.212 C 
ATOM      8  C7  <0> d           1.541  -1.938   1.002  0.00  0.00     0.118 C 
ATOM      9  C8  <0> d           1.901  -2.163  -0.447  0.00  0.00     0.160 C 
ATOM     10  C9  <0> d           0.721  -2.014  -1.390  0.00  0.00     0.023 C 
ATOM     11  C10 <0> d           0.103  -0.623  -1.368  0.00  0.00     0.002 C 
ATOM     12  C11 <0> d           0.968   0.212  -2.321  0.00  0.00     0.014 C 
ATOM     13  C12 <0> d           1.655  -0.789  -3.268  0.00  0.00    -0.047 C 
ATOM     14  C13 <0> d           1.245  -2.167  -2.841  0.00  0.00     0.016 C 
ATOM     15  C14 <0> d           1.223  -0.525  -4.712  0.00  0.00     0.015 C 
ATOM     16  C15 <0> d           3.175  -0.665  -3.146  0.00  0.00     0.015 C 
ENDROOT
BRANCH   5  17
ATOM     17  O4  <0> d           0.571   0.773   3.140  0.00  0.00    -0.370 OA
ATOM     18  H24 <0> d           1.001   1.317   3.814  0.00  0.00     0.212 HD
ENDBRANCH   5  17
BRANCH   8  19
ATOM     19  O3  <0> d           0.828  -3.062   1.520  0.00  0.00    -0.384 OA
ATOM     20  H23 <0> d           1.302  -3.901   1.438  0.00  0.00     0.210 HD
ENDBRANCH   8  19
BRANCH   9  21
ATOM     21  O2  <0> d           2.434  -3.481  -0.587  0.00  0.00    -0.392 OA
ATOM     22  H22 <0> d           2.691  -3.707  -1.491  0.00  0.00     0.210 HD
ENDBRANCH   9  21
TORSDOF 3
