REMARK  4 active torsions:
REMARK  status: ('A' for Active; 'I' for Inactive)
REMARK    1  A    between atoms: C7_7  and  C8_8 
REMARK       I    between atoms: C8_8  and  N1_10 
REMARK    2  A    between atoms: C10_12  and  C17_20 
REMARK       I    between atoms: C17_20  and  N3_22 
REMARK    3  A    between atoms: N3_22  and  C18_23 
REMARK    4  A    between atoms: C18_23  and  C19_24 
ROOT
ATOM      1  C8  <0> d           0.117   0.199   2.410  0.00  0.00     0.254 C 
ATOM      2  O1  <0> d          -0.024   1.405   2.356  0.00  0.00    -0.267 OA
ATOM      3  N1  <0> d           0.321  -0.403   3.599  0.00  0.00    -0.346 N 
ATOM      4  C9  <0> d           0.601  -1.836   3.854  0.00  0.00     0.141 C 
ATOM      5  C10 <0> d           1.656  -1.831   4.984  0.00  0.00     0.106 C 
ATOM      6  C11 <0> d           1.462  -0.483   5.696  0.00  0.00    -0.007 C 
ATOM      7  C12 <0> d           0.322   0.219   4.944  0.00  0.00     0.136 C 
ATOM      8  C13 <0> d           1.076  -0.706   7.155  0.00  0.00     0.039 C 
ATOM      9  C14 <0> d           0.946   0.648   7.857  0.00  0.00     0.233 C 
ATOM     10  N2  <0> d           2.221   1.369   7.774  0.00  0.00    -0.075 N 
ATOM     11  C15 <0> d           2.540   1.662   6.371  0.00  0.00     0.233 C 
ATOM     12  C16 <0> d           2.737   0.350   5.606  0.00  0.00     0.039 C 
ATOM     13  H18 <0> d           2.152   2.234   8.289  0.00  0.00     0.277 HD
ATOM     14  H36 <0> d           2.954   0.801   8.172  0.00  0.00     0.277 HD
ENDROOT
BRANCH   5  15
ATOM     15  C17 <0> d           1.409  -2.972   5.937  0.00  0.00     0.224 C 
ATOM     16  O2  <0> d           0.274  -3.329   6.174  0.00  0.00    -0.273 OA
ATOM     17  N3  <0> d           2.448  -3.595   6.527  0.00  0.00    -0.360 N 
ATOM     18  H23 <0> d           3.356  -3.309   6.338  0.00  0.00     0.162 HD
BRANCH  17  19
ATOM     19  C18 <0> d           2.208  -4.703   7.454  0.00  0.00     0.129 C 
BRANCH  19  20
ATOM     20  C19 <0> d           3.546  -5.229   7.979  0.00  0.00     0.031 C 
ATOM     21  C22 <0> d           3.329  -6.441   8.909  0.00  0.00     0.240 C 
ATOM     22  N4  <0> d           4.285  -6.306  10.027  0.00  0.00    -0.074 N 
ATOM     23  C21 <0> d           5.095  -5.089   9.810  0.00  0.00     0.234 C 
ATOM     24  C23 <0> d           5.162  -7.484  10.066  0.00  0.00     0.269 C 
ATOM     25  H35 <0> d           3.783  -6.229  10.898  0.00  0.00     0.279 HD
ATOM     26  C20 <0> d           4.218  -4.185   8.908  0.00  0.00     0.035 C 
ENDBRANCH  19  20
ENDBRANCH  17  19
ENDBRANCH   5  15
BRANCH   1  27
ATOM     27  C7  <0> d           0.066  -0.607   1.172  0.00  0.00     0.038 A 
ATOM     28  C2  <0> d          -1.021  -0.489   0.304  0.00  0.00    -0.046 A 
ATOM     29  C1  <0> d          -2.145   0.461   0.626  0.00  0.00     0.049 C 
ATOM     30  C3  <0> d          -1.060  -1.240  -0.853  0.00  0.00     0.007 A 
ATOM     31  C4  <0> d          -0.028  -2.113  -1.150  0.00  0.00     0.001 A 
ATOM     32  C5  <0> d           1.049  -2.239  -0.291  0.00  0.00     0.001 A 
ATOM     33  C6  <0> d           1.101  -1.494   0.869  0.00  0.00     0.017 A 
ENDBRANCH   1  27
TORSDOF 4
