REMARK  3 active torsions:
REMARK  status: ('A' for Active; 'I' for Inactive)
REMARK    1  A    between atoms: C2_2  and  C3_3 
REMARK    2  A    between atoms: C3_3  and  C5_5 
REMARK    3  A    between atoms: C3_3  and  N2_16 
ROOT
ATOM      1  C5  <0> d           0.739  -2.004  -1.265  0.00  0.00     0.111 A 
ATOM      2  N1  <0> d          -0.271  -2.830  -1.266  0.00  0.00    -0.247 NA
ATOM      3  C6  <0> d          -0.116  -4.160  -1.273  0.00  0.00     0.050 A 
ATOM      4  C7  <0> d           1.172  -4.569  -1.287  0.00  0.00     0.023 A 
ATOM      5  S1  <0> d           2.070  -3.035  -1.283  0.00  0.00    -0.074 SA
ATOM      6  C8  <0> d           1.754  -5.948  -1.312  0.00  0.00     0.188 C 
ATOM      7  S2  <0> d           0.448  -7.127  -0.841  0.00  0.00     0.149 S 
ATOM      8  O1  <0> d           0.178  -6.978   0.546  0.00  0.00    -0.228 OA
ATOM      9  O2  <0> d           0.785  -8.409  -1.351  0.00  0.00    -0.228 OA
ATOM     10  C9  <0> d          -0.963  -6.473  -1.785  0.00  0.00     0.147 C 
ATOM     11  C10 <0> d          -1.318  -5.088  -1.257  0.00  0.00     0.075 C 
ENDROOT
BRANCH   1  12
ATOM     12  C3  <0> d           0.718  -0.497  -1.257  0.00  0.00     0.170 C 
ATOM     13  C4  <0> d          -0.022   0.009  -2.496  0.00  0.00     0.054 C 
BRANCH  12  14
ATOM     14  C2  <0> d           0.002  -0.004   0.002  0.00  0.00     0.041 C 
ATOM     15  C1  <0> d          -0.019   1.526   0.010  0.00  0.00     0.008 C 
ENDBRANCH  12  14
BRANCH  12  16
ATOM     16  N2  <0> d           2.096   0.011  -1.267  0.00  0.00    -0.065 N 
ATOM     17  H15 <0> d           2.584  -0.323  -0.450  0.00  0.00     0.275 HD
ATOM     18  H16 <0> d           2.569  -0.314  -2.097  0.00  0.00     0.275 HD
ATOM     19  H17 <0> d           2.083   1.020  -1.262  0.00  0.00     0.275 HD
ENDBRANCH  12  16
ENDBRANCH   1  12
TORSDOF 3
