REMARK  4 active torsions:
REMARK  status: ('A' for Active; 'I' for Inactive)
REMARK    1  A    between atoms: C7_7  and  C10_12 
REMARK    2  A    between atoms: C10_12  and  C11_13 
REMARK    3  A    between atoms: C10_12  and  O3_16 
REMARK    4  A    between atoms: C11_13  and  O2_14 
ROOT
ATOM      1  C1  <0> d          -0.019   1.526   0.010  0.00  0.00     0.030 C 
ATOM      2  C2  <0> d           0.002  -0.004   0.002  0.00  0.00     0.063 A 
ATOM      3  C3  <0> d          -1.402  -0.553   0.108  0.00  0.00    -0.011 A 
ATOM      4  C4  <0> d          -2.515  -0.438  -0.694  0.00  0.00     0.053 A 
ATOM      5  C5  <0> d          -3.695  -1.068  -0.332  0.00  0.00     0.117 A 
ATOM      6  C6  <0> d          -3.748  -1.811   0.835  0.00  0.00     0.054 A 
ATOM      7  C7  <0> d          -2.634  -1.927   1.639  0.00  0.00     0.003 A 
ATOM      8  C8  <0> d          -1.444  -1.296   1.281  0.00  0.00     0.051 A 
ATOM      9  N1  <0> d          -0.201  -1.263   1.917  0.00  0.00    -0.325 N 
ATOM     10  C9  <0> d           0.699  -0.532   1.238  0.00  0.00     0.234 A 
ATOM     11  O1  <0> d           1.852  -0.332   1.556  0.00  0.00    -0.272 OA
ATOM     12  F1  <0> d          -4.790  -0.957  -1.116  0.00  0.00    -0.206 F 
ATOM     13  C13 <0> d           0.689  -0.522  -1.263  0.00  0.00     0.030 C 
ATOM     14  H7  <0> d          -0.009  -1.716   2.753  0.00  0.00     0.169 HD
ENDROOT
BRANCH   7  15
ATOM     15  C10 <0> d          -2.703  -2.737   2.908  0.00  0.00     0.177 C 
BRANCH  15  16
ATOM     16  C11 <0> d          -3.008  -1.812   4.088  0.00  0.00     0.203 C 
BRANCH  16  17
ATOM     17  O2  <0> d          -2.958  -2.559   5.305  0.00  0.00    -0.393 OA
ATOM     18  C12 <0> d          -3.231  -1.785   6.474  0.00  0.00     0.201 C 
ENDBRANCH  16  17
ENDBRANCH  15  16
BRANCH  15  19
ATOM     19  O3  <0> d          -3.736  -3.717   2.792  0.00  0.00    -0.389 OA
ATOM     20  H13 <0> d          -4.616  -3.345   2.642  0.00  0.00     0.210 HD
ENDBRANCH  15  19
ENDBRANCH   7  15
TORSDOF 4
