REMARK  4 active torsions:
REMARK  status: ('A' for Active; 'I' for Inactive)
REMARK    1  A    between atoms: C8_12  and  C9_13 
REMARK       I    between atoms: C9_13  and  N3_15 
REMARK    2  A    between atoms: N3_15  and  C10_16 
REMARK    3  A    between atoms: C10_16  and  C11_17 
REMARK    4  A    between atoms: C11_17  and  N4_20 
ROOT
ATOM      1  C9  <0> d           1.529   1.480   4.601  0.00  0.00     0.259 C 
ATOM      2  O2  <0> d           0.748   1.833   3.736  0.00  0.00    -0.267 OA
ATOM      3  N3  <0> d           1.294   0.355   5.304  0.00  0.00    -0.354 N 
ATOM      4  H8  <0> d           1.916   0.074   5.993  0.00  0.00     0.162 HD
ENDROOT
BRANCH   1   5
ATOM      5  C8  <0> d           2.727   2.280   4.877  0.00  0.00     0.081 A 
ATOM      6  C2  <0> d           3.135   3.437   4.280  0.00  0.00    -0.021 A 
ATOM      7  C1  <0> d           2.309   4.049   3.178  0.00  0.00     0.051 C 
ATOM      8  C3  <0> d           4.316   4.055   4.695  0.00  0.00     0.075 A 
ATOM      9  C6  <0> d           4.944   5.301   4.202  0.00  0.00     0.261 A 
ATOM     10  C4  <0> d           5.019   3.403   5.734  0.00  0.00     0.116 A 
ATOM     11  N2  <0> d           6.100   5.701   4.766  0.00  0.00    -0.312 N 
ATOM     12  O1  <0> d           4.429   5.949   3.308  0.00  0.00    -0.267 OA
ATOM     13  C5  <0> d           6.683   4.988   5.762  0.00  0.00     0.213 A 
ATOM     14  C7  <0> d           6.741   6.931   4.296  0.00  0.00     0.160 C 
ATOM     15  N1  <0> d           6.156   3.885   6.220  0.00  0.00    -0.235 NA
ATOM     16  S1  <0> d           4.014   1.981   6.077  0.00  0.00    -0.063 SA
ENDBRANCH   1   5
BRANCH   3  17
ATOM     17  C10 <0> d           0.097  -0.445   5.028  0.00  0.00     0.161 C 
BRANCH  17  18
ATOM     18  C11 <0> d           0.135  -1.725   5.864  0.00  0.00     0.136 C 
ATOM     19  C12 <0> d           0.039  -1.367   7.349  0.00  0.00     0.048 C 
ATOM     20  C13 <0> d          -1.043  -2.621   5.478  0.00  0.00     0.048 C 
BRANCH  18  21
ATOM     21  N4  <0> d           1.395  -2.437   5.613  0.00  0.00    -0.061 N 
ATOM     22  C18 <0> d           1.415  -3.683   6.390  0.00  0.00     0.240 C 
ATOM     23  C17 <0> d           2.759  -4.388   6.195  0.00  0.00     0.007 C 
ATOM     24  C16 <0> d           2.950  -4.708   4.710  0.00  0.00     0.007 C 
ATOM     25  C19 <0> d           2.775  -5.687   7.003  0.00  0.00     0.011 C 
ATOM     26  C15 <0> d           2.853  -3.411   3.901  0.00  0.00     0.028 C 
ATOM     27  C14 <0> d           1.506  -2.741   4.181  0.00  0.00     0.236 C 
ATOM     28  H29 <0> d           2.171  -1.855   5.892  0.00  0.00     0.280 HD
ENDBRANCH  18  21
ENDBRANCH  17  18
ENDBRANCH   3  17
TORSDOF 4
