REMARK  5 active torsions:
REMARK  status: ('A' for Active; 'I' for Inactive)
REMARK    1  A    between atoms: O1_2  and  C2_3 
REMARK    2  A    between atoms: C4_5  and  N1_12 
REMARK    3  A    between atoms: C5_6  and  O2_10 
REMARK    4  A    between atoms: N1_12  and  S1_13 
REMARK    5  A    between atoms: S1_13  and  C9_16 
ROOT
ATOM      1  N1  <0> d           2.361   0.319  -4.157  0.00  0.00    -0.161 NA
ENDROOT
BRANCH   1   2
ATOM      2  C4  <0> d           1.789  -0.455  -3.140  0.00  0.00     0.105 A 
ATOM      3  C3  <0> d           1.173   0.161  -2.062  0.00  0.00     0.073 A 
ATOM      4  C2  <0> d           0.606  -0.608  -1.056  0.00  0.00     0.092 A 
ATOM      5  C7  <0> d           0.660  -1.992  -1.127  0.00  0.00     0.070 A 
ATOM      6  C6  <0> d           1.270  -2.609  -2.205  0.00  0.00     0.066 A 
ATOM      7 Cl1  <0> d          -0.043  -2.952   0.137  0.00  0.00    -0.081 Cl
ATOM      8  C5  <0> d           1.837  -1.845  -3.211  0.00  0.00     0.099 A 
BRANCH   4   9
ATOM      9  O1  <0> d           0.002  -0.004   0.002  0.00  0.00    -0.354 OA
ATOM     10  C1  <0> d          -0.017   1.425   0.010  0.00  0.00     0.210 C 
ENDBRANCH   4   9
BRANCH   8  11
ATOM     11  O2  <0> d           2.441  -2.453  -4.269  0.00  0.00    -0.353 OA
ATOM     12  C8  <0> d           2.453  -3.881  -4.276  0.00  0.00     0.210 C 
ENDBRANCH   8  11
ENDBRANCH   1   2
BRANCH   1  13
ATOM     13  S1  <0> d           2.302   1.972  -4.072  0.00  0.00     0.257 S 
ATOM     14  O3  <0> d           0.919   2.290  -4.139  0.00  0.00    -0.203 OA
ATOM     15  O4  <0> d           3.066   2.303  -2.920  0.00  0.00    -0.203 OA
BRANCH  13  16
ATOM     16  C9  <0> d           3.149   2.546  -5.570  0.00  0.00     0.157 C 
ATOM     17  C13 <0> d           3.268   4.072  -5.537  0.00  0.00     0.254 C 
ATOM     18  N2  <0> d           3.956   4.539  -6.746  0.00  0.00    -0.074 N 
ATOM     19  C12 <0> d           5.325   4.011  -6.777  0.00  0.00     0.232 C 
ATOM     20  H16 <0> d           3.986   5.548  -6.746  0.00  0.00     0.277 HD
ATOM     21  H19 <0> d           3.454   4.219  -7.561  0.00  0.00     0.277 HD
ATOM     22  C11 <0> d           5.284   2.483  -6.859  0.00  0.00     0.029 C 
ATOM     23  C10 <0> d           4.550   1.931  -5.633  0.00  0.00     0.025 C 
ENDBRANCH  13  16
ENDBRANCH   1  13
TORSDOF 5
