REMARK  4 active torsions:
REMARK  status: ('A' for Active; 'I' for Inactive)
REMARK    1  A    between atoms: C2_2  and  C5_9 
REMARK    2  A    between atoms: C9_13  and  N3_15 
REMARK       I    between atoms: N3_15  and  C11_16 
REMARK    3  A    between atoms: C11_16  and  C12_18 
REMARK    4  A    between atoms: C12_18  and  C13_19 
ROOT
ATOM      1  C5  <0> d           0.416  -1.248  -1.347  0.00  0.00    -0.019 A 
ATOM      2  C6  <0> d           1.787  -1.307  -1.170  0.00  0.00     0.010 A 
ATOM      3  C7  <0> d           2.636  -1.040  -2.227  0.00  0.00     0.003 A 
ATOM      4  C8  <0> d           2.119  -0.712  -3.465  0.00  0.00     0.029 A 
ATOM      5  C9  <0> d           0.744  -0.651  -3.647  0.00  0.00     0.035 A 
ATOM      6  C10 <0> d          -0.107  -0.926  -2.584  0.00  0.00     0.039 A 
ENDROOT
BRANCH   5   7
ATOM      7  N3  <0> d           0.216  -0.319  -4.900  0.00  0.00    -0.327 N 
ATOM      8  C11 <0> d           0.860  -0.694  -6.023  0.00  0.00     0.226 C 
ATOM      9  O3  <0> d           1.843  -1.400  -5.951  0.00  0.00    -0.273 OA
ATOM     10  H10 <0> d          -0.613   0.181  -4.960  0.00  0.00     0.169 HD
BRANCH   8  11
ATOM     11  C12 <0> d           0.357  -0.236  -7.368  0.00  0.00     0.141 C 
BRANCH  11  12
ATOM     12  C13 <0> d           1.247  -0.789  -8.451  0.00  0.00    -0.045 A 
ATOM     13  C18 <0> d           0.960  -2.016  -9.020  0.00  0.00     0.034 A 
ATOM     14  C17 <0> d           1.772  -2.525 -10.017  0.00  0.00     0.070 A 
ATOM     15  C16 <0> d           2.883  -1.810 -10.441  0.00  0.00     0.123 A 
ATOM     16 Cl1  <0> d           1.405  -4.063 -10.735  0.00  0.00    -0.081 Cl
ATOM     17  C15 <0> d           3.172  -0.578  -9.867  0.00  0.00     0.104 A 
ATOM     18  O4  <0> d           3.680  -2.329 -11.415  0.00  0.00    -0.344 OA
ATOM     19  C14 <0> d           2.351  -0.071  -8.871  0.00  0.00     0.047 A 
ATOM     20  O5  <0> d           4.253   0.143 -10.272  0.00  0.00    -0.346 OA
ATOM     21  C20 <0> d           5.261  -0.565 -11.003  0.00  0.00     0.202 C 
ATOM     22  C19 <0> d           4.568  -1.419 -12.073  0.00  0.00     0.202 C 
ENDBRANCH  11  12
ENDBRANCH   8  11
ENDBRANCH   5   7
BRANCH   1  23
ATOM     23  C2  <0> d          -0.506  -1.541  -0.192  0.00  0.00     0.139 A 
ATOM     24  C1  <0> d          -1.406  -0.337   0.094  0.00  0.00     0.054 C 
ATOM     25  N2  <0> d           0.266  -1.907   1.007  0.00  0.00    -0.321 N 
ATOM     26  C4  <0> d          -0.098  -3.161   1.331  0.00  0.00     0.324 A 
ATOM     27  H5  <0> d           0.911  -1.353   1.473  0.00  0.00     0.165 HD
ATOM     28  N1  <0> d          -1.012  -3.661   0.492  0.00  0.00    -0.277 N 
ATOM     29  O2  <0> d           0.354  -3.773   2.279  0.00  0.00    -0.247 OA
ATOM     30  C3  <0> d          -1.339  -2.776  -0.471  0.00  0.00     0.258 A 
ATOM     31  H4  <0> d          -1.393  -4.549   0.567  0.00  0.00     0.173 HD
ATOM     32  O1  <0> d          -2.134  -2.935  -1.373  0.00  0.00    -0.270 OA
ENDBRANCH   1  23
TORSDOF 4
