REMARK  5 active torsions:
REMARK  status: ('A' for Active; 'I' for Inactive)
REMARK    1  A    between atoms: C3_3  and  O2_18 
REMARK    2  A    between atoms: C4_4  and  C7_8 
REMARK       I    between atoms: C7_8  and  N1_10 
REMARK    3  A    between atoms: N1_10  and  C8_11 
REMARK    4  A    between atoms: C8_11  and  C9_12 
REMARK    5  A    between atoms: C9_12  and  N2_13 
ROOT
ATOM      1  C7  <0> d           3.692  -0.692  -0.038  0.00  0.00     0.254 C 
ATOM      2  O1  <0> d           4.737  -0.070  -0.046  0.00  0.00    -0.268 OA
ATOM      3  N1  <0> d           3.711  -2.040  -0.046  0.00  0.00    -0.355 N 
ATOM      4  H4  <0> d           2.877  -2.536  -0.040  0.00  0.00     0.162 HD
ENDROOT
BRANCH   1   5
ATOM      5  C4  <0> d           2.404   0.028  -0.021  0.00  0.00     0.066 A 
ATOM      6  C3  <0> d           2.381   1.429  -0.013  0.00  0.00     0.081 A 
ATOM      7  C2  <0> d           1.165   2.096   0.002  0.00  0.00     0.039 A 
ATOM      8  C1  <0> d          -0.017   1.382   0.010  0.00  0.00     0.022 A 
ATOM      9  C6  <0> d           0.002  -0.004   0.002  0.00  0.00     0.012 A 
ATOM     10  C5  <0> d           1.202  -0.683  -0.013  0.00  0.00     0.039 A 
ATOM     11 Br1  <0> d          -1.625  -0.968   0.012  0.00  0.00    -0.051 Br
BRANCH   6  12
ATOM     12  O2  <0> d           3.542   2.130  -0.022  0.00  0.00    -0.360 OA
ATOM     13  H12 <0> d           3.888   2.329   0.859  0.00  0.00     0.217 HD
ENDBRANCH   6  12
ENDBRANCH   1   5
BRANCH   3  14
ATOM     14  C8  <0> d           4.989  -2.755  -0.063  0.00  0.00     0.143 C 
BRANCH  14  15
ATOM     15  C9  <0> d           4.730  -4.263  -0.068  0.00  0.00     0.149 C 
BRANCH  15  16
ATOM     16  N2  <0> d           6.009  -4.978  -0.085  0.00  0.00    -0.350 N 
ATOM     17  C12 <0> d           6.720  -5.374   0.992  0.00  0.00     0.182 A 
ATOM     18  N3  <0> d           7.799  -5.981   0.581  0.00  0.00    -0.361 N 
ATOM     19  C11 <0> d           7.821  -5.986  -0.760  0.00  0.00     0.106 A 
ATOM     20  H13 <0> d           8.481  -6.365   1.155  0.00  0.00     0.166 HD
ATOM     21  C10 <0> d           6.709  -5.363  -1.196  0.00  0.00     0.108 A 
ENDBRANCH  15  16
ENDBRANCH  14  15
ENDBRANCH   3  14
TORSDOF 5
