REMARK  6 active torsions:
REMARK  status: ('A' for Active; 'I' for Inactive)
REMARK    1  A    between atoms: C7_7  and  C8_8 
REMARK       I    between atoms: C8_8  and  N1_10 
REMARK    2  A    between atoms: C10_12  and  C17_20 
REMARK       I    between atoms: C17_20  and  N3_22 
REMARK    3  A    between atoms: N3_22  and  C18_23 
REMARK    4  A    between atoms: C18_23  and  C19_24 
REMARK    5  A    between atoms: C19_24  and  C20_25 
REMARK    6  A    between atoms: C20_25  and  N4_26 
ROOT
ATOM      1  C8  <0> d           0.117   0.199   2.410  0.00  0.00     0.254 C 
ATOM      2  O1  <0> d          -0.024   1.405   2.357  0.00  0.00    -0.267 OA
ATOM      3  N1  <0> d           0.321  -0.403   3.599  0.00  0.00    -0.346 N 
ATOM      4  C9  <0> d           0.601  -1.836   3.855  0.00  0.00     0.141 C 
ATOM      5  C10 <0> d           1.656  -1.831   4.984  0.00  0.00     0.106 C 
ATOM      6  C11 <0> d           1.462  -0.482   5.697  0.00  0.00    -0.007 C 
ATOM      7  C12 <0> d           0.322   0.219   4.944  0.00  0.00     0.136 C 
ATOM      8  C13 <0> d           2.737   0.351   5.606  0.00  0.00     0.039 C 
ATOM      9  C14 <0> d           2.539   1.663   6.370  0.00  0.00     0.233 C 
ATOM     10  N2  <0> d           2.220   1.371   7.773  0.00  0.00    -0.075 N 
ATOM     11  C15 <0> d           0.945   0.649   7.857  0.00  0.00     0.233 C 
ATOM     12  C16 <0> d           1.075  -0.706   7.155  0.00  0.00     0.039 C 
ATOM     13  H18 <0> d           2.953   0.803   8.172  0.00  0.00     0.277 HD
ATOM     14  H42 <0> d           2.150   2.236   8.288  0.00  0.00     0.277 HD
ENDROOT
BRANCH   5  15
ATOM     15  C17 <0> d           1.408  -2.972   5.938  0.00  0.00     0.224 C 
ATOM     16  O2  <0> d           0.273  -3.329   6.174  0.00  0.00    -0.273 OA
ATOM     17  N3  <0> d           2.447  -3.595   6.528  0.00  0.00    -0.361 N 
ATOM     18  H23 <0> d           3.355  -3.309   6.338  0.00  0.00     0.162 HD
BRANCH  17  19
ATOM     19  C18 <0> d           2.207  -4.703   7.455  0.00  0.00     0.124 C 
BRANCH  19  20
ATOM     20  C19 <0> d           3.544  -5.229   7.980  0.00  0.00     0.047 C 
BRANCH  20  21
ATOM     21  C20 <0> d           3.293  -6.386   8.948  0.00  0.00     0.237 C 
BRANCH  21  22
ATOM     22  N4  <0> d           4.577  -6.891   9.452  0.00  0.00    -0.067 N 
ATOM     23  C25 <0> d           4.342  -8.076  10.286  0.00  0.00     0.184 C 
ATOM     24  C24 <0> d           5.682  -8.653  10.747  0.00  0.00     0.033 C 
ATOM     25  C26 <0> d           3.586  -9.129   9.473  0.00  0.00     0.040 C 
ATOM     26  C23 <0> d           6.434  -7.596  11.560  0.00  0.00     0.004 C 
ATOM     27  C22 <0> d           6.608  -6.337  10.706  0.00  0.00     0.028 C 
ATOM     28  C21 <0> d           5.234  -5.846  10.246  0.00  0.00     0.235 C 
ATOM     29  H41 <0> d           5.168  -7.141   8.673  0.00  0.00     0.280 HD
ENDBRANCH  21  22
ENDBRANCH  20  21
ENDBRANCH  19  20
ENDBRANCH  17  19
ENDBRANCH   5  15
BRANCH   1  30
ATOM     30  C7  <0> d           0.066  -0.607   1.172  0.00  0.00     0.038 A 
ATOM     31  C2  <0> d          -1.021  -0.489   0.304  0.00  0.00    -0.046 A 
ATOM     32  C1  <0> d          -2.145   0.461   0.626  0.00  0.00     0.049 C 
ATOM     33  C3  <0> d          -1.060  -1.240  -0.853  0.00  0.00     0.007 A 
ATOM     34  C4  <0> d          -0.029  -2.113  -1.150  0.00  0.00     0.001 A 
ATOM     35  C5  <0> d           1.049  -2.239  -0.291  0.00  0.00     0.001 A 
ATOM     36  C6  <0> d           1.101  -1.494   0.869  0.00  0.00     0.017 A 
ENDBRANCH   1  30
TORSDOF 6
