REMARK  3 active torsions:
REMARK  status: ('A' for Active; 'I' for Inactive)
REMARK    1  A    between atoms: N1_7  and  C10_17 
REMARK    2  A    between atoms: N2_10  and  C8_13 
REMARK    3  A    between atoms: C8_13  and  C9_14 
REMARK       I    between atoms: C9_14  and  N3_16 
ROOT
ATOM      1  C1  <0> d           1.957  -4.244  -4.987  0.00  0.00     0.056 C 
ATOM      2  C2  <0> d           1.608  -3.930  -3.556  0.00  0.00    -0.018 A 
ATOM      3  C3  <0> d           1.589  -4.760  -2.502  0.00  0.00     0.034 A 
ATOM      4  C4  <0> d           1.215  -4.209  -1.209  0.00  0.00     0.068 A 
ATOM      5  C5  <0> d           1.111  -4.884   0.103  0.00  0.00     0.269 A 
ATOM      6  O1  <0> d           1.358  -6.072   0.205  0.00  0.00    -0.266 OA
ATOM      7  N1  <0> d           0.741  -4.171   1.181  0.00  0.00    -0.229 N 
ATOM      8  C6  <0> d           0.467  -2.859   1.103  0.00  0.00     0.337 A 
ATOM      9  O2  <0> d           0.141  -2.257   2.108  0.00  0.00    -0.246 OA
ATOM     10  N2  <0> d           0.540  -2.196  -0.068  0.00  0.00    -0.283 N 
ATOM     11  C7  <0> d           0.910  -2.846  -1.214  0.00  0.00     0.097 A 
ATOM     12  S1  <0> d           1.120  -2.366  -2.855  0.00  0.00    -0.076 SA
ENDROOT
BRANCH   7  13
ATOM     13  C10 <0> d           0.644  -4.814   2.423  0.00  0.00     0.047 A 
ATOM     14  C15 <0> d          -0.556  -5.392   2.814  0.00  0.00     0.030 A 
ATOM     15  C14 <0> d          -0.648  -6.026   4.038  0.00  0.00     0.002 A 
ATOM     16  C13 <0> d           0.453  -6.084   4.873  0.00  0.00     0.000 A 
ATOM     17  C12 <0> d           1.649  -5.509   4.486  0.00  0.00     0.002 A 
ATOM     18  C11 <0> d           1.749  -4.880   3.260  0.00  0.00     0.030 A 
ENDBRANCH   7  13
BRANCH  10  19
ATOM     19  C8  <0> d           0.228  -0.765  -0.113  0.00  0.00     0.237 C 
BRANCH  19  20
ATOM     20  C9  <0> d          -1.241  -0.580  -0.394  0.00  0.00     0.233 C 
ATOM     21  O3  <0> d          -1.956  -1.548  -0.541  0.00  0.00    -0.272 OA
ATOM     22  N3  <0> d          -1.759   0.661  -0.481  0.00  0.00    -0.369 N 
ATOM     23  H7  <0> d          -2.831   0.796  -0.685  0.00  0.00     0.159 HD
ATOM     24  H8  <0> d          -1.110   1.538  -0.347  0.00  0.00     0.159 HD
ENDBRANCH  19  20
ENDBRANCH  10  19
TORSDOF 3
