REMARK  5 active torsions:
REMARK  status: ('A' for Active; 'I' for Inactive)
REMARK    1  A    between atoms: C3_4  and  C5_7 
REMARK    2  A    between atoms: C5_7  and  C6_8 
REMARK    3  A    between atoms: C6_8  and  N2_9 
REMARK       I    between atoms: N2_9  and  C7_10 
REMARK    4  A    between atoms: C7_10  and  C8_12 
REMARK    5  A    between atoms: C9_13  and  C11_17 
ROOT
ATOM      1  C8  <0> d           3.164  -1.839  -6.988  0.00  0.00     0.062 A 
ATOM      2  C9  <0> d           3.057  -1.472  -8.301  0.00  0.00     0.102 A 
ATOM      3  N3  <0> d           4.009  -2.104  -9.039  0.00  0.00    -0.154 NA
ATOM      4  N4  <0> d           4.746  -2.850  -8.393  0.00  0.00    -0.188 NA
ATOM      5  C10 <0> d           4.337  -2.804  -6.981  0.00  0.00     0.220 A 
ENDROOT
BRANCH   1   6
ATOM      6  C7  <0> d           2.346  -1.402  -5.857  0.00  0.00     0.251 C 
ATOM      7  N2  <0> d           2.669  -1.782  -4.605  0.00  0.00    -0.357 N 
ATOM      8  H11 <0> d           3.444  -2.346  -4.454  0.00  0.00     0.162 HD
ATOM      9  O1  <0> d           1.374  -0.695  -6.047  0.00  0.00    -0.268 OA
BRANCH   7  10
ATOM     10  C6  <0> d           1.850  -1.344  -3.472  0.00  0.00     0.128 C 
BRANCH  10  11
ATOM     11  C5  <0> d           2.429  -1.911  -2.175  0.00  0.00     0.075 C 
BRANCH  11  12
ATOM     12  C3  <0> d           1.587  -1.460  -1.009  0.00  0.00     0.019 C 
ATOM     13  N1  <0> d           0.580  -0.730  -1.191  0.00  0.00    -0.282 NA
ATOM     14  C2  <0> d          -0.245  -0.292  -0.047  0.00  0.00     0.165 C 
ATOM     15  C1  <0> d          -0.522   1.212  -0.109  0.00  0.00     0.046 C 
ATOM     16  S1  <0> d           0.874  -0.706   1.363  0.00  0.00    -0.136 SA
ATOM     17  C4  <0> d           1.938  -1.881   0.411  0.00  0.00     0.130 C 
ENDBRANCH  11  12
ENDBRANCH  10  11
ENDBRANCH   7  10
ENDBRANCH   1   6
BRANCH   2  18
ATOM     18  C11 <0> d           2.055  -0.529  -8.838  0.00  0.00    -0.002 A 
ATOM     19  C16 <0> d           1.304  -0.872  -9.965  0.00  0.00     0.053 A 
ATOM     20  C15 <0> d           0.362   0.011 -10.462  0.00  0.00     0.103 A 
ATOM     21  C14 <0> d           0.171   1.245  -9.844  0.00  0.00     0.102 A 
ATOM     22  O2  <0> d          -0.361  -0.336 -11.562  0.00  0.00    -0.346 OA
ATOM     23  C13 <0> d           0.923   1.588  -8.726  0.00  0.00     0.040 A 
ATOM     24  O3  <0> d          -0.750   2.124 -10.320  0.00  0.00    -0.346 OA
ATOM     25  C12 <0> d           1.859   0.711  -8.224  0.00  0.00     0.017 A 
ATOM     26  C18 <0> d          -1.216   1.909 -11.656  0.00  0.00     0.202 C 
ATOM     27  C17 <0> d          -1.551   0.419 -11.814  0.00  0.00     0.202 C 
ENDBRANCH   2  18
TORSDOF 5
