REMARK  5 active torsions:
REMARK  status: ('A' for Active; 'I' for Inactive)
REMARK    1  A    between atoms: C12_13  and  O4_26 
REMARK    2  A    between atoms: C18_19  and  C19_20 
REMARK    3  A    between atoms: C18_19  and  O3_24 
REMARK    4  A    between atoms: C19_20  and  C21_22 
REMARK    5  A    between atoms: C21_22  and  O2_23 
ROOT
ATOM      1  C1  <0> d          -0.518   2.306  -0.336  0.00  0.00     0.020 C 
ATOM      2  C2  <0> d          -0.245   0.836  -0.016  0.00  0.00    -0.014 C 
ATOM      3  C3  <0> d           0.678   0.257  -1.099  0.00  0.00     0.022 C 
ATOM      4  C4  <0> d           1.987   1.044  -1.152  0.00  0.00     0.084 C 
ATOM      5  C5  <0> d           2.606   1.085   0.222  0.00  0.00     0.149 C 
ATOM      6  O1  <0> d           3.795   1.302   0.345  0.00  0.00    -0.293 OA
ATOM      7  C6  <0> d           1.779   0.870   1.406  0.00  0.00     0.053 C 
ATOM      8  C7  <0> d           0.459   0.741   1.313  0.00  0.00    -0.068 C 
ATOM      9  C8  <0> d          -0.362   0.487   2.551  0.00  0.00     0.035 C 
ATOM     10  C9  <0> d          -1.101  -0.839   2.398  0.00  0.00     0.010 C 
ATOM     11  C10 <0> d          -1.460  -1.157   0.967  0.00  0.00    -0.002 C 
ATOM     12  C11 <0> d          -1.533   0.029   0.014  0.00  0.00     0.031 C 
ATOM     13  C12 <0> d          -2.805   0.836   0.102  0.00  0.00     0.124 C 
ATOM     14  C13 <0> d          -4.056  -0.053  -0.038  0.00  0.00     0.045 C 
ATOM     15  C14 <0> d          -4.010  -1.172   0.969  0.00  0.00    -0.003 C 
ATOM     16  C15 <0> d          -2.709  -1.981   0.814  0.00  0.00     0.002 C 
ATOM     17  C16 <0> d          -2.942  -3.136   1.795  0.00  0.00     0.009 C 
ATOM     18  C17 <0> d          -4.433  -3.498   1.536  0.00  0.00     0.044 C 
ATOM     19  C18 <0> d          -5.050  -2.295   0.775  0.00  0.00     0.090 C 
ATOM     20  C22 <0> d          -4.238  -0.628   2.378  0.00  0.00     0.019 C 
ENDROOT
BRANCH  19  21
ATOM     21  C19 <0> d          -6.359  -1.891   1.395  0.00  0.00    -0.031 C 
ATOM     22  C20 <0> d          -6.940  -2.676   2.268  0.00  0.00     0.019 C 
BRANCH  21  23
ATOM     23  C21 <0> d          -7.001  -0.583   1.012  0.00  0.00     0.200 C 
BRANCH  23  24
ATOM     24  O2  <0> d          -8.282  -0.480   1.637  0.00  0.00    -0.397 OA
ATOM     25  H27 <0> d          -8.754   0.340   1.435  0.00  0.00     0.209 HD
ENDBRANCH  23  24
ENDBRANCH  21  23
ENDBRANCH  19  21
BRANCH  19  26
ATOM     26  O3  <0> d          -5.204  -2.591  -0.608  0.00  0.00    -0.384 OA
ATOM     27  H28 <0> d          -5.846  -3.291  -0.792  0.00  0.00     0.211 HD
ENDBRANCH  19  26
BRANCH  13  28
ATOM     28  O4  <0> d          -2.868   1.601   1.300  0.00  0.00    -0.395 OA
ATOM     29  H32 <0> d          -3.672   2.130   1.387  0.00  0.00     0.210 HD
ENDBRANCH  13  28
TORSDOF 5
