REMARK  7 active torsions:
REMARK  status: ('A' for Active; 'I' for Inactive)
REMARK    1  A    between atoms: N1_2  and  C2_3 
REMARK       I    between atoms: N1_2  and  C12_17 
REMARK    2  A    between atoms: C2_3  and  C3_4 
REMARK    3  A    between atoms: C3_4  and  C4_5 
REMARK    4  A    between atoms: C4_5  and  O1_6 
REMARK    5  A    between atoms: O1_6  and  C5_7 
REMARK    6  A    between atoms: C8_10  and  S1_13 
REMARK    7  A    between atoms: C12_17  and  C13_19 
ROOT
ATOM      1  C1  <0> d          -0.034   1.460   0.012  0.00  0.00     0.152 C 
ATOM      2  N1  <0> d           0.003  -0.004   0.002  0.00  0.00    -0.352 N 
ATOM      3  C12 <0> d          -0.102  -0.673  -1.163  0.00  0.00     0.253 C 
ATOM      4  O4  <0> d          -0.178  -1.886  -1.163  0.00  0.00    -0.267 OA
ENDROOT
BRANCH   2   5
ATOM      5  C2  <0> d           0.154  -0.742   1.259  0.00  0.00     0.127 C 
BRANCH   5   6
ATOM      6  C3  <0> d          -1.227  -1.036   1.847  0.00  0.00     0.046 C 
BRANCH   6   7
ATOM      7  C4  <0> d          -1.069  -1.806   3.159  0.00  0.00     0.177 C 
BRANCH   7   8
ATOM      8  O1  <0> d          -2.359  -2.081   3.709  0.00  0.00    -0.351 OA
BRANCH   8   9
ATOM      9  C5  <0> d          -2.397  -2.764   4.883  0.00  0.00     0.068 A 
ATOM     10  C10 <0> d          -3.616  -3.065   5.473  0.00  0.00     0.038 A 
ATOM     11  C9  <0> d          -3.652  -3.764   6.664  0.00  0.00     0.026 A 
ATOM     12  C8  <0> d          -2.474  -4.153   7.274  0.00  0.00     0.059 A 
ATOM     13  C7  <0> d          -1.258  -3.850   6.691  0.00  0.00     0.026 A 
ATOM     14  C6  <0> d          -1.217  -3.156   5.497  0.00  0.00     0.038 A 
BRANCH  12  15
ATOM     15  S1  <0> d          -2.523  -5.039   8.797  0.00  0.00     0.171 S 
ATOM     16  O2  <0> d          -3.783  -5.697   8.793  0.00  0.00    -0.223 OA
ATOM     17  O3  <0> d          -1.315  -5.786   8.821  0.00  0.00    -0.223 OA
ATOM     18  C11 <0> d          -2.492  -3.759  10.081  0.00  0.00     0.167 C 
ENDBRANCH  12  15
ENDBRANCH   8   9
ENDBRANCH   7   8
ENDBRANCH   6   7
ENDBRANCH   5   6
ENDBRANCH   2   5
BRANCH   3  19
ATOM     19  C13 <0> d          -0.124   0.068  -2.441  0.00  0.00     0.034 A 
ATOM     20  C18 <0> d          -0.902  -0.394  -3.495  0.00  0.00     0.053 A 
ATOM     21  C17 <0> d          -0.923   0.316  -4.699  0.00  0.00     0.110 A 
ATOM     22  C16 <0> d          -0.145   1.481  -4.827  0.00  0.00     0.082 A 
ATOM     23  N2  <0> d          -1.568   0.124  -5.874  0.00  0.00    -0.130 NA
ATOM     24  C15 <0> d           0.634   1.925  -3.760  0.00  0.00     0.034 A 
ATOM     25  N4  <0> d          -0.362   1.946  -6.100  0.00  0.00    -0.258 N 
ATOM     26  C14 <0> d           0.645   1.232  -2.587  0.00  0.00     0.019 A 
ATOM     27  N3  <0> d          -1.261   1.056  -6.706  0.00  0.00    -0.067 NA
ATOM     28  H1  <0> d           0.029   2.737  -6.503  0.00  0.00     0.191 HD
ENDBRANCH   3  19
TORSDOF 7
