REMARK  8 active torsions:
REMARK  status: ('A' for Active; 'I' for Inactive)
REMARK    1  A    between atoms: C2_2  and  C3_3 
REMARK    2  A    between atoms: C3_3  and  C4_4 
REMARK    3  A    between atoms: C3_3  and  N1_6 
REMARK    4  A    between atoms: C4_4  and  O1_5 
REMARK    5  A    between atoms: N1_6  and  C5_7 
REMARK    6  A    between atoms: C5_7  and  C6_8 
REMARK    7  A    between atoms: C5_7  and  C12_15 
REMARK    8  A    between atoms: C9_11  and  O2_14 
ROOT
ATOM      1  C5  <0> d           1.059   2.138  -0.101  0.00  0.00     0.252 C 
ENDROOT
BRANCH   1   2
ATOM      2  N1  <0> d          -0.028   1.191   0.184  0.00  0.00    -0.057 N 
ATOM      3  H11 <0> d          -0.027   0.410  -0.592  0.00  0.00     0.278 HD
ATOM      4  H21 <0> d          -0.984   1.733   0.158  0.00  0.00     0.278 HD
BRANCH   2   5
ATOM      5  C3  <0> d           0.148   0.570   1.504  0.00  0.00     0.210 C 
BRANCH   5   6
ATOM      6  C2  <0> d           1.424  -0.275   1.504  0.00  0.00     0.030 C 
ATOM      7  C1  <0> d           1.263  -1.442   0.529  0.00  0.00     0.007 C 
ENDBRANCH   5   6
BRANCH   5   8
ATOM      8  C4  <0> d           0.258   1.661   2.570  0.00  0.00     0.197 C 
BRANCH   8   9
ATOM      9  O1  <0> d          -0.950   2.425   2.596  0.00  0.00    -0.399 OA
ATOM     10  H10 <0> d          -1.057   3.260   3.305  0.00  0.00     0.209 HD
ENDBRANCH   8   9
ENDBRANCH   5   8
ENDBRANCH   2   5
ENDBRANCH   1   2
BRANCH   1  11
ATOM     11  C6  <0> d           0.512   3.542  -0.108  0.00  0.00    -0.023 A 
ATOM     12  C11 <0> d           1.187   4.549   0.556  0.00  0.00     0.012 A 
ATOM     13  C10 <0> d           0.688   5.838   0.550  0.00  0.00     0.037 A 
ATOM     14  C9  <0> d          -0.492   6.120  -0.122  0.00  0.00     0.065 A 
ATOM     15  C8  <0> d          -1.168   5.108  -0.787  0.00  0.00     0.037 A 
ATOM     16  C7  <0> d          -0.662   3.822  -0.784  0.00  0.00     0.012 A 
BRANCH  14  17
ATOM     17  O2  <0> d          -0.985   7.386  -0.129  0.00  0.00    -0.361 OA
ATOM     18  H16 <0> d          -0.448   8.189   0.399  0.00  0.00     0.217 HD
ENDBRANCH  14  17
ENDBRANCH   1  11
BRANCH   1  19
ATOM     19  C12 <0> d           1.658   1.825  -1.448  0.00  0.00    -0.023 A 
ATOM     20  C17 <0> d           3.025   1.909  -1.632  0.00  0.00     0.011 A 
ATOM     21  C16 <0> d           3.575   1.623  -2.867  0.00  0.00     0.024 A 
ATOM     22  C15 <0> d           2.757   1.251  -3.919  0.00  0.00     0.034 A 
ATOM     23  C14 <0> d           1.389   1.167  -3.734  0.00  0.00     0.024 A 
ATOM     24 Cl1  <0> d           3.447   0.890  -5.471  0.00  0.00    -0.084 Cl
ATOM     25  C13 <0> d           0.840   1.449  -2.497  0.00  0.00     0.011 A 
ENDBRANCH   1  19
TORSDOF 8
