REMARK  5 active torsions:
REMARK  status: ('A' for Active; 'I' for Inactive)
REMARK    1  A    between atoms: C5_5  and  C13_17 
REMARK    2  A    between atoms: N2_9  and  C8_11 
REMARK       I    between atoms: C13_17  and  N5_19 
REMARK    3  A    between atoms: N5_19  and  C14_20 
REMARK    4  A    between atoms: C14_20  and  C15_21 
REMARK    5  A    between atoms: C15_21  and  N6_23 
ROOT
ATOM      1  C13 <0> d          -2.505   1.055   0.019  0.00  0.00     0.253 C 
ATOM      2  O1  <0> d          -2.519  -0.161   0.013  0.00  0.00    -0.268 OA
ATOM      3  N5  <0> d          -3.665   1.742   0.029  0.00  0.00    -0.355 N 
ATOM      4  H11 <0> d          -3.652   2.842   0.034  0.00  0.00     0.162 HD
ENDROOT
BRANCH   1   5
ATOM      5  C5  <0> d          -1.218   1.779   0.017  0.00  0.00     0.050 A 
ATOM      6  C4  <0> d          -0.013   1.076   0.008  0.00  0.00     0.036 A 
ATOM      7  C3  <0> d           1.174   1.812   0.001  0.00  0.00     0.039 A 
ATOM      8  C2  <0> d           2.590   1.456  -0.015  0.00  0.00     0.065 A 
ATOM      9  C7  <0> d           1.116   3.221   0.009  0.00  0.00     0.165 A 
ATOM     10  C1  <0> d           3.157   0.060  -0.028  0.00  0.00     0.073 C 
ATOM     11  N3  <0> d           3.275   2.564  -0.015  0.00  0.00    -0.168 NA
ATOM     12  N2  <0> d           2.412   3.664  -0.001  0.00  0.00    -0.196 N 
ATOM     13  N1  <0> d          -0.059   3.842   0.023  0.00  0.00    -0.240 NA
ATOM     14  C6  <0> d          -1.192   3.180   0.031  0.00  0.00     0.136 A 
BRANCH  12  15
ATOM     15  C8  <0> d           2.809   5.002   0.003  0.00  0.00     0.152 A 
ATOM     16  N4  <0> d           1.994   5.929  -0.474  0.00  0.00    -0.241 NA
ATOM     17  C12 <0> d           2.328   7.205  -0.485  0.00  0.00     0.119 A 
ATOM     18  C11 <0> d           3.554   7.620  -0.004  0.00  0.00     0.019 A 
ATOM     19  C10 <0> d           4.440   6.679   0.501  0.00  0.00     0.005 A 
ATOM     20  C9  <0> d           4.059   5.348   0.503  0.00  0.00     0.052 A 
ENDBRANCH  12  15
ENDBRANCH   1   5
BRANCH   3  21
ATOM     21  C14 <0> d          -4.942   1.025   0.030  0.00  0.00     0.155 C 
BRANCH  21  22
ATOM     22  C15 <0> d          -6.093   2.032   0.041  0.00  0.00     0.202 C 
ATOM     23  C16 <0> d          -7.424   1.287  -0.082  0.00  0.00     0.042 C 
BRANCH  22  24
ATOM     24  N6  <0> d          -5.944   2.959  -1.089  0.00  0.00    -0.061 N 
ATOM     25  C25 <0> d          -6.105   2.259  -2.367  0.00  0.00     0.274 C 
ATOM     26  C24 <0> d          -6.049   3.234  -3.514  0.00  0.00    -0.026 A 
ATOM     27  C19 <0> d          -6.225   4.588  -3.326  0.00  0.00    -0.049 A 
ATOM     28  C23 <0> d          -5.814   2.741  -4.789  0.00  0.00     0.009 A 
ATOM     29  C18 <0> d          -6.472   5.171  -1.958  0.00  0.00     0.067 C 
ATOM     30  C20 <0> d          -6.172   5.448  -4.412  0.00  0.00     0.007 A 
ATOM     31  C17 <0> d          -6.904   4.069  -0.991  0.00  0.00     0.240 C 
ATOM     32  C21 <0> d          -5.939   4.956  -5.681  0.00  0.00     0.001 A 
ATOM     33  C22 <0> d          -5.759   3.598  -5.869  0.00  0.00     0.001 A 
ATOM     34  H27 <0> d          -4.925   3.372  -1.048  0.00  0.00     0.280 HD
ENDBRANCH  22  24
ENDBRANCH  21  22
ENDBRANCH   3  21
TORSDOF 5
