REMARK  6 active torsions:
REMARK  status: ('A' for Active; 'I' for Inactive)
REMARK    1  A    between atoms: C2_2  and  C3_3 
REMARK    2  A    between atoms: C3_3  and  C4_4 
REMARK    3  A    between atoms: C3_3  and  N4_20 
REMARK    4  A    between atoms: C4_4  and  C5_5 
REMARK    5  A    between atoms: C4_4  and  S1_12 
REMARK    6  A    between atoms: S1_12  and  C11_13 
ROOT
ATOM      1  C4  <0> d           0.667  -2.194   1.243  0.00  0.00     0.118 C 
ENDROOT
BRANCH   1   2
ATOM      2  C3  <0> d           0.434  -0.692   1.068  0.00  0.00     0.201 C 
BRANCH   2   3
ATOM      3  C2  <0> d          -0.279  -0.139   2.304  0.00  0.00     0.030 C 
ATOM      4  C1  <0> d          -0.385   1.384   2.193  0.00  0.00     0.007 C 
ENDBRANCH   2   3
BRANCH   2   5
ATOM      5  N4  <0> d          -0.395  -0.459  -0.122  0.00  0.00    -0.074 N 
ATOM      6  H16 <0> d          -0.465   0.532  -0.295  0.00  0.00     0.274 HD
ATOM      7  H17 <0> d           0.026  -0.911  -0.919  0.00  0.00     0.274 HD
ATOM      8  H18 <0> d          -1.317  -0.839   0.032  0.00  0.00     0.274 HD
ENDBRANCH   2   5
ENDBRANCH   1   2
BRANCH   1   9
ATOM      9  C5  <0> d          -0.661  -2.906   1.282  0.00  0.00    -0.041 A 
ATOM     10  C10 <0> d          -1.093  -3.623   0.182  0.00  0.00     0.027 A 
ATOM     11  C9  <0> d          -2.309  -4.281   0.220  0.00  0.00     0.011 A 
ATOM     12  C8  <0> d          -3.097  -4.213   1.354  0.00  0.00     0.019 A 
ATOM     13 Br1  <0> d          -2.896  -5.269  -1.282  0.00  0.00    -0.051 Br
ATOM     14  C7  <0> d          -2.667  -3.490   2.451  0.00  0.00     0.002 A 
ATOM     15  C6  <0> d          -1.449  -2.837   2.415  0.00  0.00     0.008 A 
ENDBRANCH   1   9
BRANCH   1  16
ATOM     16  S1  <0> d           1.558  -2.491   2.794  0.00  0.00    -0.079 SA
BRANCH  16  17
ATOM     17  C11 <0> d           3.156  -1.806   2.506  0.00  0.00     0.185 A 
ATOM     18  N1  <0> d           3.538  -1.157   1.426  0.00  0.00    -0.207 NA
ATOM     19  C12 <0> d           4.811  -0.782   1.554  0.00  0.00     0.145 A 
ATOM     20  C13 <0> d           5.604  -0.018   0.526  0.00  0.00     0.095 C 
ATOM     21  N2  <0> d           5.261  -1.185   2.712  0.00  0.00    -0.158 NA
ATOM     22  N3  <0> d           4.205  -1.849   3.356  0.00  0.00    -0.254 N 
ATOM     23  H3  <0> d           4.225  -2.259   4.235  0.00  0.00     0.191 HD
ENDBRANCH  16  17
ENDBRANCH   1  16
TORSDOF 6
