REMARK  6 active torsions:
REMARK  status: ('A' for Active; 'I' for Inactive)
REMARK    1  A    between atoms: C4_4  and  N3_24 
REMARK    2  A    between atoms: C7_7  and  S1_8 
REMARK    3  A    between atoms: S1_8  and  N1_11 
REMARK    4  A    between atoms: N1_11  and  C8_12 
REMARK    5  A    between atoms: C8_12  and  C9_13 
REMARK    6  A    between atoms: C9_13  and  C10_14 
ROOT
ATOM      1  S1  <0> d          -1.520   1.857  -0.014  0.00  0.00     0.259 S 
ATOM      2  O1  <0> d          -0.264   1.197   0.069  0.00  0.00    -0.201 OA
ATOM      3  O2  <0> d          -2.746   1.149  -0.139  0.00  0.00    -0.201 OA
ENDROOT
BRANCH   1   4
ATOM      4  C7  <0> d          -1.425   2.947  -1.395  0.00  0.00     0.085 A 
ATOM      5  C2  <0> d          -0.339   3.792  -1.534  0.00  0.00    -0.036 A 
ATOM      6  C1  <0> d           0.761   3.778  -0.505  0.00  0.00     0.050 C 
ATOM      7  C3  <0> d          -0.260   4.644  -2.618  0.00  0.00     0.039 A 
ATOM      8  C4  <0> d          -1.277   4.660  -3.563  0.00  0.00     0.053 A 
ATOM      9  C5  <0> d          -2.369   3.814  -3.418  0.00  0.00     0.032 A 
ATOM     10  C6  <0> d          -2.440   2.960  -2.335  0.00  0.00     0.028 A 
BRANCH   8  11
ATOM     11  N3  <0> d          -1.203   5.527  -4.659  0.00  0.00    -0.208 N 
ATOM     12  S2  <0> d          -1.949   5.307  -6.141  0.00  0.00     0.240 S 
ATOM     13  C20 <0> d          -1.727   6.992  -6.849  0.00  0.00     0.177 C 
ATOM     14  O4  <0> d          -1.155   4.354  -6.834  0.00  0.00    -0.205 OA
ATOM     15  O5  <0> d          -3.318   5.058  -5.849  0.00  0.00    -0.205 OA
ATOM     16  C19 <0> d          -0.522   7.459  -5.989  0.00  0.00     0.091 C 
ATOM     17  C18 <0> d          -0.516   6.678  -4.709  0.00  0.00     0.242 C 
ATOM     18  C21 <0> d           0.781   7.209  -6.750  0.00  0.00     0.021 C 
ATOM     19  O3  <0> d           0.095   7.079  -3.741  0.00  0.00    -0.272 OA
ENDBRANCH   8  11
ENDBRANCH   1   4
BRANCH   1  20
ATOM     20  N1  <0> d          -1.652   2.796   1.343  0.00  0.00    -0.315 N 
ATOM     21  H9  <0> d          -0.948   2.784   2.011  0.00  0.00     0.172 HD
BRANCH  20  22
ATOM     22  C8  <0> d          -2.827   3.650   1.532  0.00  0.00     0.137 C 
BRANCH  22  23
ATOM     23  C9  <0> d          -2.885   4.124   2.986  0.00  0.00     0.061 C 
BRANCH  23  24
ATOM     24  C10 <0> d          -4.094   5.002   3.180  0.00  0.00    -0.029 A 
ATOM     25  C13 <0> d          -5.457   4.554   3.475  0.00  0.00    -0.002 A 
ATOM     26  C12 <0> d          -6.238   5.721   3.570  0.00  0.00     0.042 A 
ATOM     27  C14 <0> d          -6.050   3.304   3.659  0.00  0.00     0.014 A 
ATOM     28  N2  <0> d          -5.399   6.790   3.346  0.00  0.00    -0.365 N 
ATOM     29  C17 <0> d          -7.596   5.612   3.846  0.00  0.00     0.030 A 
ATOM     30  C11 <0> d          -4.125   6.342   3.120  0.00  0.00     0.096 A 
ATOM     31  H1  <0> d          -5.669   7.721   3.351  0.00  0.00     0.165 HD
ATOM     32  C16 <0> d          -8.161   4.367   4.024  0.00  0.00     0.002 A 
ATOM     33  C15 <0> d          -7.387   3.219   3.930  0.00  0.00     0.001 A 
ENDBRANCH  23  24
ENDBRANCH  22  23
ENDBRANCH  20  22
ENDBRANCH   1  20
TORSDOF 6
