REMARK  4 active torsions:
REMARK  status: ('A' for Active; 'I' for Inactive)
REMARK    1  A    between atoms: C3_3  and  C9_14 
REMARK    2  A    between atoms: C6_8  and  N3_11 
REMARK    3  A    between atoms: C12_17  and  C15_20 
REMARK    4  A    between atoms: C15_20  and  N4_22 
ROOT
ATOM      1  C1  <0> d           2.855   2.868  -2.525  0.00  0.00     0.071 C 
ATOM      2  C2  <0> d           2.421   2.637  -1.100  0.00  0.00     0.043 A 
ATOM      3  C3  <0> d           3.237   2.493  -0.019  0.00  0.00     0.092 A 
ATOM      4  N1  <0> d           2.469   2.304   1.066  0.00  0.00    -0.228 NA
ATOM      5  C4  <0> d           1.195   2.324   0.705  0.00  0.00     0.135 A 
ATOM      6  N2  <0> d           1.135   2.531  -0.650  0.00  0.00    -0.306 N 
ATOM      7  C5  <0> d          -0.071   2.595  -1.286  0.00  0.00     0.134 A 
ATOM      8  C6  <0> d          -1.222   2.461  -0.595  0.00  0.00     0.118 A 
ATOM      9  C7  <0> d          -1.194   2.242   0.793  0.00  0.00     0.041 A 
ATOM     10  C8  <0> d           0.001   2.176   1.440  0.00  0.00     0.053 A 
ENDROOT
BRANCH   3  11
ATOM     11  C9  <0> d           4.720   2.538  -0.037  0.00  0.00    -0.005 A 
ATOM     12  C14 <0> d           5.381   3.486  -0.815  0.00  0.00     0.014 A 
ATOM     13  C13 <0> d           6.761   3.523  -0.828  0.00  0.00     0.010 A 
ATOM     14  C12 <0> d           7.487   2.622  -0.070  0.00  0.00    -0.028 A 
ATOM     15  C11 <0> d           6.835   1.679   0.705  0.00  0.00     0.010 A 
ATOM     16  C10 <0> d           5.456   1.636   0.729  0.00  0.00     0.014 A 
BRANCH  14  17
ATOM     17  C15 <0> d           8.993   2.668  -0.087  0.00  0.00     0.212 C 
ATOM     18  C16 <0> d           9.495   3.399   1.160  0.00  0.00     0.045 C 
BRANCH  17  19
ATOM     19  N4  <0> d           9.525   1.299  -0.100  0.00  0.00    -0.071 N 
ATOM     20  H15 <0> d          10.624   1.333  -0.112  0.00  0.00     0.275 HD
ATOM     21  H16 <0> d           9.163   0.773  -0.996  0.00  0.00     0.275 HD
ATOM     22  H17 <0> d           9.184   0.765   0.800  0.00  0.00     0.275 HD
ENDBRANCH  17  19
ENDBRANCH  14  17
ENDBRANCH   3  11
BRANCH   8  23
ATOM     23  N3  <0> d          -2.520   2.540  -1.302  0.00  0.00    -0.114 N 
ATOM     24  O1  <0> d          -2.548   2.724  -2.505  0.00  0.00    -0.532 OA
ATOM     25  O2  <0> d          -3.561   2.420  -0.680  0.00  0.00    -0.532 OA
ENDBRANCH   8  23
TORSDOF 4
