REMARK  7 active torsions:
REMARK  status: ('A' for Active; 'I' for Inactive)
REMARK    1  A    between atoms: C5_5  and  N1_9 
REMARK       I    between atoms: N1_9  and  C9_10 
REMARK    2  A    between atoms: C9_10  and  C10_12 
REMARK    3  A    between atoms: C10_12  and  C11_13 
REMARK    4  A    between atoms: C11_13  and  C12_14 
REMARK    5  A    between atoms: C13_16  and  C14_19 
REMARK    6  A    between atoms: C14_19  and  S1_20 
REMARK    7  A    between atoms: S1_20  and  C15_21 
ROOT
ATOM      1  C12 <0> d          -0.692  -8.502   2.021  0.00  0.00     0.173 A 
ATOM      2  N2  <0> d           0.212  -9.423   1.829  0.00  0.00    -0.208 NA
ATOM      3  C13 <0> d          -0.364 -10.630   1.789  0.00  0.00     0.165 A 
ATOM      4  N3  <0> d          -1.647 -10.491   1.956  0.00  0.00    -0.110 NA
ATOM      5  O2  <0> d          -1.886  -9.100   2.116  0.00  0.00    -0.196 OA
ENDROOT
BRANCH   1   6
ATOM      6  C11 <0> d          -0.435  -7.021   2.123  0.00  0.00     0.098 C 
BRANCH   6   7
ATOM      7  C10 <0> d          -0.526  -6.390   0.733  0.00  0.00     0.111 C 
BRANCH   7   8
ATOM      8  C9  <0> d          -0.270  -4.908   0.836  0.00  0.00     0.222 C 
ATOM      9  N1  <0> d          -0.299  -4.141  -0.272  0.00  0.00    -0.326 N 
ATOM     10  H10 <0> d          -0.420  -4.551  -1.143  0.00  0.00     0.169 HD
ATOM     11  O1  <0> d          -0.036  -4.407   1.915  0.00  0.00    -0.273 OA
BRANCH   9  12
ATOM     12  C5  <0> d          -0.155  -2.753  -0.166  0.00  0.00     0.046 A 
ATOM     13  C4  <0> d           0.981  -2.215   0.423  0.00  0.00    -0.034 A 
ATOM     14  C3  <0> d           1.121  -0.844   0.526  0.00  0.00     0.015 A 
ATOM     15  C22 <0> d           2.062  -3.124   0.949  0.00  0.00     0.050 C 
ATOM     16  C2  <0> d           0.130  -0.009   0.044  0.00  0.00    -0.061 A 
ATOM     17  C1  <0> d           0.286   1.486   0.158  0.00  0.00     0.048 C 
ATOM     18  C7  <0> d          -1.005  -0.542  -0.539  0.00  0.00     0.015 A 
ATOM     19  C6  <0> d          -1.148  -1.911  -0.649  0.00  0.00    -0.034 A 
ATOM     20  C8  <0> d          -2.383  -2.491  -1.289  0.00  0.00     0.050 C 
ENDBRANCH   9  12
ENDBRANCH   7   8
ENDBRANCH   6   7
ENDBRANCH   1   6
BRANCH   3  21
ATOM     21  C14 <0> d           0.356 -11.938   1.584  0.00  0.00     0.160 C 
BRANCH  21  22
ATOM     22  S1  <0> d           0.849 -12.615   3.193  0.00  0.00    -0.115 SA
BRANCH  22  23
ATOM     23  C15 <0> d           1.692 -14.167   2.777  0.00  0.00     0.247 A 
ATOM     24  N5  <0> d           2.841 -13.898   1.903  0.00  0.00    -0.358 N 
ATOM     25  C21 <0> d           2.635 -14.531   0.783  0.00  0.00     0.058 A 
ATOM     26  H24 <0> d           3.610 -13.349   2.120  0.00  0.00     0.162 HD
ATOM     27  C16 <0> d           1.337 -15.256   0.857  0.00  0.00     0.057 A 
ATOM     28  C20 <0> d           3.414 -14.645  -0.457  0.00  0.00     0.055 A 
ATOM     29  N4  <0> d           0.789 -15.042   2.018  0.00  0.00    -0.359 N 
ATOM     30  C17 <0> d           0.919 -16.038  -0.315  0.00  0.00     0.033 A 
ATOM     31  H23 <0> d          -0.059 -15.397   2.326  0.00  0.00     0.162 HD
ATOM     32  C18 <0> d           1.711 -16.077  -1.405  0.00  0.00     0.026 A 
ATOM     33  C19 <0> d           2.939 -15.392  -1.476  0.00  0.00     0.036 A 
ATOM     34 Cl1  <0> d           3.878 -15.511  -2.931  0.00  0.00    -0.084 Cl
ENDBRANCH  22  23
ENDBRANCH  21  22
ENDBRANCH   3  21
TORSDOF 7
