REMARK  4 active torsions:
REMARK  status: ('A' for Active; 'I' for Inactive)
REMARK    1  A    between atoms: N1_6  and  C7_8 
REMARK    2  A    between atoms: C7_8  and  C8_9 
REMARK    3  A    between atoms: C8_9  and  N2_11 
REMARK       I    between atoms: N2_11  and  C10_12 
REMARK    4  A    between atoms: C10_12  and  C11_14 
ROOT
ATOM      1  N2  <0> d           3.513  -2.495   0.943  0.00  0.00    -0.350 N 
ATOM      2  C10 <0> d           4.541  -1.852   0.354  0.00  0.00     0.268 C 
ATOM      3  O1  <0> d           5.041  -0.885   0.894  0.00  0.00    -0.266 OA
ATOM      4  H19 <0> d           3.113  -3.266   0.512  0.00  0.00     0.163 HD
ENDROOT
BRANCH   1   5
ATOM      5  C8  <0> d           2.998  -2.028   2.232  0.00  0.00     0.106 C 
ATOM      6  C9  <0> d           3.832  -2.633   3.363  0.00  0.00     0.034 C 
BRANCH   5   7
ATOM      7  C7  <0> d           1.539  -2.461   2.387  0.00  0.00     0.259 C 
BRANCH   7   8
ATOM      8  N1  <0> d           0.761  -1.980   1.237  0.00  0.00    -0.069 N 
ATOM      9  C5  <0> d          -0.610  -2.496   1.325  0.00  0.00     0.239 C 
ATOM     10  C4  <0> d          -1.402  -2.064   0.089  0.00  0.00     0.008 C 
ATOM     11  C3  <0> d          -1.434  -0.535   0.018  0.00  0.00     0.011 C 
ATOM     12  C20 <0> d          -0.729  -2.620  -1.168  0.00  0.00     0.011 C 
ATOM     13  C2  <0> d           0.002  -0.004   0.002  0.00  0.00     0.008 C 
ATOM     14  C1  <0> d          -0.019   1.526   0.010  0.00  0.00     0.011 C 
ATOM     15  C6  <0> d           0.742  -0.512   1.241  0.00  0.00     0.239 C 
ATOM     16  H28 <0> d           1.189  -2.307   0.384  0.00  0.00     0.280 HD
ENDBRANCH   7   8
ENDBRANCH   5   7
ENDBRANCH   1   5
BRANCH   2  17
ATOM     17  C11 <0> d           5.061  -2.324  -0.951  0.00  0.00     0.105 A 
ATOM     18  N3  <0> d           6.103  -1.656  -1.526  0.00  0.00    -0.351 N 
ATOM     19  C19 <0> d           6.634  -2.048  -2.732  0.00  0.00     0.047 A 
ATOM     20  H1  <0> d           6.481  -0.887  -1.071  0.00  0.00     0.166 HD
ATOM     21  C14 <0> d           6.090  -3.158  -3.405  0.00  0.00     0.041 A 
ATOM     22  C18 <0> d           7.701  -1.360  -3.304  0.00  0.00     0.030 A 
ATOM     23  C13 <0> d           4.962  -3.874  -2.787  0.00  0.00     0.186 A 
ATOM     24  C15 <0> d           6.620  -3.559  -4.633  0.00  0.00     0.018 A 
ATOM     25  C12 <0> d           4.482  -3.402  -1.536  0.00  0.00     0.091 A 
ATOM     26  O2  <0> d           4.457  -4.841  -3.331  0.00  0.00    -0.287 OA
ATOM     27  C16 <0> d           7.667  -2.869  -5.176  0.00  0.00     0.001 A 
ATOM     28  C17 <0> d           8.208  -1.772  -4.517  0.00  0.00     0.002 A 
ENDBRANCH   2  17
TORSDOF 4
