REMARK  3 active torsions:
REMARK  status: ('A' for Active; 'I' for Inactive)
REMARK    1  A    between atoms: C5_6  and  C8_10 
REMARK    2  A    between atoms: C11_13  and  N3_16 
REMARK       I    between atoms: N3_16  and  C14_17 
REMARK    3  A    between atoms: C14_17  and  C15_19 
ROOT
ATOM      1  C8  <0> d           3.533  -2.761  -1.292  0.00  0.00    -0.016 A 
ATOM      2  C9  <0> d           4.640  -2.303  -1.982  0.00  0.00     0.013 A 
ATOM      3  C10 <0> d           5.067  -2.960  -3.119  0.00  0.00     0.030 A 
ATOM      4  C11 <0> d           4.384  -4.082  -3.569  0.00  0.00     0.034 A 
ATOM      5  C12 <0> d           3.273  -4.540  -2.873  0.00  0.00     0.030 A 
ATOM      6  C13 <0> d           2.853  -3.881  -1.734  0.00  0.00     0.013 A 
ENDROOT
BRANCH   1   7
ATOM      7  C5  <0> d           3.069  -2.042  -0.051  0.00  0.00     0.216 A 
ATOM      8  N1  <0> d           3.394  -0.613  -0.146  0.00  0.00    -0.363 N 
ATOM      9  C4  <0> d           2.273   0.047  -0.093  0.00  0.00     0.056 A 
ATOM     10  H11 <0> d           4.281  -0.231  -0.233  0.00  0.00     0.162 HD
ATOM     11  C3  <0> d           1.954   1.480  -0.139  0.00  0.00     0.031 A 
ATOM     12  C6  <0> d           1.142  -0.912   0.041  0.00  0.00     0.056 A 
ATOM     13  C2  <0> d           0.668   1.879  -0.060  0.00  0.00     0.002 A 
ATOM     14  C1  <0> d          -0.400   0.973   0.066  0.00  0.00     0.002 A 
ATOM     15  C7  <0> d          -0.218  -0.362   0.117  0.00  0.00     0.031 A 
ATOM     16  N2  <0> d           1.608  -2.128   0.065  0.00  0.00    -0.363 N 
ATOM     17  H12 <0> d           1.086  -2.941   0.144  0.00  0.00     0.162 HD
ENDBRANCH   1   7
BRANCH   4  18
ATOM     18  N3  <0> d           4.814  -4.750  -4.721  0.00  0.00    -0.323 N 
ATOM     19  C14 <0> d           6.128  -4.803  -5.018  0.00  0.00     0.277 C 
ATOM     20  O1  <0> d           6.944  -4.357  -4.240  0.00  0.00    -0.268 OA
ATOM     21  H10 <0> d           4.167  -5.174  -5.306  0.00  0.00     0.169 HD
BRANCH  19  22
ATOM     22  C15 <0> d           6.582  -5.418  -6.317  0.00  0.00     0.269 C 
ATOM     23 Cl1  <0> d           8.380  -5.341  -6.422  0.00  0.00    -0.073 Cl
ATOM     24 Cl2  <0> d           6.049  -7.139  -6.387  0.00  0.00    -0.073 Cl
ATOM     25 Cl3  <0> d           5.860  -4.509  -7.697  0.00  0.00    -0.073 Cl
ENDBRANCH  19  22
ENDBRANCH   4  18
TORSDOF 3
