REMARK  5 active torsions:
REMARK  status: ('A' for Active; 'I' for Inactive)
REMARK    1  A    between atoms: N1_5  and  C5_7 
REMARK    2  A    between atoms: C12_22  and  C13_23 
REMARK    3  A    between atoms: C16_26  and  O3_31 
REMARK    4  A    between atoms: C17_27  and  O2_29 
REMARK    5  A    between atoms: O3_31  and  C20_32 
ROOT
ATOM      1  C1  <0> d           0.527   0.919  -0.591  0.00  0.00     0.073 C 
ATOM      2  C2  <0> d           0.471  -0.554  -0.904  0.00  0.00     0.063 A 
ATOM      3  C3  <0> d           0.128  -1.115  -2.154  0.00  0.00     0.032 A 
ATOM      4  C4  <0> d           0.192  -2.458  -2.035  0.00  0.00     0.143 A 
ATOM      5  N1  <0> d           0.572  -2.730  -0.737  0.00  0.00    -0.196 N 
ATOM      6  N2  <0> d           0.738  -1.516  -0.070  0.00  0.00    -0.169 NA
ATOM      7  N7  <0> d          -0.046  -3.471  -2.931  0.00  0.00    -0.310 N 
ATOM      8  C10 <0> d          -0.360  -3.527  -4.191  0.00  0.00     0.232 C 
ATOM      9  O1  <0> d          -0.384  -4.644  -4.661  0.00  0.00    -0.272 OA
ATOM     10  C11 <0> d          -0.693  -2.445  -5.141  0.00  0.00     0.178 C 
ATOM     11  S1  <0> d           0.302  -0.967  -4.898  0.00  0.00    -0.145 SA
ATOM     12  C12 <0> d          -0.227  -0.265  -3.334  0.00  0.00     0.119 C 
ATOM     13  H8  <0> d           0.040  -4.350  -2.530  0.00  0.00     0.170 HD
ENDROOT
BRANCH  12  14
ATOM     14  C13 <0> d           0.418   1.087  -3.167  0.00  0.00    -0.037 A 
ATOM     15  C18 <0> d          -0.367   2.224  -3.113  0.00  0.00     0.048 A 
ATOM     16  C17 <0> d           0.224   3.467  -2.956  0.00  0.00     0.102 A 
ATOM     17  C16 <0> d           1.609   3.569  -2.862  0.00  0.00     0.102 A 
ATOM     18  C15 <0> d           2.390   2.426  -2.922  0.00  0.00     0.040 A 
ATOM     19  C14 <0> d           1.794   1.188  -3.075  0.00  0.00     0.011 A 
BRANCH  16  20
ATOM     20  O2  <0> d          -0.547   4.586  -2.897  0.00  0.00    -0.353 OA
ATOM     21  C19 <0> d          -1.961   4.405  -3.000  0.00  0.00     0.210 C 
ENDBRANCH  16  20
BRANCH  17  22
ATOM     22  O3  <0> d           2.194   4.787  -2.712  0.00  0.00    -0.344 OA
BRANCH  22  23
ATOM     23  C20 <0> d           3.608   4.807  -2.509  0.00  0.00     0.121 C 
ATOM     24  C21 <0> d           4.318   4.753  -3.863  0.00  0.00     0.040 C 
ATOM     25  C22 <0> d           4.001   6.093  -1.778  0.00  0.00     0.040 C 
ENDBRANCH  22  23
ENDBRANCH  17  22
ENDBRANCH  12  14
BRANCH   5  26
ATOM     26  C5  <0> d           0.760  -3.997  -0.188  0.00  0.00     0.187 A 
ATOM     27  N6  <0> d           1.461  -4.920  -0.837  0.00  0.00    -0.220 NA
ATOM     28  C9  <0> d           1.650  -6.121  -0.323  0.00  0.00     0.237 A 
ATOM     29  N5  <0> d           1.153  -6.478   0.843  0.00  0.00    -0.222 NA
ATOM     30  C7  <0> d           0.434  -5.623   1.561  0.00  0.00     0.162 A 
ATOM     31  C6  <0> d           0.210  -4.328   1.059  0.00  0.00     0.151 A 
ATOM     32  N3  <0> d          -0.206  -5.674   2.774  0.00  0.00    -0.333 N 
ATOM     33  N4  <0> d          -0.541  -3.670   1.975  0.00  0.00    -0.236 NA
ATOM     34  C8  <0> d          -0.786  -4.458   2.982  0.00  0.00     0.209 A 
ATOM     35  H1  <0> d          -0.239  -6.435   3.374  0.00  0.00     0.168 HD
ENDBRANCH   5  26
TORSDOF 5
