REMARK  4 active torsions:
REMARK  status: ('A' for Active; 'I' for Inactive)
REMARK    1  A    between atoms: N1_9  and  C15_20 
REMARK    2  A    between atoms: C8_10  and  C9_12 
REMARK    3  A    between atoms: C12_15  and  O2_19 
REMARK    4  A    between atoms: C15_20  and  C16_21 
ROOT
ATOM      1  C1  <0> d          -0.461   1.231   0.480  0.00  0.00     0.001 A 
ATOM      2  C2  <0> d           0.659   2.032   0.327  0.00  0.00     0.002 A 
ATOM      3  C3  <0> d           1.907   1.468   0.139  0.00  0.00     0.030 A 
ATOM      4  C4  <0> d           2.036   0.090   0.106  0.00  0.00     0.045 A 
ATOM      5  C5  <0> d           0.902  -0.726   0.266  0.00  0.00     0.058 A 
ATOM      6  C6  <0> d          -0.349  -0.143   0.451  0.00  0.00     0.019 A 
ATOM      7  C7  <0> d           1.080  -2.189   0.234  0.00  0.00     0.258 C 
ATOM      8  O1  <0> d           0.189  -2.925   0.612  0.00  0.00    -0.267 OA
ATOM      9  N1  <0> d           2.243  -2.702  -0.217  0.00  0.00    -0.320 N 
ATOM     10  C8  <0> d           3.296  -1.838  -0.750  0.00  0.00     0.221 C 
ATOM     11  N2  <0> d           3.266  -0.530  -0.084  0.00  0.00    -0.364 N 
ATOM     12  H6  <0> d           4.086  -0.107   0.215  0.00  0.00     0.162 HD
ENDROOT
BRANCH  10  13
ATOM     13  C9  <0> d           3.087  -1.650  -2.230  0.00  0.00    -0.014 A 
ATOM     14  C14 <0> d           2.448  -2.630  -2.967  0.00  0.00     0.037 A 
ATOM     15  C13 <0> d           2.249  -2.457  -4.324  0.00  0.00     0.067 A 
ATOM     16  C12 <0> d           2.702  -1.303  -4.948  0.00  0.00     0.087 A 
ATOM     17 Cl1  <0> d           1.441  -3.685  -5.247  0.00  0.00    -0.081 Cl
ATOM     18  C11 <0> d           3.348  -0.324  -4.207  0.00  0.00     0.039 A 
ATOM     19  C10 <0> d           3.539  -0.500  -2.851  0.00  0.00     0.014 A 
BRANCH  16  20
ATOM     20  O2  <0> d           2.512  -1.132  -6.284  0.00  0.00    -0.359 OA
ATOM     21  H10 <0> d           3.233  -1.473  -6.830  0.00  0.00     0.217 HD
ENDBRANCH  16  20
ENDBRANCH  10  13
BRANCH   9  22
ATOM     22  C15 <0> d           2.455  -4.151  -0.174  0.00  0.00     0.160 C 
BRANCH  22  23
ATOM     23  C16 <0> d           2.969  -4.550   1.211  0.00  0.00     0.139 C 
ATOM     24  O3  <0> d           4.270  -3.985   1.442  0.00  0.00    -0.384 OA
ATOM     25  C19 <0> d           5.079  -4.906   2.183  0.00  0.00     0.168 C 
ATOM     26  C18 <0> d           4.241  -6.182   2.412  0.00  0.00     0.029 C 
ATOM     27  C17 <0> d           3.175  -6.083   1.288  0.00  0.00     0.035 C 
ENDBRANCH  22  23
ENDBRANCH   9  22
TORSDOF 4
