REMARK  4 active torsions:
REMARK  status: ('A' for Active; 'I' for Inactive)
REMARK    1  A    between atoms: C2_2  and  C3_3 
REMARK    2  A    between atoms: C3_3  and  C4_4 
REMARK    3  A    between atoms: C4_4  and  C5_5 
REMARK       I    between atoms: C5_5  and  N1_7 
REMARK    4  A    between atoms: N1_7  and  C6_8 
ROOT
ATOM      1  C6  <0> d          -4.429  -4.420   0.021  0.00  0.00     0.119 C 
ATOM      2  C7  <0> d          -4.445  -5.818   0.636  0.00  0.00     0.030 C 
ATOM      3  C8  <0> d          -5.842  -6.417   0.430  0.00  0.00     0.008 C 
ATOM      4  C9  <0> d          -6.026  -6.697  -1.059  0.00  0.00     0.058 C 
ATOM      5  C10 <0> d          -5.683  -5.479  -1.878  0.00  0.00     0.020 A 
ATOM      6  C11 <0> d          -4.956  -4.454  -1.390  0.00  0.00    -0.013 A 
ATOM      7  C12 <0> d          -4.662  -3.352  -2.218  0.00  0.00     0.017 A 
ATOM      8  C13 <0> d          -5.117  -3.326  -3.500  0.00  0.00     0.075 A 
ATOM      9  C14 <0> d          -5.878  -4.408  -3.975  0.00  0.00     0.245 A 
ATOM     10  O2  <0> d          -6.299  -4.404  -5.121  0.00  0.00    -0.268 OA
ATOM     11  N2  <0> d          -6.142  -5.443  -3.164  0.00  0.00    -0.327 N 
ATOM     12  H2  <0> d          -6.669  -6.184  -3.500  0.00  0.00     0.169 HD
ENDROOT
BRANCH   1  13
ATOM     13  N1  <0> d          -3.055  -3.913   0.010  0.00  0.00    -0.352 N 
ATOM     14  C5  <0> d          -2.826  -2.585   0.015  0.00  0.00     0.218 C 
ATOM     15  O1  <0> d          -3.759  -1.810   0.028  0.00  0.00    -0.274 OA
ATOM     16  H12 <0> d          -2.309  -4.534  -0.000  0.00  0.00     0.163 HD
BRANCH  14  17
ATOM     17  C4  <0> d          -1.413  -2.063   0.004  0.00  0.00     0.103 C 
BRANCH  17  18
ATOM     18  C3  <0> d          -1.433  -0.534   0.013  0.00  0.00     0.009 C 
BRANCH  18  19
ATOM     19  C2  <0> d           0.002  -0.004   0.002  0.00  0.00    -0.004 C 
ATOM     20  C1  <0> d          -0.019   1.526   0.010  0.00  0.00     0.005 C 
ENDBRANCH  18  19
ENDBRANCH  17  18
ENDBRANCH  14  17
ENDBRANCH   1  13
TORSDOF 4
