REMARK  3 active torsions:
REMARK  status: ('A' for Active; 'I' for Inactive)
REMARK    1  A    between atoms: N1_10  and  C10_14 
REMARK    2  A    between atoms: C10_14  and  C11_15 
REMARK       I    between atoms: C11_15  and  N3_17 
REMARK    3  A    between atoms: C14_21  and  C15_22 
REMARK       I    between atoms: C15_22  and  N4_24 
ROOT
ATOM      1  C1  <0> d          -0.101   1.901  -0.474  0.00  0.00     0.013 C 
ATOM      2  C2  <0> d          -0.143   0.379  -0.616  0.00  0.00     0.019 C 
ATOM      3  C3  <0> d           0.600  -0.036  -1.888  0.00  0.00     0.007 C 
ATOM      4  C4  <0> d           0.574  -1.560  -2.019  0.00  0.00     0.001 C 
ATOM      5  C5  <0> d           1.267  -2.188  -0.807  0.00  0.00     0.003 C 
ATOM      6  C6  <0> d           0.526  -1.782   0.469  0.00  0.00     0.041 C 
ATOM      7  C7  <0> d           0.522  -0.263   0.597  0.00  0.00     0.119 A 
ATOM      8  C8  <0> d           1.931   0.257   0.762  0.00  0.00     0.257 A 
ATOM      9  O1  <0> d           2.850   0.149  -0.021  0.00  0.00    -0.270 OA
ATOM     10  N1  <0> d           1.951   0.868   1.965  0.00  0.00    -0.259 N 
ATOM     11  C9  <0> d           0.759   0.802   2.571  0.00  0.00     0.326 A 
ATOM     12  O2  <0> d           0.530   1.280   3.665  0.00  0.00    -0.247 OA
ATOM     13  N2  <0> d          -0.157   0.147   1.833  0.00  0.00    -0.324 N 
ATOM     14  H14 <0> d          -1.082  -0.020   2.070  0.00  0.00     0.165 HD
ENDROOT
BRANCH  10  15
ATOM     15  C10 <0> d           3.131   1.520   2.538  0.00  0.00     0.239 C 
BRANCH  15  16
ATOM     16  C11 <0> d           3.157   2.968   2.120  0.00  0.00     0.239 C 
ATOM     17  O3  <0> d           2.276   3.411   1.413  0.00  0.00    -0.271 OA
ATOM     18  N3  <0> d           4.158   3.771   2.531  0.00  0.00    -0.328 N 
ATOM     19  C14 <0> d           4.220   5.172   2.151  0.00  0.00     0.189 C 
ATOM     20  C12 <0> d           5.255   3.270   3.388  0.00  0.00     0.200 C 
ATOM     21  C13 <0> d           5.451   5.932   2.703  0.00  0.00     0.110 C 
ATOM     22  S1  <0> d           6.580   4.506   3.034  0.00  0.00    -0.147 SA
BRANCH  19  23
ATOM     23  C15 <0> d           2.975   5.859   2.651  0.00  0.00     0.242 C 
ATOM     24  O4  <0> d           2.330   5.364   3.550  0.00  0.00    -0.271 OA
ATOM     25  N4  <0> d           2.580   7.022   2.098  0.00  0.00    -0.359 N 
ATOM     26  C16 <0> d           1.432   7.744   2.654  0.00  0.00     0.152 C 
ATOM     27  C17 <0> d           3.297   7.566   0.942  0.00  0.00     0.152 C 
ENDBRANCH  19  23
ENDBRANCH  15  16
ENDBRANCH  10  15
TORSDOF 3
