REMARK  5 active torsions:
REMARK  status: ('A' for Active; 'I' for Inactive)
REMARK    1  A    between atoms: C2_2  and  C3_3 
REMARK    2  A    between atoms: C2_2  and  N2_9 
REMARK    3  A    between atoms: N2_9  and  C8_10 
REMARK    4  A    between atoms: C8_10  and  C9_11 
REMARK    5  A    between atoms: C11_16  and  C12_17 
ROOT
ATOM      1  C9  <0> d           2.867  -0.639  -2.326  0.00  0.00     0.016 A 
ATOM      2  C10 <0> d           3.553  -1.803  -2.334  0.00  0.00     0.120 A 
ATOM      3  N3  <0> d           4.017  -2.005  -3.586  0.00  0.00    -0.288 N 
ATOM      4  H2  <0> d           4.544  -2.763  -3.883  0.00  0.00     0.188 HD
ATOM      5  N4  <0> d           3.606  -0.928  -4.383  0.00  0.00    -0.174 NA
ATOM      6  C11 <0> d           2.907  -0.106  -3.629  0.00  0.00     0.098 A 
ENDROOT
BRANCH   1   7
ATOM      7  C8  <0> d           2.177  -0.024  -1.136  0.00  0.00     0.275 C 
BRANCH   7   8
ATOM      8  N2  <0> d           0.730  -0.258  -1.235  0.00  0.00    -0.062 N 
ATOM      9  H10 <0> d           0.555  -1.246  -1.339  0.00  0.00     0.278 HD
ATOM     10  H18 <0> d           0.363   0.234  -2.036  0.00  0.00     0.278 HD
BRANCH   8  11
ATOM     11  C2  <0> d           0.071   0.230  -0.016  0.00  0.00     0.233 C 
ATOM     12  C1  <0> d           0.230   1.749   0.076  0.00  0.00     0.047 C 
BRANCH  11  13
ATOM     13  C3  <0> d          -1.394  -0.119  -0.063  0.00  0.00     0.064 A 
ATOM     14  N1  <0> d          -1.984  -0.300  -1.228  0.00  0.00    -0.263 NA
ATOM     15  C7  <0> d          -3.262  -0.613  -1.317  0.00  0.00     0.117 A 
ATOM     16  C6  <0> d          -4.037  -0.751  -0.181  0.00  0.00     0.019 A 
ATOM     17  C5  <0> d          -3.453  -0.563   1.062  0.00  0.00     0.003 A 
ATOM     18  C4  <0> d          -2.105  -0.241   1.116  0.00  0.00     0.029 A 
ENDBRANCH  11  13
ENDBRANCH   8  11
ENDBRANCH   7   8
ENDBRANCH   1   7
BRANCH   6  19
ATOM     19  C12 <0> d           2.277   1.163  -4.073  0.00  0.00     0.013 A 
ATOM     20  C16 <0> d           1.594   1.227  -5.286  0.00  0.00     0.130 A 
ATOM     21  N5  <0> d           1.029   2.350  -5.678  0.00  0.00    -0.272 NA
ATOM     22  C15 <0> d           1.094   3.452  -4.955  0.00  0.00     0.116 A 
ATOM     23  C14 <0> d           1.758   3.470  -3.743  0.00  0.00     0.020 A 
ATOM     24  C13 <0> d           2.363   2.313  -3.284  0.00  0.00     0.017 A 
ENDBRANCH   6  19
TORSDOF 5
