REMARK  7 active torsions:
REMARK  status: ('A' for Active; 'I' for Inactive)
REMARK    1  A    between atoms: C2_2  and  C3_3 
REMARK    2  A    between atoms: C3_3  and  C5_5 
REMARK    3  A    between atoms: C5_5  and  C6_6 
REMARK    4  A    between atoms: C5_5  and  N2_24 
REMARK       I    between atoms: C6_6  and  N1_8 
REMARK    5  A    between atoms: N1_8  and  C7_9 
REMARK    6  A    between atoms: C10_12  and  S1_15 
REMARK    7  A    between atoms: S1_15  and  C13_16 
REMARK       I    between atoms: N2_24  and  C21_26 
REMARK       I    between atoms: C21_26  and  N3_28 
ROOT
ATOM      1  C6  <0> d           1.371   8.231   1.104  0.00  0.00     0.245 C 
ATOM      2  O1  <0> d           2.221   7.464   1.504  0.00  0.00    -0.271 OA
ATOM      3  N1  <0> d           0.170   7.761   0.712  0.00  0.00    -0.325 N 
ATOM      4  H12 <0> d          -0.534   8.379   0.459  0.00  0.00     0.169 HD
ENDROOT
BRANCH   3   5
ATOM      5  C7  <0> d          -0.061   6.380   0.669  0.00  0.00     0.034 A 
ATOM      6  C12 <0> d           0.999   5.504   0.475  0.00  0.00     0.031 A 
ATOM      7  C11 <0> d           0.772   4.143   0.438  0.00  0.00     0.021 A 
ATOM      8  C10 <0> d          -0.519   3.650   0.583  0.00  0.00     0.005 A 
ATOM      9  C9  <0> d          -1.580   4.527   0.777  0.00  0.00     0.021 A 
ATOM     10  C8  <0> d          -1.351   5.887   0.820  0.00  0.00     0.031 A 
BRANCH   8  11
ATOM     11  S1  <0> d          -0.811   1.913   0.528  0.00  0.00    -0.090 SA
BRANCH  11  12
ATOM     12  C13 <0> d           0.802   1.214   0.413  0.00  0.00     0.012 A 
ATOM     13  C18 <0> d           1.474   1.208  -0.803  0.00  0.00    -0.045 A 
ATOM     14  C17 <0> d           2.740   0.664  -0.888  0.00  0.00     0.009 A 
ATOM     15  C19 <0> d           0.821   1.795  -2.028  0.00  0.00     0.049 C 
ATOM     16  C16 <0> d           3.341   0.126   0.235  0.00  0.00     0.007 A 
ATOM     17  C15 <0> d           2.675   0.130   1.448  0.00  0.00    -0.061 A 
ATOM     18  C14 <0> d           1.408   0.671   1.540  0.00  0.00     0.026 A 
ATOM     19  C20 <0> d           3.333  -0.458   2.669  0.00  0.00     0.048 C 
ENDBRANCH  11  12
ENDBRANCH   8  11
ENDBRANCH   3   5
BRANCH   1  20
ATOM     20  C5  <0> d           1.657   9.710   1.045  0.00  0.00     0.182 C 
BRANCH  20  21
ATOM     21  C3  <0> d           1.033  10.399   2.260  0.00  0.00     0.013 C 
ATOM     22  C4  <0> d           1.682   9.864   3.538  0.00  0.00     0.012 C 
BRANCH  21  23
ATOM     23  C2  <0> d           1.264  11.908   2.164  0.00  0.00     0.002 C 
ATOM     24  C1  <0> d           0.535  12.610   3.312  0.00  0.00     0.005 C 
ENDBRANCH  21  23
ENDBRANCH  20  21
BRANCH  20  25
ATOM     25  N2  <0> d           3.106   9.927   1.050  0.00  0.00    -0.330 N 
ATOM     26  H3  <0> d           3.576  10.039   1.891  0.00  0.00     0.165 HD
ATOM     27  C21 <0> d           3.785   9.972  -0.113  0.00  0.00     0.314 C 
ATOM     28  O2  <0> d           3.185   9.923  -1.170  0.00  0.00    -0.248 OA
ATOM     29  N3  <0> d           5.129  10.070  -0.105  0.00  0.00    -0.352 N 
ATOM     30  H26 <0> d           5.608  10.109   0.737  0.00  0.00     0.160 HD
ATOM     31  H27 <0> d           5.618  10.102  -0.943  0.00  0.00     0.160 HD
ENDBRANCH  20  25
ENDBRANCH   1  20
TORSDOF 7
