REMARK  7 active torsions:
REMARK  status: ('A' for Active; 'I' for Inactive)
REMARK    1  A    between atoms: S1_2  and  C2_3 
REMARK    2  A    between atoms: C2_3  and  C3_4 
REMARK    3  A    between atoms: N2_12  and  C10_13 
REMARK    4  A    between atoms: C10_13  and  C11_14 
REMARK       I    between atoms: C11_14  and  N3_16 
REMARK    5  A    between atoms: N3_16  and  C12_17 
REMARK    6  A    between atoms: C16_21  and  S2_23 
REMARK    7  A    between atoms: S2_23  and  N4_26 
ROOT
ATOM      1  C11 <0> d          -3.274  -2.015   3.001  0.00  0.00     0.240 C 
ATOM      2  O1  <0> d          -4.220  -2.180   2.260  0.00  0.00    -0.271 OA
ATOM      3  N3  <0> d          -3.473  -1.580   4.261  0.00  0.00    -0.326 N 
ATOM      4  H12 <0> d          -2.724  -1.512   4.875  0.00  0.00     0.169 HD
ENDROOT
BRANCH   3   5
ATOM      5  C12 <0> d          -4.758  -1.226   4.685  0.00  0.00     0.036 A 
ATOM      6  C17 <0> d          -5.863  -1.922   4.212  0.00  0.00     0.054 A 
ATOM      7  C16 <0> d          -7.130  -1.574   4.637  0.00  0.00     0.083 A 
ATOM      8  C15 <0> d          -7.301  -0.526   5.522  0.00  0.00     0.025 A 
ATOM      9  C14 <0> d          -6.203   0.174   5.990  0.00  0.00     0.004 A 
ATOM     10  C13 <0> d          -4.933  -0.173   5.574  0.00  0.00     0.029 A 
BRANCH   7  11
ATOM     11  S2  <0> d          -8.532  -2.463   4.045  0.00  0.00     0.284 S 
ATOM     12  O2  <0> d          -8.063  -3.746   3.653  0.00  0.00    -0.198 OA
ATOM     13  O3  <0> d          -9.560  -2.289   5.010  0.00  0.00    -0.198 OA
BRANCH  11  14
ATOM     14  N4  <0> d          -9.045  -1.704   2.665  0.00  0.00    -0.147 NA
ATOM     15  C18 <0> d         -10.071  -2.158   2.021  0.00  0.00     0.113 C 
ATOM     16  C21 <0> d         -10.640  -1.561   0.753  0.00  0.00     0.080 C 
ATOM     17  N5  <0> d         -10.813  -3.250   2.385  0.00  0.00    -0.378 N 
ATOM     18  C20 <0> d         -11.871  -2.426   0.413  0.00  0.00     0.027 C 
ATOM     19  C19 <0> d         -12.133  -3.177   1.738  0.00  0.00     0.121 C 
ATOM     20  H23 <0> d         -10.516  -3.959   2.977  0.00  0.00     0.160 HD
ENDBRANCH  11  14
ENDBRANCH   7  11
ENDBRANCH   3   5
BRANCH   1  21
ATOM     21  C10 <0> d          -1.877  -2.297   2.513  0.00  0.00     0.233 C 
BRANCH  21  22
ATOM     22  N2  <0> d          -1.928  -2.754   1.122  0.00  0.00    -0.324 N 
ATOM     23  C3  <0> d          -1.867  -1.969   0.013  0.00  0.00     0.117 A 
ATOM     24  N1  <0> d          -1.935  -2.704  -1.059  0.00  0.00    -0.232 NA
ATOM     25  C4  <0> d          -2.050  -4.011  -0.710  0.00  0.00     0.085 A 
ATOM     26  C9  <0> d          -2.051  -4.061   0.694  0.00  0.00     0.065 A 
ATOM     27  C5  <0> d          -2.157  -5.198  -1.440  0.00  0.00     0.034 A 
ATOM     28  C8  <0> d          -2.159  -5.284   1.342  0.00  0.00     0.032 A 
ATOM     29  C7  <0> d          -2.264  -6.442   0.601  0.00  0.00     0.002 A 
ATOM     30  C6  <0> d          -2.262  -6.392  -0.786  0.00  0.00     0.002 A 
BRANCH  23  31
ATOM     31  C2  <0> d          -1.734  -0.468   0.023  0.00  0.00     0.152 C 
BRANCH  31  32
ATOM     32  S1  <0> d           0.023  -0.017   0.015  0.00  0.00    -0.166 SA
ATOM     33  C1  <0> d           0.011   1.797   0.029  0.00  0.00     0.090 C 
ENDBRANCH  31  32
ENDBRANCH  23  31
ENDBRANCH  21  22
ENDBRANCH   1  21
TORSDOF 7
