REMARK  9 active torsions:
REMARK  status: ('A' for Active; 'I' for Inactive)
REMARK    1  A    between atoms: C7_11  and  C8_13 
REMARK    2  A    between atoms: C8_13  and  N3_14 
REMARK    3  A    between atoms: N3_14  and  C9_15 
REMARK    4  A    between atoms: N3_14  and  C15_23 
REMARK    5  A    between atoms: C9_15  and  C10_16 
REMARK    6  A    between atoms: C10_16  and  C11_17 
REMARK    7  A    between atoms: C10_16  and  O3_22 
REMARK    8  A    between atoms: C11_17  and  O2_18 
REMARK    9  A    between atoms: O2_18  and  C12_19 
ROOT
ATOM      1  C12 <0> d          -1.329 -10.643   4.997  0.00  0.00     0.260 C 
ATOM      2  C13 <0> d          -1.664 -11.759   4.097  0.00  0.00    -0.091 C 
ATOM      3  C14 <0> d          -1.930 -12.648   3.378  0.00  0.00     0.014 C 
ENDROOT
BRANCH   1   4
ATOM      4  O2  <0> d          -1.024  -9.482   4.223  0.00  0.00    -0.377 OA
BRANCH   4   5
ATOM      5  C11 <0> d          -0.684  -8.335   5.005  0.00  0.00     0.202 C 
BRANCH   5   6
ATOM      6  C10 <0> d          -0.378  -7.157   4.078  0.00  0.00     0.167 C 
BRANCH   6   7
ATOM      7  C9  <0> d          -0.136  -5.899   4.914  0.00  0.00     0.269 C 
BRANCH   7   8
ATOM      8  N3  <0> d           0.120  -4.760   4.022  0.00  0.00    -0.058 N 
ATOM      9  H26 <0> d           0.874  -4.989   3.392  0.00  0.00     0.280 HD
BRANCH   8  10
ATOM     10  C8  <0> d           0.491  -3.585   4.822  0.00  0.00     0.313 C 
BRANCH  10  11
ATOM     11  C7  <0> d           1.303  -2.638   3.977  0.00  0.00     0.134 A 
ATOM     12  N1  <0> d           1.615  -1.410   4.465  0.00  0.00    -0.309 N 
ATOM     13  C6  <0> d           2.337  -0.533   3.743  0.00  0.00     0.260 A 
ATOM     14  H1  <0> d           1.311  -1.159   5.351  0.00  0.00     0.170 HD
ATOM     15  C5  <0> d           2.782  -0.911   2.435  0.00  0.00     0.075 A 
ATOM     16  O1  <0> d           2.608   0.566   4.196  0.00  0.00    -0.267 OA
ATOM     17  C2  <0> d           3.563  -0.155   1.473  0.00  0.00    -0.031 A 
ATOM     18  C4  <0> d           2.407  -2.200   2.014  0.00  0.00     0.116 A 
ATOM     19  C1  <0> d           4.026   1.242   1.797  0.00  0.00     0.050 C 
ATOM     20  C3  <0> d           3.873  -0.718   0.294  0.00  0.00    -0.012 A 
ATOM     21  S1  <0> d           3.116  -2.329   0.393  0.00  0.00    -0.074 SA
ATOM     22  C18 <0> d           4.669  -0.128  -0.841  0.00  0.00     0.057 C 
ATOM     23  N2  <0> d           1.686  -3.009   2.785  0.00  0.00    -0.225 NA
ENDBRANCH  10  11
ENDBRANCH   8  10
BRANCH   8  24
ATOM     24  C15 <0> d          -1.092  -4.462   3.248  0.00  0.00     0.180 C 
ATOM     25  C16 <0> d          -2.231  -4.098   4.203  0.00  0.00     0.039 C 
ATOM     26  C17 <0> d          -0.820  -3.287   2.307  0.00  0.00     0.039 C 
ENDBRANCH   8  24
ENDBRANCH   7   8
ENDBRANCH   6   7
BRANCH   6  27
ATOM     27  O3  <0> d           0.789  -7.449   3.307  0.00  0.00    -0.392 OA
ATOM     28  H15 <0> d           1.582  -7.607   3.838  0.00  0.00     0.210 HD
ENDBRANCH   6  27
ENDBRANCH   5   6
ENDBRANCH   4   5
ENDBRANCH   1   4
TORSDOF 9
