REMARK  4 active torsions:
REMARK  status: ('A' for Active; 'I' for Inactive)
REMARK    1  A    between atoms: C4_5  and  C7_8 
REMARK    2  A    between atoms: C7_8  and  N2_9 
REMARK    3  A    between atoms: N2_9  and  C8_10 
REMARK    4  A    between atoms: C10_12  and  C12_14 
ROOT
ATOM      1  N2  <0> d           1.997  -4.654   1.084  0.00  0.00    -0.070 N 
ATOM      2  H15 <0> d           2.966  -4.389   0.986  0.00  0.00     0.277 HD
ATOM      3  H26 <0> d           1.635  -4.294   1.954  0.00  0.00     0.277 HD
ENDROOT
BRANCH   1   4
ATOM      4  C7  <0> d           1.223  -4.101  -0.035  0.00  0.00     0.237 C 
BRANCH   4   5
ATOM      5  C4  <0> d           1.336  -2.575  -0.029  0.00  0.00     0.014 C 
ATOM      6  C3  <0> d           0.634  -2.005  -1.264  0.00  0.00     0.034 C 
ATOM      7  C2  <0> d           0.681  -0.476  -1.210  0.00  0.00     0.234 C 
ATOM      8  N1  <0> d           0.002  -0.004   0.002  0.00  0.00    -0.075 N 
ATOM      9  C1  <0> d          -0.018   1.465   0.010  0.00  0.00     0.269 C 
ATOM     10  C6  <0> d           0.712  -0.489   1.192  0.00  0.00     0.234 C 
ATOM     11  H27 <0> d          -0.945  -0.352   0.012  0.00  0.00     0.279 HD
ATOM     12  C5  <0> d           0.666  -2.018   1.230  0.00  0.00     0.034 C 
ENDBRANCH   4   5
ENDBRANCH   1   4
BRANCH   1  13
ATOM     13  C8  <0> d           1.889  -6.120   1.077  0.00  0.00     0.187 C 
ATOM     14  C11 <0> d           2.566  -6.793   2.283  0.00  0.00     0.042 C 
ATOM     15  C10 <0> d           3.851  -6.831   1.440  0.00  0.00     0.022 C 
ATOM     16  C9  <0> d           2.944  -6.811   0.198  0.00  0.00     0.042 C 
BRANCH  15  17
ATOM     17  C12 <0> d           4.636  -8.108   1.594  0.00  0.00    -0.054 A 
ATOM     18  C17 <0> d           6.018  -8.072   1.607  0.00  0.00     0.009 A 
ATOM     19  C16 <0> d           6.739  -9.243   1.753  0.00  0.00     0.019 A 
ATOM     20  C15 <0> d           6.077 -10.451   1.876  0.00  0.00     0.011 A 
ATOM     21  C14 <0> d           4.694 -10.487   1.857  0.00  0.00     0.019 A 
ATOM     22 Br1  <0> d           7.062 -12.054   2.069  0.00  0.00    -0.051 Br
ATOM     23  C13 <0> d           3.974  -9.316   1.716  0.00  0.00     0.009 A 
ENDBRANCH  15  17
ENDBRANCH   1  13
TORSDOF 4
