REMARK  3 active torsions:
REMARK  status: ('A' for Active; 'I' for Inactive)
REMARK    1  A    between atoms: C2_2  and  C5_8 
REMARK    2  A    between atoms: C5_8  and  S1_9 
REMARK    3  A    between atoms: S1_9  and  N1_12 
ROOT
ATOM      1  C1  <0> d          -0.017   1.410   0.010  0.00  0.00     0.056 A 
ATOM      2  C2  <0> d           1.265   1.818  -0.000  0.00  0.00     0.071 A 
ATOM      3  O1  <0> d           2.056   0.732  -0.014  0.00  0.00    -0.305 OA
ATOM      4  C3  <0> d           1.296  -0.376  -0.012  0.00  0.00     0.139 A 
ATOM      5  C4  <0> d           0.002  -0.004   0.002  0.00  0.00     0.054 A 
ATOM      6 Br1  <0> d          -1.501  -1.152   0.011  0.00  0.00    -0.048 Br
ATOM      7 Br2  <0> d           1.936  -2.156  -0.029  0.00  0.00    -0.021 Br
ENDROOT
BRANCH   2   8
ATOM      8  C5  <0> d           1.734   3.250   0.003  0.00  0.00     0.227 C 
BRANCH   8   9
ATOM      9  S1  <0> d           1.938   3.816   1.714  0.00  0.00     0.230 S 
ATOM     10  O2  <0> d           0.673   3.899   2.356  0.00  0.00    -0.206 OA
ATOM     11  O3  <0> d           3.020   3.131   2.330  0.00  0.00    -0.206 OA
BRANCH   9  12
ATOM     12  N1  <0> d           2.451   5.385   1.585  0.00  0.00    -0.328 N 
ATOM     13  H4  <0> d           2.227   6.027   2.276  0.00  0.00     0.168 HD
ATOM     14  H5  <0> d           2.975   5.662   0.817  0.00  0.00     0.168 HD
ENDBRANCH   9  12
ENDBRANCH   8   9
ENDBRANCH   2   8
TORSDOF 3
