REMARK  5 active torsions:
REMARK  status: ('A' for Active; 'I' for Inactive)
REMARK    1  A    between atoms: N1_5  and  C7_8 
REMARK    2  A    between atoms: C7_8  and  C8_9 
REMARK    3  A    between atoms: C7_8  and  C15_20 
REMARK    4  A    between atoms: C8_9  and  N2_10 
REMARK       I    between atoms: N2_10  and  C9_11 
REMARK    5  A    between atoms: C9_11  and  C10_13 
ROOT
ATOM      1  C7  <0> d          -0.162   1.005  -2.387  0.00  0.00     0.245 C 
ENDROOT
BRANCH   1   2
ATOM      2  N1  <0> d          -0.397   1.629  -1.078  0.00  0.00    -0.061 N 
ATOM      3  C4  <0> d          -1.776   1.405  -0.627  0.00  0.00     0.236 C 
ATOM      4  C3  <0> d          -2.026   2.187   0.664  0.00  0.00     0.032 C 
ATOM      5  C2  <0> d          -1.037   1.722   1.736  0.00  0.00    -0.015 C 
ATOM      6  C1  <0> d          -1.242   2.543   3.011  0.00  0.00     0.010 C 
ATOM      7  C6  <0> d           0.392   1.922   1.223  0.00  0.00     0.032 C 
ATOM      8  C5  <0> d           0.572   1.147  -0.085  0.00  0.00     0.236 C 
ATOM      9  H24 <0> d          -0.252   2.714  -1.188  0.00  0.00     0.280 HD
ENDBRANCH   1   2
BRANCH   1  10
ATOM     10  C8  <0> d          -1.160   1.564  -3.404  0.00  0.00     0.161 C 
BRANCH  10  11
ATOM     11  N2  <0> d          -1.073   3.026  -3.421  0.00  0.00    -0.354 N 
ATOM     12  C9  <0> d          -1.792   3.734  -4.314  0.00  0.00     0.256 C 
ATOM     13  O1  <0> d          -2.514   3.159  -5.106  0.00  0.00    -0.268 OA
ATOM     14  H16 <0> d          -0.420   3.547  -2.704  0.00  0.00     0.162 HD
BRANCH  12  15
ATOM     15  C10 <0> d          -1.705   5.207  -4.330  0.00  0.00     0.085 A 
ATOM     16  C11 <0> d          -0.878   5.882  -3.424  0.00  0.00     0.023 A 
ATOM     17  C12 <0> d          -0.836   7.263  -3.477  0.00  0.00     0.018 A 
ATOM     18  C13 <0> d          -1.604   7.932  -4.414  0.00  0.00     0.090 A 
ATOM     19  N3  <0> d          -2.375   7.276  -5.259  0.00  0.00    -0.344 N 
ATOM     20  C14 <0> d          -2.448   5.956  -5.255  0.00  0.00     0.194 A 
ATOM     21  H20 <0> d          -2.968   7.857  -5.981  0.00  0.00     0.167 HD
ATOM     22  O2  <0> d          -3.250   5.323  -6.144  0.00  0.00    -0.171 OA
ENDBRANCH  12  15
ENDBRANCH  10  11
ENDBRANCH   1  10
BRANCH   1  23
ATOM     23  C15 <0> d          -0.344  -0.486  -2.273  0.00  0.00     0.015 A 
ATOM     24  S1  <0> d          -1.752  -1.405  -1.670  0.00  0.00    -0.104 SA
ATOM     25  C18 <0> d          -1.095  -3.049  -1.897  0.00  0.00     0.050 A 
ATOM     26  C17 <0> d           0.136  -2.792  -2.402  0.00  0.00     0.008 A 
ATOM     27  C16 <0> d           0.521  -1.479  -2.595  0.00  0.00     0.017 A 
ENDBRANCH   1  23
TORSDOF 5
