REMARK  4 active torsions:
REMARK  status: ('A' for Active; 'I' for Inactive)
REMARK    1  A    between atoms: C5_6  and  C6_7 
REMARK       I    between atoms: C6_7  and  N2_9 
REMARK    2  A    between atoms: C8_11  and  C15_19 
REMARK       I    between atoms: C15_19  and  N4_21 
REMARK    3  A    between atoms: N4_21  and  C16_22 
REMARK    4  A    between atoms: C16_22  and  C17_23 
ROOT
ATOM      1  C6  <0> d          -0.177  -0.368   2.469  0.00  0.00     0.270 C 
ATOM      2  O1  <0> d          -0.113  -1.191   3.364  0.00  0.00    -0.266 OA
ATOM      3  N2  <0> d          -0.385   0.931   2.761  0.00  0.00    -0.345 N 
ATOM      4  C7  <0> d          -0.633   2.046   1.817  0.00  0.00     0.141 C 
ATOM      5  C8  <0> d          -1.706   2.914   2.512  0.00  0.00     0.106 C 
ATOM      6  C9  <0> d          -1.558   2.597   4.010  0.00  0.00    -0.007 C 
ATOM      7  C10 <0> d          -0.424   1.566   4.100  0.00  0.00     0.136 C 
ATOM      8  C11 <0> d          -2.852   1.998   4.553  0.00  0.00     0.039 C 
ATOM      9  C12 <0> d          -2.699   1.744   6.056  0.00  0.00     0.233 C 
ATOM     10  N3  <0> d          -2.396   3.007   6.739  0.00  0.00    -0.075 N 
ATOM     11  C13 <0> d          -1.105   3.529   6.277  0.00  0.00     0.233 C 
ATOM     12  C14 <0> d          -1.190   3.858   4.784  0.00  0.00     0.039 C 
ATOM     13  H16 <0> d          -3.121   3.679   6.537  0.00  0.00     0.277 HD
ATOM     14  H29 <0> d          -2.356   2.848   7.735  0.00  0.00     0.277 HD
ENDROOT
BRANCH   5  15
ATOM     15  C15 <0> d          -3.082   2.536   2.027  0.00  0.00     0.224 C 
ATOM     16  O2  <0> d          -3.288   1.421   1.597  0.00  0.00    -0.273 OA
ATOM     17  N4  <0> d          -4.083   3.438   2.070  0.00  0.00    -0.354 N 
ATOM     18  H21 <0> d          -3.918   4.330   2.414  0.00  0.00     0.162 HD
BRANCH  17  19
ATOM     19  C16 <0> d          -5.420   3.070   1.599  0.00  0.00     0.199 C 
BRANCH  19  20
ATOM     20  C17 <0> d          -6.348   4.247   1.754  0.00  0.00     0.100 A 
ATOM     21  N6  <0> d          -7.023   4.575   2.877  0.00  0.00    -0.348 N 
ATOM     22  C19 <0> d          -7.746   5.704   2.600  0.00  0.00     0.108 A 
ATOM     23  C20 <0> d          -6.986   3.857   4.154  0.00  0.00     0.157 C 
ATOM     24  C18 <0> d          -7.495   6.023   1.316  0.00  0.00     0.106 A 
ATOM     25  N5  <0> d          -6.638   5.116   0.824  0.00  0.00    -0.353 N 
ATOM     26  H30 <0> d          -6.288   5.107  -0.081  0.00  0.00     0.166 HD
ENDBRANCH  19  20
ENDBRANCH  17  19
ENDBRANCH   5  15
BRANCH   1  27
ATOM     27  C5  <0> d          -0.028  -0.791   1.072  0.00  0.00     0.102 A 
ATOM     28  N1  <0> d           0.036  -2.088   0.617  0.00  0.00    -0.357 N 
ATOM     29  C1  <0> d          -0.035  -3.291   1.451  0.00  0.00     0.156 C 
ATOM     30  C2  <0> d           0.169  -2.068  -0.732  0.00  0.00     0.091 A 
ATOM     31  C3  <0> d           0.197  -0.781  -1.150  0.00  0.00     0.020 A 
ATOM     32  C4  <0> d           0.078   0.039  -0.024  0.00  0.00     0.037 A 
ENDBRANCH   1  27
TORSDOF 4
