REMARK  7 active torsions:
REMARK  status: ('A' for Active; 'I' for Inactive)
REMARK    1  A    between atoms: O1_2  and  C2_3 
REMARK    2  A    between atoms: C5_6  and  C8_9 
REMARK    3  A    between atoms: C10_12  and  C15_23 
REMARK    4  A    between atoms: C12_17  and  C14_19 
REMARK       I    between atoms: C15_23  and  N4_25 
REMARK    5  A    between atoms: N4_25  and  C16_26 
REMARK    6  A    between atoms: C16_26  and  C17_27 
REMARK    7  A    between atoms: C17_27  and  C18_28 
ROOT
ATOM      1  C8  <0> d          -4.961  -2.619   0.036  0.00  0.00     0.066 C 
ATOM      2  N1  <0> d          -6.057  -1.900   0.040  0.00  0.00    -0.256 NA
ATOM      3  C9  <0> d          -7.365  -2.559   0.044  0.00  0.00     0.270 C 
ATOM      4  C10 <0> d          -8.342  -1.837  -0.854  0.00  0.00     0.072 C 
ATOM      5  H2  <0> d          -8.499  -4.785  -1.995  0.00  0.00     0.186 HD
ATOM      6  C11 <0> d          -8.796  -2.743  -1.746  0.00  0.00     0.124 C 
ATOM      7  N2  <0> d          -8.226  -3.967  -1.552  0.00  0.00    -0.306 N 
ATOM      8  N3  <0> d          -7.191  -3.878  -0.604  0.00  0.00    -0.258 N 
ATOM      9  C12 <0> d          -6.146  -4.715  -0.306  0.00  0.00     0.139 C 
ATOM     10  C13 <0> d          -4.992  -4.084   0.034  0.00  0.00     0.068 C 
ENDROOT
BRANCH   4  11
ATOM     11  C15 <0> d          -8.710  -0.473  -0.775  0.00  0.00     0.253 C 
ATOM     12  O2  <0> d          -9.514  -0.013  -1.566  0.00  0.00    -0.268 OA
ATOM     13  N4  <0> d          -8.172   0.316   0.175  0.00  0.00    -0.357 N 
ATOM     14  H12 <0> d          -7.532  -0.051   0.805  0.00  0.00     0.162 HD
BRANCH  13  15
ATOM     15  C16 <0> d          -8.553   1.728   0.257  0.00  0.00     0.127 C 
BRANCH  15  16
ATOM     16  C17 <0> d          -7.804   2.393   1.413  0.00  0.00     0.056 C 
BRANCH  16  17
ATOM     17  C18 <0> d          -8.196   3.845   1.498  0.00  0.00    -0.048 A 
ATOM     18  C25 <0> d          -7.598   4.995   0.719  0.00  0.00     0.155 A 
ATOM     19  N5  <0> d          -8.321   6.196   1.154  0.00  0.00    -0.385 N 
ATOM     20  C24 <0> d          -9.207   5.846   2.055  0.00  0.00     0.038 A 
ATOM     21  H22 <0> d          -8.166   7.098   0.832  0.00  0.00     0.160 HD
ATOM     22  C19 <0> d          -9.151   4.385   2.289  0.00  0.00    -0.004 A 
ATOM     23  C23 <0> d         -10.154   6.606   2.795  0.00  0.00     0.031 A 
ATOM     24  C20 <0> d         -10.075   3.804   3.270  0.00  0.00     0.037 A 
ATOM     25  C21 <0> d         -10.938   4.617   3.921  0.00  0.00     0.035 A 
ATOM     26  C22 <0> d         -10.972   5.999   3.682  0.00  0.00     0.026 A 
ATOM     27 Cl1  <0> d         -12.032   3.934   5.082  0.00  0.00    -0.084 Cl
ENDBRANCH  16  17
ENDBRANCH  15  16
ENDBRANCH  13  15
ENDBRANCH   4  11
BRANCH   1  28
ATOM     28  C5  <0> d          -3.650  -1.928   0.027  0.00  0.00    -0.007 A 
ATOM     29  C4  <0> d          -3.594  -0.534   0.028  0.00  0.00     0.016 A 
ATOM     30  C3  <0> d          -2.373   0.105   0.020  0.00  0.00     0.037 A 
ATOM     31  C2  <0> d          -1.199  -0.637   0.010  0.00  0.00     0.068 A 
ATOM     32  C7  <0> d          -1.251  -2.025   0.003  0.00  0.00     0.037 A 
ATOM     33  C6  <0> d          -2.469  -2.670   0.017  0.00  0.00     0.016 A 
BRANCH  31  34
ATOM     34  O1  <0> d           0.002  -0.004   0.002  0.00  0.00    -0.356 OA
ATOM     35  C1  <0> d          -0.017   1.425   0.010  0.00  0.00     0.210 C 
ENDBRANCH  31  34
ENDBRANCH   1  28
BRANCH   9  36
ATOM     36  C14 <0> d          -6.267  -6.216  -0.358  0.00  0.00     0.434 C 
ATOM     37  F1  <0> d          -5.043  -6.795  -0.005  0.00  0.00    -0.165 F 
ATOM     38  F2  <0> d          -7.257  -6.636   0.536  0.00  0.00    -0.165 F 
ATOM     39  F3  <0> d          -6.612  -6.611  -1.655  0.00  0.00    -0.165 F 
ENDBRANCH   9  36
TORSDOF 7
