REMARK  10 active torsions:
REMARK  status: ('A' for Active; 'I' for Inactive)
REMARK    1  A    between atoms: C2_2  and  C3_3 
REMARK    2  A    between atoms: C2_2  and  N3_15 
REMARK    3  A    between atoms: N3_15  and  C11_16 
REMARK       I    between atoms: N3_15  and  C17_23 
REMARK    4  A    between atoms: C11_16  and  C12_17 
REMARK    5  A    between atoms: C12_17  and  C13_18 
REMARK    6  A    between atoms: C13_18  and  C14_19 
REMARK    7  A    between atoms: C14_19  and  C15_20 
REMARK    8  A    between atoms: C15_20  and  C16_21 
REMARK    9  A    between atoms: C16_21  and  N4_22 
REMARK   10  A    between atoms: C17_23  and  C18_25 
ROOT
ATOM      1  N3  <0> d           0.847  -0.996  -1.143  0.00  0.00    -0.337 N 
ATOM      2  C17 <0> d           1.871  -0.218  -1.547  0.00  0.00     0.255 C 
ATOM      3  O2  <0> d           2.086  -0.064  -2.733  0.00  0.00    -0.267 OA
ENDROOT
BRANCH   1   4
ATOM      4  C2  <0> d           0.117  -0.667   0.084  0.00  0.00     0.153 C 
ATOM      5  C1  <0> d          -0.354   0.787   0.024  0.00  0.00     0.041 C 
BRANCH   4   6
ATOM      6  C3  <0> d           1.026  -0.852   1.273  0.00  0.00     0.130 A 
ATOM      7  N2  <0> d           2.211  -1.341   1.072  0.00  0.00    -0.232 NA
ATOM      8  C10 <0> d           3.085  -1.530   2.092  0.00  0.00     0.074 A 
ATOM      9  C5  <0> d           2.687  -1.195   3.405  0.00  0.00     0.061 A 
ATOM     10  C9  <0> d           4.362  -2.051   1.876  0.00  0.00     0.032 A 
ATOM     11  C4  <0> d           1.336  -0.648   3.599  0.00  0.00     0.259 A 
ATOM     12  C6  <0> d           3.565  -1.385   4.471  0.00  0.00     0.019 A 
ATOM     13  N1  <0> d           0.560  -0.501   2.500  0.00  0.00    -0.309 N 
ATOM     14  O1  <0> d           0.931  -0.339   4.705  0.00  0.00    -0.267 OA
ATOM     15  H2  <0> d          -0.337  -0.144   2.590  0.00  0.00     0.170 HD
ATOM     16  C7  <0> d           4.820  -1.901   4.232  0.00  0.00     0.001 A 
ATOM     17  C8  <0> d           5.214  -2.231   2.942  0.00  0.00     0.002 A 
ENDBRANCH   4   6
ENDBRANCH   1   4
BRANCH   1  18
ATOM     18  C11 <0> d           0.463  -2.169  -1.932  0.00  0.00     0.127 C 
BRANCH  18  19
ATOM     19  C12 <0> d          -0.588  -1.765  -2.968  0.00  0.00     0.020 C 
BRANCH  19  20
ATOM     20  C13 <0> d          -0.989  -2.990  -3.792  0.00  0.00     0.002 C 
BRANCH  20  21
ATOM     21  C14 <0> d          -2.040  -2.586  -4.829  0.00  0.00     0.002 C 
BRANCH  21  22
ATOM     22  C15 <0> d          -2.441  -3.811  -5.652  0.00  0.00     0.027 C 
BRANCH  22  23
ATOM     23  C16 <0> d          -3.491  -3.407  -6.689  0.00  0.00     0.229 C 
BRANCH  23  24
ATOM     24  N4  <0> d          -3.876  -4.584  -7.480  0.00  0.00    -0.079 N 
ATOM     25  H22 <0> d          -3.064  -4.953  -7.951  0.00  0.00     0.274 HD
ATOM     26  H23 <0> d          -4.261  -5.289  -6.869  0.00  0.00     0.274 HD
ATOM     27  H28 <0> d          -4.569  -4.317  -8.163  0.00  0.00     0.274 HD
ENDBRANCH  23  24
ENDBRANCH  22  23
ENDBRANCH  21  22
ENDBRANCH  20  21
ENDBRANCH  19  20
ENDBRANCH  18  19
ENDBRANCH   1  18
BRANCH   2  28
ATOM     28  C18 <0> d           2.733   0.447  -0.547  0.00  0.00     0.049 A 
ATOM     29  C23 <0> d           4.095   0.624  -0.801  0.00  0.00     0.026 A 
ATOM     30  C22 <0> d           4.892   1.251   0.136  0.00  0.00     0.020 A 
ATOM     31 Br1  <0> d           4.843   0.013  -2.427  0.00  0.00    -0.050 Br
ATOM     32  C21 <0> d           4.348   1.692   1.328  0.00  0.00     0.001 A 
ATOM     33  C20 <0> d           3.000   1.515   1.588  0.00  0.00     0.001 A 
ATOM     34  C19 <0> d           2.190   0.896   0.659  0.00  0.00     0.018 A 
ENDBRANCH   2  28
TORSDOF 10
