REMARK  3 active torsions:
REMARK  status: ('A' for Active; 'I' for Inactive)
REMARK    1  A    between atoms: C3_3  and  N3_16 
REMARK    2  A    between atoms: C5_6  and  N2_7 
REMARK       I    between atoms: N2_7  and  C6_8 
REMARK    3  A    between atoms: C6_8  and  C7_10 
ROOT
ATOM      1  C1  <0> d           4.869   4.027   0.651  0.00  0.00     0.034 A 
ATOM      2  C2  <0> d           3.681   3.333   0.796  0.00  0.00     0.047 A 
ATOM      3  C3  <0> d           3.574   2.054   0.260  0.00  0.00     0.105 A 
ATOM      4  N1  <0> d           4.593   1.500  -0.378  0.00  0.00    -0.247 NA
ATOM      5  C4  <0> d           5.738   2.136  -0.540  0.00  0.00     0.148 A 
ATOM      6  C5  <0> d           5.917   3.414  -0.032  0.00  0.00     0.052 A 
ENDROOT
BRANCH   6   7
ATOM      7  N2  <0> d           7.138   4.080  -0.203  0.00  0.00    -0.321 N 
ATOM      8  C6  <0> d           7.580   4.931   0.744  0.00  0.00     0.263 C 
ATOM      9  O1  <0> d           6.968   5.048   1.790  0.00  0.00    -0.267 OA
ATOM     10  H4  <0> d           7.736   3.909  -1.111  0.00  0.00     0.169 HD
BRANCH   8  11
ATOM     11  C7  <0> d           8.796   5.714   0.515  0.00  0.00     0.074 A 
ATOM     12  S1  <0> d           9.874   5.728  -0.907  0.00  0.00    -0.077 SA
ATOM     13  C10 <0> d          11.022   6.902  -0.352  0.00  0.00     0.052 A 
ATOM     14  C9  <0> d          10.557   7.232   0.883  0.00  0.00     0.028 A 
ATOM     15 Br1  <0> d          12.556   7.558  -1.243  0.00  0.00    -0.043 Br
ATOM     16  C8  <0> d           9.414   6.634   1.349  0.00  0.00     0.026 A 
ENDBRANCH   8  11
ENDBRANCH   6   7
BRANCH   3  17
ATOM     17  N3  <0> d           2.383   1.347   0.400  0.00  0.00    -0.258 NA
ATOM     18  C14 <0> d           1.254   2.099  -0.163  0.00  0.00     0.199 C 
ATOM     19  C13 <0> d           0.012   1.254  -0.140  0.00  0.00     0.231 C 
ATOM     20  N4  <0> d           0.043  -0.074   0.013  0.00  0.00    -0.359 N 
ATOM     21  O2  <0> d          -1.064   1.799  -0.270  0.00  0.00    -0.272 OA
ATOM     22  C12 <0> d           1.282  -0.822   0.207  0.00  0.00     0.137 C 
ATOM     23  H11 <0> d          -0.921  -0.603  -0.013  0.00  0.00     0.162 HD
ATOM     24  C11 <0> d           2.478   0.022  -0.235  0.00  0.00     0.117 C 
ENDBRANCH   3  17
TORSDOF 3
