REMARK  6 active torsions:
REMARK  status: ('A' for Active; 'I' for Inactive)
REMARK    1  A    between atoms: C4_4  and  C7_7 
REMARK    2  A    between atoms: C7_7  and  C8_8 
REMARK    3  A    between atoms: C7_7  and  N1_10 
REMARK    4  A    between atoms: C8_8  and  O1_9 
REMARK    5  A    between atoms: C10_12  and  N2_17 
REMARK    6  A    between atoms: N2_17  and  C13_18 
ROOT
ATOM      1  N1  <0> d           3.630  -1.873   0.845  0.00  0.00    -0.275 NA
ATOM      2  C9  <0> d           4.434  -1.980   1.849  0.00  0.00     0.114 C 
ATOM      3  C10 <0> d           4.676  -2.985   2.954  0.00  0.00     0.216 C 
ATOM      4  C11 <0> d           6.089  -2.444   2.987  0.00  0.00     0.229 C 
ATOM      5  O2  <0> d           7.177  -2.856   3.312  0.00  0.00    -0.286 OA
ATOM      6  C12 <0> d           5.538  -1.173   2.431  0.00  0.00     0.246 C 
ATOM      7  O3  <0> d           5.854  -0.002   2.447  0.00  0.00    -0.282 OA
ENDROOT
BRANCH   1   8
ATOM      8  C7  <0> d           3.711  -0.707  -0.038  0.00  0.00     0.165 C 
BRANCH   8   9
ATOM      9  C4  <0> d           2.396   0.029  -0.020  0.00  0.00    -0.031 A 
ATOM     10  C3  <0> d           2.377   1.411  -0.013  0.00  0.00     0.009 A 
ATOM     11  C2  <0> d           1.171   2.086   0.002  0.00  0.00     0.001 A 
ATOM     12  C1  <0> d          -0.017   1.378   0.010  0.00  0.00     0.000 A 
ATOM     13  C6  <0> d           0.002  -0.004   0.002  0.00  0.00     0.001 A 
ATOM     14  C5  <0> d           1.208  -0.679  -0.012  0.00  0.00     0.009 A 
ENDBRANCH   8   9
BRANCH   8  15
ATOM     15  C8  <0> d           4.019  -1.168  -1.464  0.00  0.00     0.196 C 
BRANCH  15  16
ATOM     16  O1  <0> d           2.926  -1.943  -1.960  0.00  0.00    -0.398 OA
ATOM     17  H9  <0> d           3.053  -2.268  -2.862  0.00  0.00     0.209 HD
ENDBRANCH  15  16
ENDBRANCH   8  15
ENDBRANCH   1   8
BRANCH   3  18
ATOM     18  N2  <0> d           3.912  -2.718   4.175  0.00  0.00    -0.373 N 
ATOM     19  H11 <0> d           3.617  -1.816   4.375  0.00  0.00     0.161 HD
BRANCH  18  20
ATOM     20  C13 <0> d           3.610  -3.759   5.048  0.00  0.00     0.031 A 
ATOM     21  C17 <0> d           2.883  -3.525   6.216  0.00  0.00     0.046 A 
ATOM     22  C16 <0> d           2.600  -4.584   7.052  0.00  0.00     0.089 A 
ATOM     23  N3  <0> d           3.016  -5.803   6.764  0.00  0.00    -0.375 N 
ATOM     24  C15 <0> d           3.710  -6.064   5.672  0.00  0.00     0.089 A 
ATOM     25  H16 <0> d           2.805  -6.529   7.373  0.00  0.00     0.164 HD
ATOM     26  C14 <0> d           4.030  -5.062   4.782  0.00  0.00     0.046 A 
ENDBRANCH  18  20
ENDBRANCH   3  18
TORSDOF 6
