REMARK  7 active torsions:
REMARK  status: ('A' for Active; 'I' for Inactive)
REMARK    1  A    between atoms: C4_4  and  C9_10 
REMARK    2  A    between atoms: C7_7  and  O1_8 
REMARK    3  A    between atoms: C9_10  and  N4_30 
REMARK    4  A    between atoms: C10_11  and  N4_30 
REMARK    5  A    between atoms: C17_19  and  N3_21 
REMARK    6  A    between atoms: C20_24  and  C23_27 
REMARK    7  A    between atoms: C23_27  and  O2_28 
ROOT
ATOM      1  C10 <0> d          -2.502   0.969   0.009  0.00  0.00     0.222 C 
ATOM      2  C11 <0> d          -3.581   1.914   0.538  0.00  0.00     0.038 C 
ATOM      3  C12 <0> d          -3.553   3.199  -0.298  0.00  0.00     0.008 C 
ATOM      4  C13 <0> d          -2.269   3.962   0.039  0.00  0.00     0.060 C 
ATOM      5  C14 <0> d          -1.074   3.056  -0.086  0.00  0.00     0.047 A 
ATOM      6  C15 <0> d          -1.182   1.682  -0.089  0.00  0.00     0.015 A 
ATOM      7  C16 <0> d          -0.021   0.924  -0.188  0.00  0.00     0.131 A 
ATOM      8  N1  <0> d           1.146   1.535  -0.291  0.00  0.00    -0.230 NA
ATOM      9  C17 <0> d           1.216   2.858  -0.296  0.00  0.00     0.204 A 
ATOM     10  N2  <0> d           0.130   3.607  -0.196  0.00  0.00    -0.222 NA
ENDROOT
BRANCH   1  11
ATOM     11  N4  <0> d          -2.362  -0.175   0.929  0.00  0.00    -0.063 N 
ATOM     12  H32 <0> d          -1.419  -0.570   0.838  0.00  0.00     0.278 HD
ATOM     13  H33 <0> d          -2.508   0.145   1.894  0.00  0.00     0.278 HD
BRANCH  11  14
ATOM     14  C9  <0> d          -3.357  -1.216   0.607  0.00  0.00     0.271 C 
BRANCH  14  15
ATOM     15  C4  <0> d          -3.276  -2.312   1.637  0.00  0.00    -0.032 A 
ATOM     16  C3  <0> d          -4.053  -2.245   2.779  0.00  0.00     0.018 A 
ATOM     17  C2  <0> d          -3.980  -3.250   3.725  0.00  0.00    -0.028 A 
ATOM     18  C1  <0> d          -4.826  -3.176   4.970  0.00  0.00     0.051 C 
ATOM     19  C7  <0> d          -3.127  -4.326   3.528  0.00  0.00     0.074 A 
ATOM     20  C6  <0> d          -2.349  -4.391   2.381  0.00  0.00     0.038 A 
ATOM     21  C5  <0> d          -2.430  -3.387   1.436  0.00  0.00     0.011 A 
BRANCH  19  22
ATOM     22  O1  <0> d          -3.054  -5.315   4.457  0.00  0.00    -0.355 OA
ATOM     23  C8  <0> d          -2.155  -6.393   4.188  0.00  0.00     0.210 C 
ENDBRANCH  19  22
ENDBRANCH  14  15
ENDBRANCH  11  14
ENDBRANCH   1  11
BRANCH   9  24
ATOM     24  N3  <0> d           2.452   3.470  -0.409  0.00  0.00    -0.251 NA
ATOM     25  C22 <0> d           3.526   2.474  -0.509  0.00  0.00     0.099 C 
ATOM     26  C21 <0> d           4.856   3.180  -0.778  0.00  0.00     0.021 C 
ATOM     27  C20 <0> d           5.148   4.160   0.362  0.00  0.00     0.011 C 
ATOM     28  C19 <0> d           3.992   5.157   0.476  0.00  0.00     0.021 C 
ATOM     29  C18 <0> d           2.686   4.393   0.709  0.00  0.00     0.099 C 
BRANCH  27  30
ATOM     30  C23 <0> d           6.447   4.913   0.069  0.00  0.00     0.168 C 
BRANCH  30  31
ATOM     31  O2  <0> d           6.779   5.741   1.185  0.00  0.00    -0.400 OA
ATOM     32  H31 <0> d           7.594   6.250   1.069  0.00  0.00     0.209 HD
ENDBRANCH  30  31
ENDBRANCH  27  30
ENDBRANCH   9  24
TORSDOF 7
