REMARK  5 active torsions:
REMARK  status: ('A' for Active; 'I' for Inactive)
REMARK    1  A    between atoms: N1_4  and  S1_9 
REMARK    2  A    between atoms: S1_9  and  C7_12 
REMARK    3  A    between atoms: C9_14  and  C12_18 
REMARK    4  A    between atoms: C13_19  and  C14_20 
REMARK    5  A    between atoms: C14_20  and  N3_21 
ROOT
ATOM      1  C7  <0> d           2.426  -2.756  -3.584  0.00  0.00     0.098 A 
ATOM      2  C8  <0> d           2.717  -1.773  -4.513  0.00  0.00     0.048 A 
ATOM      3  C9  <0> d           3.950  -1.829  -5.174  0.00  0.00     0.036 A 
ATOM      4  C10 <0> d           4.830  -2.868  -4.871  0.00  0.00     0.136 A 
ATOM      5  N2  <0> d           4.507  -3.780  -3.978  0.00  0.00    -0.270 NA
ATOM      6  C11 <0> d           3.355  -3.750  -3.336  0.00  0.00     0.141 A 
ENDROOT
BRANCH   1   7
ATOM      7  S1  <0> d           0.890  -2.738  -2.721  0.00  0.00     0.262 S 
ATOM      8  O2  <0> d           0.644  -4.074  -2.301  0.00  0.00    -0.200 OA
ATOM      9  O3  <0> d          -0.024  -2.015  -3.534  0.00  0.00    -0.200 OA
BRANCH   7  10
ATOM     10  N1  <0> d           1.111  -1.843  -1.345  0.00  0.00    -0.298 N 
ATOM     11  C3  <0> d           0.724  -0.424  -1.295  0.00  0.00     0.167 C 
ATOM     12  C2  <0> d          -0.137  -0.203  -0.046  0.00  0.00     0.136 C 
ATOM     13  C1  <0> d          -0.393   1.294   0.139  0.00  0.00     0.041 C 
ATOM     14  O1  <0> d           0.550  -0.715   1.098  0.00  0.00    -0.383 OA
ATOM     15  C5  <0> d           0.792  -2.123   1.054  0.00  0.00     0.193 C 
ATOM     16  C4  <0> d           1.701  -2.443  -0.138  0.00  0.00     0.115 C 
ATOM     17  C6  <0> d           1.806  -3.959  -0.315  0.00  0.00     0.035 C 
ENDBRANCH   7  10
ENDBRANCH   1   7
BRANCH   3  18
ATOM     18  C12 <0> d           4.301  -0.837  -6.145  0.00  0.00    -0.064 C 
ATOM     19  C13 <0> d           4.588  -0.023  -6.941  0.00  0.00    -0.074 C 
BRANCH  19  20
ATOM     20  C14 <0> d           4.949   0.997  -7.939  0.00  0.00     0.323 C 
BRANCH  20  21
ATOM     21  N3  <0> d           6.285   0.705  -8.476  0.00  0.00    -0.069 N 
ATOM     22  H18 <0> d           6.959   0.716  -7.725  0.00  0.00     0.275 HD
ATOM     23  H19 <0> d           6.282  -0.205  -8.911  0.00  0.00     0.275 HD
ATOM     24  H20 <0> d           6.533   1.404  -9.160  0.00  0.00     0.275 HD
ENDBRANCH  20  21
ENDBRANCH  19  20
ENDBRANCH   3  18
TORSDOF 5
