REMARK  7 active torsions:
REMARK  status: ('A' for Active; 'I' for Inactive)
REMARK    1  A    between atoms: C5_5  and  C13_16 
REMARK    2  A    between atoms: N1_8  and  C7_10 
REMARK       I    between atoms: C13_16  and  N3_18 
REMARK    3  A    between atoms: N3_18  and  C14_19 
REMARK    4  A    between atoms: C15_21  and  C17_24 
REMARK    5  A    between atoms: C17_24  and  C18_25 
REMARK    6  A    between atoms: N7_31  and  C20_32 
REMARK    7  A    between atoms: C20_32  and  C21_33 
ROOT
ATOM      1  C13 <0> d          -4.407  -2.139  -1.137  0.00  0.00     0.264 C 
ATOM      2  O1  <0> d          -5.215  -1.237  -1.003  0.00  0.00    -0.267 OA
ATOM      3  N3  <0> d          -4.800  -3.325  -1.643  0.00  0.00    -0.301 N 
ATOM      4  H13 <0> d          -4.157  -4.043  -1.750  0.00  0.00     0.171 HD
ENDROOT
BRANCH   1   5
ATOM      5  C5  <0> d          -3.055  -1.941  -0.762  0.00  0.00     0.071 C 
ATOM      6  C4  <0> d          -2.481  -0.815  -0.236  0.00  0.00     0.036 C 
ATOM      7  C3  <0> d          -1.103  -0.781   0.003  0.00  0.00     0.002 C 
ATOM      8  C2  <0> d           0.002  -0.004   0.002  0.00  0.00     0.031 C 
ATOM      9  C6  <0> d          -0.558  -2.200   0.249  0.00  0.00     0.210 C 
ATOM     10  C1  <0> d          -0.018   1.503   0.010  0.00  0.00     0.070 C 
ATOM     11  N2  <0> d           1.146  -0.762  -0.013  0.00  0.00    -0.301 N 
ATOM     12  N1  <0> d           0.799  -2.106  -0.290  0.00  0.00    -0.273 N 
ATOM     13  H7  <0> d           2.044  -0.432   0.142  0.00  0.00     0.187 HD
ATOM     14  S1  <0> d          -1.698  -3.107  -0.865  0.00  0.00    -0.092 SA
BRANCH  12  15
ATOM     15  C7  <0> d           1.559  -3.091  -0.924  0.00  0.00     0.052 A 
ATOM     16  C12 <0> d           2.842  -2.801  -1.371  0.00  0.00     0.031 A 
ATOM     17  C11 <0> d           3.593  -3.779  -1.993  0.00  0.00     0.002 A 
ATOM     18  C10 <0> d           3.065  -5.043  -2.181  0.00  0.00     0.000 A 
ATOM     19  C9  <0> d           1.786  -5.334  -1.743  0.00  0.00     0.002 A 
ATOM     20  C8  <0> d           1.032  -4.362  -1.115  0.00  0.00     0.031 A 
ENDBRANCH  12  15
ENDBRANCH   1   5
BRANCH   3  21
ATOM     21  C14 <0> d          -6.125  -3.519  -2.010  0.00  0.00     0.173 A 
ATOM     22  S2  <0> d          -7.406  -2.431  -1.917  0.00  0.00    -0.062 SA
ATOM     23  C16 <0> d          -8.679  -3.492  -2.579  0.00  0.00     0.081 A 
ATOM     24  C15 <0> d          -7.970  -4.624  -2.811  0.00  0.00     0.051 A 
ATOM     25  N4  <0> d          -6.685  -4.599  -2.511  0.00  0.00    -0.228 NA
BRANCH  24  26
ATOM     26  C17 <0> d          -8.620  -5.857  -3.385  0.00  0.00     0.140 C 
BRANCH  26  27
ATOM     27  C18 <0> d          -7.878  -6.285  -4.624  0.00  0.00     0.134 A 
ATOM     28  N7  <0> d          -8.190  -7.369  -5.408  0.00  0.00    -0.306 N 
ATOM     29  C19 <0> d          -7.305  -7.427  -6.423  0.00  0.00     0.196 A 
ATOM     30  N6  <0> d          -6.447  -6.397  -6.270  0.00  0.00    -0.251 N 
ATOM     31  S3  <0> d          -7.272  -8.596  -7.673  0.00  0.00    -0.039 SA
ATOM     32  H2  <0> d          -5.698  -6.182  -6.847  0.00  0.00     0.191 HD
ATOM     33  N5  <0> d          -6.839  -5.695  -5.122  0.00  0.00    -0.158 NA
BRANCH  28  34
ATOM     34  C20 <0> d          -9.298  -8.300  -5.181  0.00  0.00     0.159 C 
BRANCH  34  35
ATOM     35  C21 <0> d         -10.528  -7.802  -5.896  0.00  0.00    -0.017 C 
ATOM     36  C22 <0> d         -11.149  -8.579  -6.748  0.00  0.00     0.008 C 
ENDBRANCH  34  35
ENDBRANCH  28  34
ENDBRANCH  26  27
ENDBRANCH  24  26
ENDBRANCH   3  21
TORSDOF 7
