REMARK  7 active torsions:
REMARK  status: ('A' for Active; 'I' for Inactive)
REMARK    1  A    between atoms: C2_2  and  C3_3 
REMARK    2  A    between atoms: C3_3  and  C4_4 
REMARK    3  A    between atoms: C4_4  and  C6_6 
REMARK       I    between atoms: C6_6  and  N1_8 
REMARK    4  A    between atoms: C8_10  and  C15_18 
REMARK       I    between atoms: C15_18  and  N3_20 
REMARK    5  A    between atoms: N3_20  and  C16_21 
REMARK    6  A    between atoms: C16_21  and  C17_22 
REMARK    7  A    between atoms: C17_22  and  C18_23 
ROOT
ATOM      1  C18 <0> d          -1.434 -11.927   2.989  0.00  0.00    -0.044 A 
ATOM      2  C19 <0> d          -0.980 -12.471   1.831  0.00  0.00    -0.004 A 
ATOM      3  C20 <0> d          -0.820 -11.929   0.529  0.00  0.00     0.036 A 
ATOM      4  C21 <0> d          -0.329 -12.713  -0.490  0.00  0.00     0.045 A 
ATOM      5  C22 <0> d           0.037 -14.107  -0.263  0.00  0.00     0.025 A 
ATOM      6  C23 <0> d          -0.093 -14.675   0.953  0.00  0.00     0.031 A 
ATOM      7  C24 <0> d          -0.612 -13.883   2.074  0.00  0.00     0.039 A 
ATOM      8  N4  <0> d          -0.828 -14.201   3.327  0.00  0.00    -0.381 N 
ATOM      9  C25 <0> d          -1.353 -13.023   4.026  0.00  0.00     0.108 A 
ATOM     10  C26 <0> d          -2.745 -13.324   4.586  0.00  0.00     0.037 C 
ATOM     11  C27 <0> d          -0.174 -12.150  -1.797  0.00  0.00     0.099 C 
ATOM     12  N5  <0> d          -0.052 -11.703  -2.834  0.00  0.00    -0.191 NA
ATOM     13  H38 <0> d          -0.664 -15.069   3.727  0.00  0.00     0.160 HD
ENDROOT
BRANCH   1  14
ATOM     14  C17 <0> d          -1.916 -10.514   3.199  0.00  0.00     0.057 C 
BRANCH  14  15
ATOM     15  C16 <0> d          -1.829  -9.744   1.879  0.00  0.00     0.127 C 
BRANCH  15  16
ATOM     16  N3  <0> d          -2.296  -8.371   2.083  0.00  0.00    -0.360 N 
ATOM     17  C15 <0> d          -2.309  -7.503   1.052  0.00  0.00     0.224 C 
ATOM     18  O2  <0> d          -1.933  -7.859  -0.044  0.00  0.00    -0.273 OA
ATOM     19  H27 <0> d          -2.597  -8.087   2.961  0.00  0.00     0.162 HD
BRANCH  17  20
ATOM     20  C8  <0> d          -2.791  -6.091   1.262  0.00  0.00     0.106 C 
ATOM     21  C7  <0> d          -2.086  -5.130   0.278  0.00  0.00     0.140 C 
ATOM     22  N1  <0> d          -3.131  -4.150  -0.101  0.00  0.00    -0.350 N 
ATOM     23  C6  <0> d          -2.990  -2.822  -0.284  0.00  0.00     0.223 C 
ATOM     24  C10 <0> d          -4.367  -4.959  -0.227  0.00  0.00     0.136 C 
ATOM     25  O1  <0> d          -3.965  -2.133  -0.499  0.00  0.00    -0.273 OA
ATOM     26  C9  <0> d          -4.286  -5.976   0.920  0.00  0.00    -0.007 C 
ATOM     27  C14 <0> d          -4.831  -7.327   0.469  0.00  0.00     0.039 C 
ATOM     28  C11 <0> d          -5.066  -5.463   2.127  0.00  0.00     0.039 C 
ATOM     29  C13 <0> d          -6.331  -7.200   0.191  0.00  0.00     0.233 C 
ATOM     30  N2  <0> d          -7.021  -6.753   1.407  0.00  0.00    -0.075 N 
ATOM     31  C12 <0> d          -6.556  -5.412   1.781  0.00  0.00     0.233 C 
ATOM     32  H22 <0> d          -6.825  -7.397   2.159  0.00  0.00     0.277 HD
ATOM     33  H39 <0> d          -8.015  -6.729   1.238  0.00  0.00     0.277 HD
BRANCH  23  34
ATOM     34  C4  <0> d          -1.622  -2.194  -0.221  0.00  0.00     0.074 C 
ATOM     35  C5  <0> d          -1.330  -1.750   1.214  0.00  0.00     0.020 C 
BRANCH  34  36
ATOM     36  C3  <0> d          -1.575  -0.979  -1.149  0.00  0.00     0.013 C 
BRANCH  36  37
ATOM     37  C2  <0> d          -0.153  -0.415  -1.181  0.00  0.00    -0.004 C 
ATOM     38  C1  <0> d          -0.107   0.800  -2.110  0.00  0.00     0.005 C 
ENDBRANCH  36  37
ENDBRANCH  34  36
ENDBRANCH  23  34
ENDBRANCH  17  20
ENDBRANCH  15  16
ENDBRANCH  14  15
ENDBRANCH   1  14
TORSDOF 7
