REMARK  3 active torsions:
REMARK  status: ('A' for Active; 'I' for Inactive)
REMARK    1  A    between atoms: C8_10  and  C12_15 
REMARK    2  A    between atoms: C9_11  and  O3_14 
REMARK    3  A    between atoms: C12_15  and  N1_16 
ROOT
ATOM      1  C1  <0> d           0.974  -1.278  -0.127  0.00  0.00     0.049 C 
ATOM      2  C2  <0> d           1.203   0.210  -0.070  0.00  0.00    -0.043 A 
ATOM      3  C3  <0> d           0.161   1.080  -0.128  0.00  0.00     0.090 A 
ATOM      4  C4  <0> d           0.401   2.468  -0.073  0.00  0.00     0.288 A 
ATOM      5  O1  <0> d          -0.542   3.236  -0.131  0.00  0.00    -0.260 OA
ATOM      6  O2  <0> d           1.643   2.964   0.037  0.00  0.00    -0.274 OA
ATOM      7  C5  <0> d           2.723   2.155   0.100  0.00  0.00     0.099 A 
ATOM      8  C6  <0> d           2.555   0.759   0.050  0.00  0.00     0.005 A 
ATOM      9  C7  <0> d           3.671  -0.083   0.114  0.00  0.00     0.026 A 
ATOM     10  C8  <0> d           4.921   0.455   0.226  0.00  0.00     0.005 A 
ATOM     11  C9  <0> d           5.093   1.836   0.276  0.00  0.00     0.082 A 
ATOM     12  C10 <0> d           3.999   2.684   0.213  0.00  0.00     0.007 A 
ATOM     13  C11 <0> d           4.197   4.178   0.269  0.00  0.00     0.054 C 
ENDROOT
BRANCH  10  14
ATOM     14  C12 <0> d           6.123  -0.452   0.295  0.00  0.00     0.314 C 
BRANCH  14  15
ATOM     15  N1  <0> d           6.836  -0.420  -0.989  0.00  0.00     0.096 N 
ATOM     16  C16 <0> d           8.189  -0.977  -0.854  0.00  0.00     0.300 C 
ATOM     17  C15 <0> d           8.924  -0.853  -2.191  0.00  0.00     0.264 C 
ATOM     18  N2  <0> d           8.167  -1.561  -3.232  0.00  0.00    -0.072 N 
ATOM     19  C14 <0> d           6.814  -1.003  -3.366  0.00  0.00     0.264 C 
ATOM     20  C17 <0> d           8.880  -1.528  -4.516  0.00  0.00     0.269 C 
ATOM     21  H23 <0> d           8.072  -2.613  -2.926  0.00  0.00     0.279 HD
ATOM     22  C13 <0> d           6.078  -1.128  -2.030  0.00  0.00     0.300 C 
ENDBRANCH  14  15
ENDBRANCH  10  14
BRANCH  11  23
ATOM     23  O3  <0> d           6.342   2.356   0.386  0.00  0.00    -0.359 OA
ATOM     24  H9  <0> d           6.483   3.446   0.426  0.00  0.00     0.217 HD
ENDBRANCH  11  23
TORSDOF 3
