REMARK  5 active torsions:
REMARK  status: ('A' for Active; 'I' for Inactive)
REMARK    1  A    between atoms: C2_2  and  C3_3 
REMARK    2  A    between atoms: C5_6  and  N2_11 
REMARK    3  A    between atoms: C6_7  and  C7_8 
REMARK       I    between atoms: C7_8  and  N1_10 
REMARK       I    between atoms: N2_11  and  C8_12 
REMARK       I    between atoms: C8_12  and  N3_14 
REMARK    4  A    between atoms: N4_17  and  C13_20 
REMARK    5  A    between atoms: C13_20  and  C14_21 
ROOT
ATOM      1  N2  <0> d           3.985  -1.476  -2.757  0.00  0.00    -0.302 N 
ATOM      2  C8  <0> d           4.325  -1.904  -3.989  0.00  0.00     0.323 C 
ATOM      3  O2  <0> d           3.462  -2.112  -4.821  0.00  0.00    -0.247 OA
ATOM      4  N3  <0> d           5.621  -2.102  -4.300  0.00  0.00    -0.331 N 
ATOM      5  C9  <0> d           6.672  -1.974  -3.278  0.00  0.00     0.155 C 
ATOM      6  C10 <0> d           7.553  -3.226  -3.328  0.00  0.00     0.254 C 
ATOM      7  N4  <0> d           8.057  -3.415  -4.694  0.00  0.00    -0.068 N 
ATOM      8  C11 <0> d           6.938  -3.683  -5.607  0.00  0.00     0.254 C 
ATOM      9  C12 <0> d           6.026  -2.458  -5.668  0.00  0.00     0.155 C 
ATOM     10  H8  <0> d           4.664  -1.381  -2.072  0.00  0.00     0.171 HD
ATOM     11  H29 <0> d           8.540  -2.580  -4.992  0.00  0.00     0.280 HD
ENDROOT
BRANCH   1  12
ATOM     12  C5  <0> d           2.663  -1.172  -2.470  0.00  0.00     0.094 A 
ATOM     13  S1  <0> d           1.337  -1.265  -3.493  0.00  0.00    -0.076 SA
ATOM     14  C4  <0> d           0.050  -0.721  -2.391  0.00  0.00    -0.012 A 
ATOM     15  C3  <0> d           0.708  -0.481  -1.242  0.00  0.00    -0.027 A 
ATOM     16  C17 <0> d          -1.421  -0.566  -2.675  0.00  0.00     0.057 C 
ATOM     17  C6  <0> d           2.134  -0.717  -1.271  0.00  0.00     0.073 A 
BRANCH  15  18
ATOM     18  C2  <0> d           0.003   0.009  -0.003  0.00  0.00     0.036 C 
ATOM     19  C1  <0> d          -0.018   1.539  -0.000  0.00  0.00     0.010 C 
ENDBRANCH  15  18
BRANCH  17  20
ATOM     20  C7  <0> d           2.976  -0.493  -0.092  0.00  0.00     0.252 C 
ATOM     21  O1  <0> d           3.167  -1.396   0.701  0.00  0.00    -0.268 OA
ATOM     22  N1  <0> d           3.539   0.714   0.113  0.00  0.00    -0.366 N 
ATOM     23  H6  <0> d           3.387   1.435  -0.519  0.00  0.00     0.159 HD
ATOM     24  H7  <0> d           4.097   0.863   0.893  0.00  0.00     0.159 HD
ENDBRANCH  17  20
ENDBRANCH   1  12
BRANCH   7  25
ATOM     25  C13 <0> d           8.989  -4.550  -4.718  0.00  0.00     0.238 C 
BRANCH  25  26
ATOM     26  C14 <0> d           9.609  -4.671  -6.112  0.00  0.00     0.003 C 
ATOM     27  C15 <0> d          10.468  -3.437  -6.396  0.00  0.00     0.011 C 
ATOM     28  C16 <0> d          10.483  -5.925  -6.174  0.00  0.00     0.011 C 
ENDBRANCH  25  26
ENDBRANCH   7  25
TORSDOF 5
