REMARK  3 active torsions:
REMARK  status: ('A' for Active; 'I' for Inactive)
REMARK    1  A    between atoms: C5_5  and  C15_18 
REMARK    2  A    between atoms: C7_7  and  N1_8 
REMARK       I    between atoms: N1_8  and  C8_9 
REMARK    3  A    between atoms: C8_9  and  C9_11 
REMARK       I    between atoms: C15_18  and  N3_20 
ROOT
ATOM      1  N1  <0> d           0.025  -0.007   2.417  0.00  0.00    -0.326 N 
ATOM      2  C8  <0> d          -0.057  -0.683   3.581  0.00  0.00     0.232 C 
ATOM      3  O1  <0> d          -0.040  -1.895   3.580  0.00  0.00    -0.272 OA
ATOM      4  H7  <0> d           0.078   0.961   2.421  0.00  0.00     0.169 HD
ENDROOT
BRANCH   1   5
ATOM      5  C7  <0> d           0.033  -0.704   1.203  0.00  0.00     0.041 A 
ATOM      6  C2  <0> d          -0.585  -0.158   0.085  0.00  0.00    -0.035 A 
ATOM      7  C1  <0> d          -1.264   1.184   0.182  0.00  0.00     0.050 C 
ATOM      8  C3  <0> d          -0.575  -0.839  -1.118  0.00  0.00     0.010 A 
ATOM      9  C4  <0> d           0.045  -2.068  -1.215  0.00  0.00     0.017 A 
ATOM     10  C5  <0> d           0.665  -2.627  -0.096  0.00  0.00     0.034 A 
ATOM     11  C6  <0> d           0.655  -1.940   1.117  0.00  0.00     0.047 A 
BRANCH  10  12
ATOM     12  C15 <0> d           1.329  -3.944  -0.197  0.00  0.00     0.251 C 
ATOM     13  O2  <0> d           1.868  -4.429   0.778  0.00  0.00    -0.268 OA
ATOM     14  N3  <0> d           1.337  -4.607  -1.371  0.00  0.00    -0.361 N 
ATOM     15  C16 <0> d           1.996  -5.912  -1.471  0.00  0.00     0.149 C 
ATOM     16  H20 <0> d           0.907  -4.220  -2.149  0.00  0.00     0.162 HD
ENDBRANCH  10  12
ENDBRANCH   1   5
BRANCH   2  17
ATOM     17  C9  <0> d          -0.168   0.069   4.882  0.00  0.00     0.061 C 
ATOM     18  C13 <0> d          -0.245  -0.926   6.042  0.00  0.00     0.251 C 
ATOM     19  N2  <0> d           0.966  -1.756   6.061  0.00  0.00    -0.074 N 
ATOM     20  C12 <0> d           2.143  -0.914   6.306  0.00  0.00     0.232 C 
ATOM     21  H14 <0> d           1.066  -2.222   5.171  0.00  0.00     0.277 HD
ATOM     22  H24 <0> d           0.888  -2.446   6.793  0.00  0.00     0.277 HD
ATOM     23  C11 <0> d           2.312   0.081   5.156  0.00  0.00     0.029 C 
ATOM     24  C10 <0> d           1.063   0.962   5.064  0.00  0.00     0.022 C 
ATOM     25  C14 <0> d          -1.430   0.934   4.866  0.00  0.00     0.027 C 
ENDBRANCH   2  17
TORSDOF 3
