REMARK  0 active torsions:
REMARK  status: ('A' for Active; 'I' for Inactive)
ROOT
ATOM      1  C1  <0> d          -0.019   1.526   0.010  0.00  0.00     0.042 C 
ATOM      2  C2  <0> d           0.002  -0.004   0.002  0.00  0.00     0.142 C 
ATOM      3  C3  <0> d           0.725  -0.501  -1.257  0.00  0.00     0.151 C 
ATOM      4  N1  <0> d           0.710  -1.974  -1.234  0.00  0.00    -0.385 N 
ATOM      5  C4  <0> d           1.021  -2.596  -0.041  0.00  0.00     0.072 A 
ATOM      6  C5  <0> d           1.359  -3.912  -0.028  0.00  0.00     0.021 A 
ATOM      7  C6  <0> d           1.646  -4.555   1.196  0.00  0.00     0.230 A 
ATOM      8  O1  <0> d           1.960  -5.729   1.218  0.00  0.00    -0.283 OA
ATOM      9  C7  <0> d           1.557  -3.767   2.468  0.00  0.00     0.231 A 
ATOM     10  O2  <0> d           1.772  -4.301   3.538  0.00  0.00    -0.283 OA
ATOM     11  C8  <0> d           1.219  -2.393   2.407  0.00  0.00     0.028 A 
ATOM     12  C9  <0> d           0.971  -1.807   1.210  0.00  0.00     0.106 A 
ATOM     13  O3  <0> d           0.698  -0.480   1.157  0.00  0.00    -0.342 OA
ATOM     14  C10 <0> d           1.136  -1.581   3.674  0.00  0.00     0.056 C 
ATOM     15  C11 <0> d           1.430  -4.685  -1.319  0.00  0.00     0.055 C 
ATOM     16  H7  <0> d           0.490  -2.487  -2.028  0.00  0.00     0.159 HD
ENDROOT
TORSDOF 0
