REMARK  3 active torsions:
REMARK  status: ('A' for Active; 'I' for Inactive)
REMARK    1  A    between atoms: C4_4  and  N2_19 
REMARK    2  A    between atoms: C5_5  and  S1_9 
REMARK    3  A    between atoms: S1_9  and  N1_12 
ROOT
ATOM      1  C1  <0> d          -0.330   1.571   0.122  0.00  0.00     0.049 C 
ATOM      2  C2  <0> d          -0.241   0.068   0.061  0.00  0.00    -0.054 A 
ATOM      3  C3  <0> d           0.036  -0.559  -1.138  0.00  0.00     0.038 A 
ATOM      4  C4  <0> d           0.118  -1.945  -1.193  0.00  0.00     0.049 A 
ATOM      5  C5  <0> d          -0.079  -2.695  -0.041  0.00  0.00     0.106 A 
ATOM      6  C6  <0> d          -0.355  -2.062   1.155  0.00  0.00     0.035 A 
ATOM      7  C7  <0> d          -0.431  -0.682   1.207  0.00  0.00    -0.054 A 
ATOM      8  C8  <0> d          -0.727   0.005   2.515  0.00  0.00     0.049 C 
ENDROOT
BRANCH   5   9
ATOM      9  S1  <0> d           0.024  -4.453  -0.105  0.00  0.00     0.263 S 
ATOM     10  O1  <0> d           1.194  -4.765  -0.849  0.00  0.00    -0.200 OA
ATOM     11  O2  <0> d          -0.182  -4.921   1.221  0.00  0.00    -0.200 OA
BRANCH   9  12
ATOM     12  N1  <0> d          -1.263  -4.986  -1.000  0.00  0.00    -0.305 N 
ATOM     13  C12 <0> d          -1.081  -5.285  -2.422  0.00  0.00     0.148 C 
ATOM     14  C11 <0> d          -1.890  -4.299  -3.264  0.00  0.00     0.129 C 
ATOM     15  S2  <0> d          -3.634  -4.396  -2.759  0.00  0.00     0.018 S 
ATOM     16  C10 <0> d          -3.558  -4.140  -0.960  0.00  0.00     0.129 C 
ATOM     17  O3  <0> d          -4.361  -3.333  -3.359  0.00  0.00    -0.258 OA
ATOM     18  C9  <0> d          -2.570  -5.147  -0.362  0.00  0.00     0.148 C 
ENDBRANCH   9  12
ENDBRANCH   5   9
BRANCH   4  19
ATOM     19  N2  <0> d           0.398  -2.582  -2.404  0.00  0.00    -0.398 N 
ATOM     20  H17 <0> d           0.449  -2.065  -3.224  0.00  0.00     0.156 HD
ATOM     21  H18 <0> d           0.542  -3.541  -2.426  0.00  0.00     0.156 HD
ENDBRANCH   4  19
TORSDOF 3
