REMARK  6 active torsions:
REMARK  status: ('A' for Active; 'I' for Inactive)
REMARK    1  A    between atoms: C4_4  and  C7_7 
REMARK    2  A    between atoms: C8_10  and  S1_13 
REMARK    3  A    between atoms: N3_11  and  N4_12 
REMARK    4  A    between atoms: S1_13  and  C9_14 
REMARK    5  A    between atoms: C9_14  and  C10_15 
REMARK       I    between atoms: C10_15  and  N5_17 
REMARK    6  A    between atoms: N5_17  and  C11_18 
ROOT
ATOM      1  C7  <0> d          -1.716  10.141  -0.537  0.00  0.00     0.179 A 
ATOM      2  N1  <0> d          -0.451   9.840  -0.358  0.00  0.00    -0.127 NA
ATOM      3  N2  <0> d          -0.304   8.564  -0.322  0.00  0.00    -0.121 NA
ATOM      4  C8  <0> d          -1.466   7.971  -0.484  0.00  0.00     0.206 A 
ATOM      5  N3  <0> d          -2.405   8.953  -0.623  0.00  0.00    -0.235 N 
ENDROOT
BRANCH   4   6
ATOM      6  S1  <0> d          -1.760   6.234  -0.509  0.00  0.00    -0.080 SA
BRANCH   6   7
ATOM      7  C9  <0> d          -0.071   5.627  -0.269  0.00  0.00     0.185 C 
BRANCH   7   8
ATOM      8  C10 <0> d          -0.076   4.120  -0.256  0.00  0.00     0.231 C 
ATOM      9  O1  <0> d          -1.119   3.516  -0.396  0.00  0.00    -0.272 OA
ATOM     10  N5  <0> d           1.077   3.444  -0.090  0.00  0.00    -0.325 N 
ATOM     11  H10 <0> d           1.898   3.924   0.100  0.00  0.00     0.169 HD
BRANCH  10  12
ATOM     12  C11 <0> d           1.091   2.048  -0.192  0.00  0.00     0.058 A 
ATOM     13  C16 <0> d           2.081   1.313   0.449  0.00  0.00     0.082 A 
ATOM     14  C15 <0> d           2.091  -0.067   0.346  0.00  0.00     0.058 A 
ATOM     15 Cl1  <0> d           3.304   2.125   1.376  0.00  0.00    -0.080 Cl
ATOM     16  C14 <0> d           1.117  -0.713  -0.393  0.00  0.00     0.026 A 
ATOM     17 Cl2  <0> d           3.328  -0.987   1.145  0.00  0.00    -0.082 Cl
ATOM     18  C13 <0> d           0.131   0.017  -1.031  0.00  0.00     0.004 A 
ATOM     19  C12 <0> d           0.115   1.394  -0.932  0.00  0.00     0.031 A 
ENDBRANCH  10  12
ENDBRANCH   7   8
ENDBRANCH   6   7
ENDBRANCH   4   6
BRANCH   5  20
ATOM     20  N4  <0> d          -3.749   8.790  -0.809  0.00  0.00    -0.239 NA
ATOM     21  H6  <0> d          -4.245   8.849   0.068  0.00  0.00     0.143 HD
ATOM     22  H7  <0> d          -4.106   9.462  -1.472  0.00  0.00     0.143 HD
ENDBRANCH   5  20
BRANCH   1  23
ATOM     23  C4  <0> d          -2.292  11.500  -0.628  0.00  0.00     0.013 A 
ATOM     24  C3  <0> d          -3.665  11.691  -0.472  0.00  0.00     0.015 A 
ATOM     25  C2  <0> d          -4.196  12.961  -0.559  0.00  0.00     0.001 A 
ATOM     26  C1  <0> d          -3.370  14.045  -0.800  0.00  0.00     0.000 A 
ATOM     27  C6  <0> d          -2.007  13.862  -0.956  0.00  0.00     0.001 A 
ATOM     28  C5  <0> d          -1.463  12.598  -0.866  0.00  0.00     0.015 A 
ENDBRANCH   1  23
TORSDOF 6
