REMARK  3 active torsions:
REMARK  status: ('A' for Active; 'I' for Inactive)
REMARK    1  A    between atoms: C2_2  and  C13_20 
REMARK    2  A    between atoms: N1_5  and  C5_9 
REMARK    3  A    between atoms: C5_9  and  N3_10 
ROOT
ATOM      1  C1  <0> d          -0.019   1.526   0.010  0.00  0.00     0.055 C 
ATOM      2  C2  <0> d           0.002  -0.004   0.002  0.00  0.00     0.146 A 
ATOM      3  C3  <0> d           0.799  -0.520  -1.180  0.00  0.00     0.262 A 
ATOM      4  O1  <0> d           0.564  -0.342  -2.356  0.00  0.00    -0.270 OA
ATOM      5  N1  <0> d           1.824  -1.217  -0.651  0.00  0.00    -0.239 N 
ATOM      6  C4  <0> d           1.786  -1.214   0.686  0.00  0.00     0.328 A 
ATOM      7  O2  <0> d           2.604  -1.776   1.387  0.00  0.00    -0.247 OA
ATOM      8  N2  <0> d           0.740  -0.519   1.169  0.00  0.00    -0.320 N 
ATOM      9  H4  <0> d           0.515  -0.383   2.102  0.00  0.00     0.165 HD
ENDROOT
BRANCH   5  10
ATOM     10  C5  <0> d           2.853  -1.896  -1.443  0.00  0.00     0.409 C 
BRANCH  10  11
ATOM     11  N3  <0> d           3.969  -0.974  -1.690  0.00  0.00     0.106 N 
ATOM     12  C10 <0> d           4.704  -1.350  -2.904  0.00  0.00     0.280 C 
ATOM     13  C9  <0> d           5.761  -0.286  -3.212  0.00  0.00     0.099 C 
ATOM     14  C8  <0> d           6.717  -0.167  -2.023  0.00  0.00     0.167 C 
ATOM     15  C7  <0> d           5.924   0.172  -0.759  0.00  0.00     0.099 C 
ATOM     16  O4  <0> d           7.413  -1.405  -1.839  0.00  0.00    -0.353 OA
ATOM     17  O3  <0> d           7.675   0.872  -2.281  0.00  0.00    -0.353 OA
ATOM     18  C6  <0> d           4.862  -0.906  -0.526  0.00  0.00     0.280 C 
ATOM     19  C12 <0> d           8.822  -1.127  -1.970  0.00  0.00     0.197 C 
ATOM     20  C11 <0> d           8.907   0.395  -1.689  0.00  0.00     0.197 C 
ENDBRANCH  10  11
ENDBRANCH   5  10
BRANCH   2  21
ATOM     21  C13 <0> d          -1.402  -0.552  -0.021  0.00  0.00     0.021 A 
ATOM     22  S1  <0> d          -2.423  -0.967  -1.426  0.00  0.00    -0.080 SA
ATOM     23  C16 <0> d          -3.866  -1.522  -0.533  0.00  0.00     0.075 A 
ATOM     24  C15 <0> d          -3.482  -1.348   0.757  0.00  0.00     0.032 A 
ATOM     25 Cl1  <0> d          -5.372  -2.121  -1.153  0.00  0.00    -0.076 Cl
ATOM     26  C14 <0> d          -2.218  -0.851   1.018  0.00  0.00     0.020 A 
ENDBRANCH   2  21
TORSDOF 3
