REMARK  5 active torsions:
REMARK  status: ('A' for Active; 'I' for Inactive)
REMARK    1  A    between atoms: N1_2  and  C2_3 
REMARK    2  A    between atoms: N1_2  and  C7_9 
REMARK    3  A    between atoms: C2_3  and  C3_4 
REMARK    4  A    between atoms: N2_12  and  C12_15 
REMARK    5  A    between atoms: C16_19  and  C18_21 
ROOT
ATOM      1  C7  <0> d          -0.764   3.110   1.262  0.00  0.00     0.190 C 
ATOM      2  C8  <0> d          -0.729   1.579   1.267  0.00  0.00     0.048 C 
ATOM      3  C9  <0> d          -0.013   1.086   0.008  0.00  0.00     0.098 C 
ATOM      4  N2  <0> d          -0.723   1.572  -1.182  0.00  0.00    -0.283 NA
ATOM      5  C10 <0> d          -0.729   3.040  -1.234  0.00  0.00     0.098 C 
ATOM      6  C11 <0> d          -1.466   3.591  -0.011  0.00  0.00     0.048 C 
ENDROOT
BRANCH   4   7
ATOM      7  C12 <0> d          -0.174   1.032  -2.348  0.00  0.00     0.011 A 
ATOM      8  C17 <0> d          -0.708   1.364  -3.584  0.00  0.00     0.037 A 
ATOM      9  C16 <0> d          -0.152   0.827  -4.744  0.00  0.00    -0.006 A 
ATOM     10  C15 <0> d           0.929  -0.049  -4.654  0.00  0.00     0.014 A 
ATOM     11  C14 <0> d           1.450  -0.378  -3.419  0.00  0.00     0.003 A 
ATOM     12  C13 <0> d           0.905   0.158  -2.268  0.00  0.00     0.024 A 
BRANCH   9  13
ATOM     13  C18 <0> d          -0.713   1.181  -6.067  0.00  0.00     0.061 A 
ATOM     14  N4  <0> d          -1.762   2.019  -6.302  0.00  0.00    -0.278 N 
ATOM     15  N3  <0> d          -1.962   2.074  -7.688  0.00  0.00    -0.187 NA
ATOM     16  H1  <0> d          -2.276   2.506  -5.460  0.00  0.00     0.189 HD
ATOM     17  C20 <0> d          -1.075   1.304  -8.266  0.00  0.00     0.141 A 
ATOM     18  C19 <0> d          -0.272   0.732  -7.280  0.00  0.00     0.053 A 
ENDBRANCH   9  13
ENDBRANCH   4   7
BRANCH   1  19
ATOM     19  N1  <0> d          -1.501   3.588   2.439  0.00  0.00    -0.067 N 
ATOM     20  C1  <0> d          -1.643   5.050   2.413  0.00  0.00     0.270 C 
ATOM     21  H25 <0> d          -2.510   3.150   2.408  0.00  0.00     0.280 HD
BRANCH  19  22
ATOM     22  C2  <0> d          -0.855   3.144   3.681  0.00  0.00     0.275 C 
BRANCH  22  23
ATOM     23  C3  <0> d          -1.759   3.437   4.851  0.00  0.00    -0.008 A 
ATOM     24  C6  <0> d          -2.697   2.620   5.363  0.00  0.00     0.150 A 
ATOM     25  O1  <0> d          -3.285   3.245   6.396  0.00  0.00    -0.334 OA
ATOM     26  C5  <0> d          -2.736   4.460   6.556  0.00  0.00     0.142 A 
ATOM     27  C4  <0> d          -1.780   4.620   5.624  0.00  0.00     0.035 A 
ENDBRANCH  22  23
ENDBRANCH  19  22
ENDBRANCH   1  19
TORSDOF 5
