REMARK  7 active torsions:
REMARK  status: ('A' for Active; 'I' for Inactive)
REMARK    1  A    between atoms: C8_8  and  C10_13 
REMARK    2  A    between atoms: C10_13  and  N2_14 
REMARK       I    between atoms: N2_14  and  C11_15 
REMARK    3  A    between atoms: C11_15  and  C12_17 
REMARK    4  A    between atoms: C12_17  and  C13_18 
REMARK    5  A    between atoms: C13_18  and  C14_19 
REMARK    6  A    between atoms: C14_19  and  C15_20 
REMARK    7  A    between atoms: C15_20  and  C16_22 
ROOT
ATOM      1  N2  <0> d           2.728  -4.722  -1.426  0.00  0.00    -0.357 N 
ATOM      2  C11 <0> d           2.829  -6.042  -1.679  0.00  0.00     0.217 C 
ATOM      3  O2  <0> d           2.807  -6.838  -0.765  0.00  0.00    -0.274 OA
ATOM      4  H9  <0> d           2.746  -4.085  -2.157  0.00  0.00     0.162 HD
ENDROOT
BRANCH   1   5
ATOM      5  C10 <0> d           2.591  -4.249  -0.046  0.00  0.00     0.166 C 
BRANCH   5   6
ATOM      6  C8  <0> d           2.498  -2.745  -0.037  0.00  0.00     0.028 A 
ATOM      7  C7  <0> d           1.283  -2.144  -0.022  0.00  0.00     0.028 A 
ATOM      8  C5  <0> d           1.226  -0.681  -0.013  0.00  0.00    -0.009 A 
ATOM      9  C4  <0> d           2.430   0.048  -0.021  0.00  0.00     0.045 A 
ATOM     10  C6  <0> d           0.002  -0.004   0.002  0.00  0.00     0.014 A 
ATOM     11  C3  <0> d           2.386   1.439  -0.013  0.00  0.00     0.030 A 
ATOM     12  N1  <0> d           3.634  -0.624  -0.036  0.00  0.00    -0.322 N 
ATOM     13  C2  <0> d           1.169   2.084   0.002  0.00  0.00     0.002 A 
ATOM     14  C1  <0> d          -0.016   1.362   0.009  0.00  0.00     0.001 A 
ATOM     15  C9  <0> d           3.676  -1.967  -0.044  0.00  0.00     0.253 A 
ATOM     16  H1  <0> d           4.463  -0.119  -0.042  0.00  0.00     0.169 HD
ATOM     17  O1  <0> d           4.758  -2.528  -0.058  0.00  0.00    -0.268 OA
ENDBRANCH   5   6
ENDBRANCH   1   5
BRANCH   2  18
ATOM     18  C12 <0> d           2.970  -6.528  -3.099  0.00  0.00     0.103 C 
BRANCH  18  19
ATOM     19  C13 <0> d           3.065  -8.055  -3.108  0.00  0.00     0.017 C 
BRANCH  19  20
ATOM     20  C14 <0> d           3.208  -8.548  -4.549  0.00  0.00     0.085 C 
BRANCH  20  21
ATOM     21  C15 <0> d           3.301 -10.052  -4.558  0.00  0.00     0.166 C 
ATOM     22  O3  <0> d           3.257 -10.670  -3.513  0.00  0.00    -0.292 OA
BRANCH  21  23
ATOM     23  C16 <0> d           3.439 -10.744  -5.782  0.00  0.00     0.050 A 
ATOM     24  S1  <0> d           3.527 -10.091  -7.438  0.00  0.00    -0.098 SA
ATOM     25  C19 <0> d           3.686 -11.533  -8.285  0.00  0.00     0.050 A 
ATOM     26  C18 <0> d           3.663 -12.490  -7.322  0.00  0.00     0.009 A 
ATOM     27  C17 <0> d           3.535 -12.114  -6.009  0.00  0.00     0.023 A 
ENDBRANCH  21  23
ENDBRANCH  20  21
ENDBRANCH  19  20
ENDBRANCH  18  19
ENDBRANCH   2  18
TORSDOF 7
