REMARK  5 active torsions:
REMARK  status: ('A' for Active; 'I' for Inactive)
REMARK    1  A    between atoms: C2_2  and  C4_4 
REMARK    2  A    between atoms: C5_6  and  C7_9 
REMARK       I    between atoms: C7_9  and  N2_11 
REMARK    3  A    between atoms: N2_11  and  C8_12 
REMARK    4  A    between atoms: C11_15  and  N4_18 
REMARK       I    between atoms: N4_18  and  C13_19 
REMARK    5  A    between atoms: C13_19  and  C14_21 
ROOT
ATOM      1  C8  <0> d          -0.977  -3.680   5.447  0.00  0.00     0.052 A 
ATOM      2  C9  <0> d          -2.259  -4.221   5.530  0.00  0.00     0.035 A 
ATOM      3  C10 <0> d          -2.596  -4.945   6.659  0.00  0.00     0.053 A 
ATOM      4  C11 <0> d          -1.652  -5.108   7.666  0.00  0.00     0.129 A 
ATOM      5  N3  <0> d          -0.444  -4.581   7.553  0.00  0.00    -0.241 NA
ATOM      6  C12 <0> d          -0.086  -3.890   6.488  0.00  0.00     0.148 A 
ENDROOT
BRANCH   1   7
ATOM      7  N2  <0> d          -0.592  -2.940   4.322  0.00  0.00    -0.320 N 
ATOM      8  C7  <0> d          -1.488  -2.152   3.694  0.00  0.00     0.275 C 
ATOM      9  O1  <0> d          -2.651  -2.150   4.051  0.00  0.00    -0.266 OA
ATOM     10  H9  <0> d           0.320  -2.993   3.995  0.00  0.00     0.169 HD
BRANCH   8  11
ATOM     11  C5  <0> d          -1.059  -1.296   2.576  0.00  0.00     0.132 A 
ATOM     12  N1  <0> d           0.208  -1.268   2.151  0.00  0.00    -0.240 NA
ATOM     13  C4  <0> d           0.511  -0.482   1.154  0.00  0.00     0.079 A 
ATOM     14  S1  <0> d          -0.947   0.255   0.767  0.00  0.00    -0.084 SA
ATOM     15  C6  <0> d          -1.935  -0.481   1.910  0.00  0.00     0.089 A 
BRANCH  13  16
ATOM     16  C2  <0> d           1.856  -0.280   0.505  0.00  0.00     0.037 C 
ATOM     17  C1  <0> d           1.769  -0.653  -0.977  0.00  0.00     0.016 C 
ATOM     18  C3  <0> d           2.271   1.187   0.637  0.00  0.00     0.016 C 
ENDBRANCH  13  16
ENDBRANCH   8  11
ENDBRANCH   1   7
BRANCH   4  19
ATOM     19  N4  <0> d          -1.982  -5.837   8.810  0.00  0.00    -0.311 N 
ATOM     20  C13 <0> d          -1.110  -5.915   9.835  0.00  0.00     0.227 C 
ATOM     21  O2  <0> d          -0.004  -5.431   9.727  0.00  0.00    -0.273 OA
ATOM     22  H13 <0> d          -2.840  -6.287   8.867  0.00  0.00     0.170 HD
BRANCH  20  23
ATOM     23  C14 <0> d          -1.510  -6.605  11.113  0.00  0.00     0.078 A 
ATOM     24  C16 <0> d          -0.476  -6.660  12.239  0.00  0.00     0.015 A 
ATOM     25  C15 <0> d          -1.688  -5.735  12.359  0.00  0.00     0.015 A 
ENDBRANCH  20  23
ENDBRANCH   4  19
TORSDOF 5
