REMARK  4 active torsions:
REMARK  status: ('A' for Active; 'I' for Inactive)
REMARK    1  A    between atoms: C3_3  and  C10_14 
REMARK       I    between atoms: C10_14  and  N4_16 
REMARK    2  A    between atoms: N4_16  and  C11_17 
REMARK    3  A    between atoms: C11_17  and  C12_18 
REMARK    4  A    between atoms: C11_17  and  C16_23 
ROOT
ATOM      1  C1  <0> d          -0.018   1.503   0.010  0.00  0.00     0.078 C 
ATOM      2  C2  <0> d           0.002  -0.004   0.002  0.00  0.00     0.068 A 
ATOM      3  C3  <0> d          -1.099  -0.808   0.003  0.00  0.00     0.079 A 
ATOM      4  C4  <0> d          -0.578  -2.182  -0.007  0.00  0.00     0.079 A 
ATOM      5  C5  <0> d           0.798  -2.069  -0.013  0.00  0.00     0.164 A 
ATOM      6  O1  <0> d           1.106  -0.765  -0.013  0.00  0.00    -0.296 OA
ATOM      7  N1  <0> d           1.544  -3.223  -0.022  0.00  0.00    -0.332 N 
ATOM      8  C6  <0> d           0.939  -4.432  -0.026  0.00  0.00     0.186 A 
ATOM      9  N2  <0> d          -0.357  -4.588  -0.021  0.00  0.00    -0.326 N 
ATOM     10  C7  <0> d          -1.190  -3.523  -0.011  0.00  0.00     0.141 A 
ATOM     11  N3  <0> d          -2.464  -3.852  -0.007  0.00  0.00    -0.270 NA
ATOM     12  C8  <0> d          -2.611  -5.311  -0.015  0.00  0.00     0.171 A 
ATOM     13  C9  <0> d          -1.160  -5.824  -0.025  0.00  0.00     0.153 A 
ATOM     14  H21 <0> d           2.512  -3.170  -0.026  0.00  0.00     0.168 HD
ENDROOT
BRANCH   3  15
ATOM     15  C10 <0> d          -2.510  -0.388   0.012  0.00  0.00     0.255 C 
ATOM     16  O2  <0> d          -3.098  -0.209  -1.037  0.00  0.00    -0.268 OA
ATOM     17  N4  <0> d          -3.150  -0.202   1.183  0.00  0.00    -0.347 N 
ATOM     18  H10 <0> d          -2.681  -0.345   2.020  0.00  0.00     0.163 HD
BRANCH  17  19
ATOM     19  C11 <0> d          -4.554   0.215   1.193  0.00  0.00     0.128 C 
BRANCH  19  20
ATOM     20  C12 <0> d          -5.200  -0.224   2.481  0.00  0.00     0.005 A 
ATOM     21  S1  <0> d          -4.531  -0.210   4.136  0.00  0.00    -0.104 SA
ATOM     22  C15 <0> d          -5.950  -0.881   4.987  0.00  0.00     0.050 A 
ATOM     23  C14 <0> d          -6.822  -1.074   3.968  0.00  0.00     0.008 A 
ATOM     24  C13 <0> d          -6.438  -0.737   2.684  0.00  0.00     0.017 A 
ENDBRANCH  19  20
BRANCH  19  25
ATOM     25  C16 <0> d          -4.634   1.739   1.075  0.00  0.00     0.005 C 
ATOM     26  C17 <0> d          -6.101   2.175   1.085  0.00  0.00     0.012 C 
ATOM     27  C18 <0> d          -3.904   2.380   2.257  0.00  0.00     0.012 C 
ENDBRANCH  19  25
ENDBRANCH  17  19
ENDBRANCH   3  15
TORSDOF 4
