REMARK  1 active torsions:
REMARK  status: ('A' for Active; 'I' for Inactive)
REMARK    1  A    between atoms: C5_6  and  C6_7 
ROOT
ATOM      1  C6  <0> d          -1.282  -0.793   0.011  0.00  0.00     0.357 C 
ATOM      2  N2  <0> d          -1.043  -2.071   0.657  0.00  0.00     0.126 N 
ATOM      3  C7  <0> d          -2.238  -2.812   1.026  0.00  0.00     0.306 C 
ATOM      4  C8  <0> d          -3.182  -1.983   1.906  0.00  0.00     0.151 C 
ATOM      5  C9  <0> d          -2.854  -2.116   3.379  0.00  0.00    -0.051 C 
ATOM      6  C10 <0> d          -2.129  -3.159   3.744  0.00  0.00    -0.016 C 
ATOM      7  S1  <0> d          -1.767  -4.111   2.247  0.00  0.00    -0.097 SA
ATOM      8  C11 <0> d          -1.879  -3.189   5.233  0.00  0.00     0.046 C 
ATOM      9  C12 <0> d          -2.188  -1.752   5.705  0.00  0.00     0.009 C 
ATOM     10  C13 <0> d          -3.184  -1.287   4.626  0.00  0.00     0.036 C 
ATOM     11  C14 <0> d          -3.197  -0.544   1.506  0.00  0.00     0.230 C 
ATOM     12  O1  <0> d          -4.048   0.179   1.978  0.00  0.00    -0.273 OA
ATOM     13  N3  <0> d          -2.308  -0.013   0.682  0.00  0.00    -0.327 N 
ATOM     14  H8  <0> d          -0.418  -2.643   0.110  0.00  0.00     0.320 HD
ATOM     15  H15 <0> d          -2.359   0.939   0.501  0.00  0.00     0.165 HD
ENDROOT
BRANCH   1  16
ATOM     16  C5  <0> d           0.002  -0.004   0.002  0.00  0.00    -0.003 A 
ATOM     17  C1  <0> d          -0.017   1.382   0.010  0.00  0.00     0.030 A 
ATOM     18  C2  <0> d           1.181   2.072   0.002  0.00  0.00     0.117 A 
ATOM     19  N1  <0> d           2.331   1.427  -0.013  0.00  0.00    -0.273 NA
ATOM     20  C3  <0> d           2.387   0.109  -0.021  0.00  0.00     0.117 A 
ATOM     21  C4  <0> d           1.230  -0.647  -0.013  0.00  0.00     0.030 A 
ENDBRANCH   1  16
TORSDOF 1
