REMARK  5 active torsions:
REMARK  status: ('A' for Active; 'I' for Inactive)
REMARK    1  A    between atoms: C2_2  and  O1_3 
REMARK    2  A    between atoms: O1_3  and  C3_4 
REMARK    3  A    between atoms: C6_7  and  N1_10 
REMARK       I    between atoms: N1_10  and  C9_11 
REMARK    4  A    between atoms: C9_11  and  C10_13 
REMARK    5  A    between atoms: C13_19  and  C14_20 
ROOT
ATOM      1  C10 <0> d          -0.634   2.405   1.583  0.00  0.00     0.059 A 
ATOM      2  C11 <0> d           0.030   3.575   1.677  0.00  0.00     0.024 A 
ATOM      3  N2  <0> d           1.356   3.662   1.357  0.00  0.00    -0.312 N 
ATOM      4  C12 <0> d           2.087   2.623   0.934  0.00  0.00     0.321 A 
ATOM      5  O3  <0> d           3.261   2.797   0.671  0.00  0.00    -0.247 OA
ATOM      6  N3  <0> d           1.562   1.389   0.789  0.00  0.00    -0.330 N 
ATOM      7  C13 <0> d           0.139   1.191   1.109  0.00  0.00     0.162 A 
ATOM      8  C20 <0> d          -0.701   4.808   2.144  0.00  0.00     0.069 C 
ATOM      9  H12 <0> d           1.792   4.524   1.440  0.00  0.00     0.170 HD
ATOM     10  H13 <0> d           2.110   0.650   0.480  0.00  0.00     0.165 HD
ENDROOT
BRANCH   1  11
ATOM     11  C9  <0> d          -2.009   2.314   1.915  0.00  0.00     0.256 C 
ATOM     12  N1  <0> d          -2.936   2.847   1.095  0.00  0.00    -0.323 N 
ATOM     13  H11 <0> d          -2.674   3.201   0.231  0.00  0.00     0.169 HD
ATOM     14  O2  <0> d          -2.351   1.755   2.941  0.00  0.00    -0.267 OA
BRANCH  12  15
ATOM     15  C6  <0> d          -4.279   2.890   1.492  0.00  0.00     0.035 A 
ATOM     16  C5  <0> d          -5.085   3.951   1.102  0.00  0.00     0.032 A 
ATOM     17  C4  <0> d          -6.408   3.993   1.493  0.00  0.00     0.039 A 
ATOM     18  C3  <0> d          -6.933   2.974   2.275  0.00  0.00     0.068 A 
ATOM     19  C8  <0> d          -6.129   1.913   2.664  0.00  0.00     0.039 A 
ATOM     20  C7  <0> d          -4.806   1.867   2.269  0.00  0.00     0.032 A 
BRANCH  18  21
ATOM     21  O1  <0> d          -8.237   3.015   2.658  0.00  0.00    -0.352 OA
BRANCH  21  22
ATOM     22  C2  <0> d          -8.711   1.933   3.462  0.00  0.00     0.171 C 
ATOM     23  C1  <0> d         -10.189   2.152   3.793  0.00  0.00     0.034 C 
ENDBRANCH  21  22
ENDBRANCH  18  21
ENDBRANCH  12  15
ENDBRANCH   1  11
BRANCH   7  24
ATOM     24  C14 <0> d          -0.545   0.658  -0.123  0.00  0.00    -0.009 A 
ATOM     25  C19 <0> d          -1.453  -0.380  -0.016  0.00  0.00     0.042 A 
ATOM     26  C18 <0> d          -2.085  -0.866  -1.148  0.00  0.00     0.024 A 
ATOM     27 Cl1  <0> d          -1.806  -1.069   1.538  0.00  0.00    -0.084 Cl
ATOM     28  C17 <0> d          -1.799  -0.321  -2.385  0.00  0.00     0.002 A 
ATOM     29  C16 <0> d          -0.887   0.712  -2.492  0.00  0.00     0.001 A 
ATOM     30  C15 <0> d          -0.260   1.202  -1.362  0.00  0.00     0.011 A 
ENDBRANCH   7  24
TORSDOF 5
