REMARK  5 active torsions:
REMARK  status: ('A' for Active; 'I' for Inactive)
REMARK    1  A    between atoms: C4_4  and  C7_7 
REMARK    2  A    between atoms: C7_7  and  N1_8 
REMARK       I    between atoms: N1_8  and  C8_9 
REMARK    3  A    between atoms: C8_9  and  C9_11 
REMARK    4  A    between atoms: N4_24  and  C20_27 
REMARK    5  A    between atoms: C20_27  and  C21_28 
ROOT
ATOM      1  C9  <0> d           3.518   2.775   1.093  0.00  0.00     0.076 A 
ATOM      2  C10 <0> d           4.005   2.986  -0.190  0.00  0.00     0.042 A 
ATOM      3  C11 <0> d           3.182   2.715  -1.293  0.00  0.00     0.080 A 
ATOM      4  C12 <0> d           1.867   2.230  -1.111  0.00  0.00     0.149 A 
ATOM      5  N2  <0> d           1.113   1.984  -2.174  0.00  0.00    -0.212 NA
ATOM      6  C13 <0> d           1.564   2.182  -3.413  0.00  0.00     0.139 A 
ATOM      7  C14 <0> d           0.717   1.900  -4.501  0.00  0.00     0.051 A 
ATOM      8  C15 <0> d           1.167   2.098  -5.772  0.00  0.00     0.005 A 
ATOM      9  C16 <0> d           2.467   2.578  -5.980  0.00  0.00     0.018 A 
ATOM     10  C17 <0> d           3.268   2.843  -4.923  0.00  0.00     0.102 A 
ATOM     11  N3  <0> d           2.828   2.648  -3.648  0.00  0.00    -0.273 N 
ATOM     12  C18 <0> d           3.655   2.922  -2.615  0.00  0.00     0.267 A 
ATOM     13  O2  <0> d           4.782   3.338  -2.814  0.00  0.00    -0.267 OA
ATOM     14  N4  <0> d           1.371   2.015   0.151  0.00  0.00    -0.312 N 
ATOM     15  C19 <0> d           2.145   2.274   1.262  0.00  0.00     0.118 A 
ATOM     16  N5  <0> d           1.663   2.071   2.462  0.00  0.00    -0.384 N 
ATOM     17  H14 <0> d           0.636   1.697   2.586  0.00  0.00     0.157 HD
ATOM     18  H22 <0> d           2.284   2.275   3.346  0.00  0.00     0.157 HD
ENDROOT
BRANCH   1  19
ATOM     19  C8  <0> d           4.359   3.051   2.263  0.00  0.00     0.255 C 
ATOM     20  N1  <0> d           5.650   3.403   2.097  0.00  0.00    -0.353 N 
ATOM     21  H8  <0> d           6.072   3.482   1.085  0.00  0.00     0.163 HD
ATOM     22  O1  <0> d           3.892   2.963   3.383  0.00  0.00    -0.268 OA
BRANCH  20  23
ATOM     23  C7  <0> d           6.490   3.679   3.265  0.00  0.00     0.161 C 
BRANCH  23  24
ATOM     24  C4  <0> d           7.878   4.047   2.810  0.00  0.00    -0.041 A 
ATOM     25  C3  <0> d           8.195   5.369   2.559  0.00  0.00     0.009 A 
ATOM     26  C2  <0> d           9.469   5.706   2.142  0.00  0.00     0.001 A 
ATOM     27  C1  <0> d          10.426   4.722   1.976  0.00  0.00     0.000 A 
ATOM     28  C6  <0> d          10.109   3.400   2.227  0.00  0.00     0.001 A 
ATOM     29  C5  <0> d           8.836   3.063   2.649  0.00  0.00     0.009 A 
ENDBRANCH  23  24
ENDBRANCH  20  23
ENDBRANCH   1  19
BRANCH  14  30
ATOM     30  C20 <0> d           0.005   1.513   0.320  0.00  0.00     0.171 C 
BRANCH  30  31
ATOM     31  C21 <0> d           0.024   0.006   0.341  0.00  0.00    -0.040 A 
ATOM     32  C26 <0> d           0.171  -0.666   1.540  0.00  0.00     0.009 A 
ATOM     33  C25 <0> d           0.188  -2.048   1.560  0.00  0.00     0.001 A 
ATOM     34  C24 <0> d           0.056  -2.758   0.381  0.00  0.00     0.000 A 
ATOM     35  C23 <0> d          -0.091  -2.086  -0.818  0.00  0.00     0.001 A 
ATOM     36  C22 <0> d          -0.113  -0.704  -0.837  0.00  0.00     0.009 A 
ENDBRANCH  30  31
ENDBRANCH  14  30
TORSDOF 5
