REMARK  7 active torsions:
REMARK  status: ('A' for Active; 'I' for Inactive)
REMARK    1  A    between atoms: C2_2  and  C3_3 
REMARK    2  A    between atoms: C2_2  and  N5_25 
REMARK    3  A    between atoms: C3_3  and  C4_4 
REMARK    4  A    between atoms: C7_8  and  N3_10 
REMARK    5  A    between atoms: N3_10  and  C8_11 
REMARK    6  A    between atoms: N4_14  and  C13_17 
REMARK    7  A    between atoms: C13_17  and  C14_18 
ROOT
ATOM      1  C4  <0> d          -2.125  -0.137  -1.266  0.00  0.00     0.061 A 
ATOM      2  C5  <0> d          -2.163  -1.007  -2.317  0.00  0.00     0.102 A 
ATOM      3  C6  <0> d          -2.814  -0.614  -3.500  0.00  0.00     0.261 A 
ATOM      4  N1  <0> d          -3.379   0.611  -3.554  0.00  0.00    -0.154 N 
ATOM      5  C7  <0> d          -3.309   1.435  -2.474  0.00  0.00     0.703 A 
ATOM      6  N2  <0> d          -2.701   1.058  -1.367  0.00  0.00    -0.069 NA
ATOM      7  O1  <0> d          -2.867  -1.366  -4.460  0.00  0.00    -0.268 OA
ATOM      8  H29 <0> d          -3.833   0.903  -4.360  0.00  0.00     0.187 HD
ENDROOT
BRANCH   5   9
ATOM      9  N3  <0> d          -3.884   2.676  -2.537  0.00  0.00    -0.219 N 
ATOM     10  H8  <0> d          -4.336   2.961  -3.346  0.00  0.00     0.178 HD
BRANCH   9  11
ATOM     11  C8  <0> d          -3.816   3.574  -1.381  0.00  0.00     0.102 C 
ATOM     12  C12 <0> d          -3.938   5.026  -1.853  0.00  0.00     0.053 C 
ATOM     13  C11 <0> d          -3.946   5.953  -0.635  0.00  0.00     0.237 C 
ATOM     14  N4  <0> d          -5.084   5.621   0.230  0.00  0.00    -0.067 N 
ATOM     15  C10 <0> d          -4.937   4.253   0.743  0.00  0.00     0.237 C 
ATOM     16  H28 <0> d          -5.940   5.689  -0.301  0.00  0.00     0.280 HD
ATOM     17  C9  <0> d          -4.967   3.261  -0.421  0.00  0.00     0.053 C 
BRANCH  14  18
ATOM     18  C13 <0> d          -5.133   6.563   1.356  0.00  0.00     0.273 C 
BRANCH  18  19
ATOM     19  C14 <0> d          -5.407   7.951   0.838  0.00  0.00    -0.033 A 
ATOM     20  C19 <0> d          -6.709   8.396   0.710  0.00  0.00     0.009 A 
ATOM     21  C18 <0> d          -6.960   9.671   0.238  0.00  0.00     0.001 A 
ATOM     22  C17 <0> d          -5.910  10.498  -0.113  0.00  0.00     0.000 A 
ATOM     23  C16 <0> d          -4.607  10.051   0.011  0.00  0.00     0.001 A 
ATOM     24  C15 <0> d          -4.356   8.777   0.486  0.00  0.00     0.009 A 
ENDBRANCH  18  19
ENDBRANCH  14  18
ENDBRANCH   9  11
ENDBRANCH   5   9
BRANCH   1  25
ATOM     25  C3  <0> d          -1.433  -0.534   0.013  0.00  0.00     0.087 C 
BRANCH  25  26
ATOM     26  C2  <0> d           0.002  -0.004   0.002  0.00  0.00     0.111 C 
ATOM     27  C1  <0> d          -0.019   1.526   0.010  0.00  0.00     0.034 C 
BRANCH  26  28
ATOM     28  N5  <0> d           0.711  -0.489   1.189  0.00  0.00    -0.277 N 
ATOM     29  N6  <0> d           1.523  -1.629   1.255  0.00  0.00    -0.185 NA
ATOM     30  C22 <0> d           1.982  -1.733   2.476  0.00  0.00     0.140 A 
ATOM     31  C21 <0> d           1.470  -0.670   3.228  0.00  0.00     0.040 A 
ATOM     32  C20 <0> d           0.691   0.079   2.413  0.00  0.00     0.114 A 
ENDBRANCH  26  28
ENDBRANCH  25  26
ENDBRANCH   1  25
TORSDOF 7
