REMARK  3 active torsions:
REMARK  status: ('A' for Active; 'I' for Inactive)
REMARK    1  A    between atoms: C6_8  and  C10_12 
REMARK       I    between atoms: C10_12  and  N2_14 
REMARK    2  A    between atoms: N2_14  and  C11_15 
REMARK    3  A    between atoms: C11_15  and  C12_16 
ROOT
ATOM      1  C10 <0> d           2.835  -3.557  -1.262  0.00  0.00     0.234 C 
ATOM      2  O2  <0> d           1.947  -3.542  -2.088  0.00  0.00    -0.272 OA
ATOM      3  N2  <0> d           3.906  -4.356  -1.438  0.00  0.00    -0.356 N 
ATOM      4  H8  <0> d           4.616  -4.368  -0.777  0.00  0.00     0.162 HD
ENDROOT
BRANCH   1   5
ATOM      5  C6  <0> d           2.741  -2.681  -0.039  0.00  0.00     0.193 A 
ATOM      6  C5  <0> d           3.929  -1.747  -0.045  0.00  0.00     0.239 A 
ATOM      7  N1  <0> d           3.736  -0.439  -0.035  0.00  0.00    -0.325 N 
ATOM      8  O1  <0> d           5.060  -2.197  -0.058  0.00  0.00    -0.272 OA
ATOM      9  C4  <0> d           2.524   0.117  -0.021  0.00  0.00     0.044 A 
ATOM     10  H16 <0> d           4.511   0.143  -0.039  0.00  0.00     0.169 HD
ATOM     11  C3  <0> d           2.394   1.518  -0.013  0.00  0.00     0.030 A 
ATOM     12  C8  <0> d           1.294  -0.692  -0.014  0.00  0.00    -0.012 A 
ATOM     13  C2  <0> d           1.165   2.097   0.002  0.00  0.00     0.002 A 
ATOM     14  C1  <0> d          -0.016   1.354   0.009  0.00  0.00     0.001 A 
ATOM     15  C9  <0> d           0.002  -0.004   0.002  0.00  0.00     0.013 A 
ATOM     16  C7  <0> d           1.361  -2.054  -0.022  0.00  0.00     0.010 A 
ENDBRANCH   1   5
BRANCH   3  17
ATOM     17  C11 <0> d           3.997  -5.207  -2.627  0.00  0.00     0.171 C 
BRANCH  17  18
ATOM     18  C12 <0> d           5.301  -6.007  -2.582  0.00  0.00     0.225 A 
ATOM     19  N5  <0> d           6.457  -5.104  -2.506  0.00  0.00    -0.316 N 
ATOM     20  C13 <0> d           7.112  -5.385  -1.308  0.00  0.00     0.151 A 
ATOM     21  C14 <0> d           6.928  -4.134  -3.350  0.00  0.00     0.095 A 
ATOM     22  N4  <0> d           6.507  -6.338  -0.654  0.00  0.00    -0.159 NA
ATOM     23  C17 <0> d           8.318  -4.612  -0.979  0.00  0.00     0.052 A 
ATOM     24  N3  <0> d           5.379  -6.798  -1.342  0.00  0.00    -0.287 N 
ATOM     25  H11 <0> d           4.770  -7.498  -1.059  0.00  0.00     0.185 HD
ATOM     26  C16 <0> d           8.744  -3.662  -1.856  0.00  0.00     0.005 A 
ATOM     27  C15 <0> d           8.032  -3.428  -3.052  0.00  0.00     0.017 A 
ENDBRANCH  17  18
ENDBRANCH   3  17
TORSDOF 3
