REMARK  6 active torsions:
REMARK  status: ('A' for Active; 'I' for Inactive)
REMARK    1  A    between atoms: O1_2  and  C2_3 
REMARK    2  A    between atoms: C2_3  and  C3_4 
REMARK    3  A    between atoms: C3_4  and  C4_5 
REMARK    4  A    between atoms: C4_5  and  C5_6 
REMARK    5  A    between atoms: C4_5  and  N2_17 
REMARK       I    between atoms: C5_6  and  N1_8 
REMARK    6  A    between atoms: N1_8  and  C6_9 
ROOT
ATOM      1  C5  <0> d           1.377  -4.200  -2.104  0.00  0.00     0.253 C 
ATOM      2  O2  <0> d           0.581  -4.907  -2.684  0.00  0.00    -0.271 OA
ATOM      3  N1  <0> d           2.333  -4.754  -1.331  0.00  0.00    -0.324 N 
ATOM      4  H9  <0> d           3.018  -4.195  -0.932  0.00  0.00     0.169 HD
ENDROOT
BRANCH   1   5
ATOM      5  C4  <0> d           1.300  -2.702  -2.249  0.00  0.00     0.277 C 
BRANCH   5   6
ATOM      6  C3  <0> d           0.600  -2.107  -1.025  0.00  0.00     0.069 C 
BRANCH   6   7
ATOM      7  C2  <0> d           0.632  -0.580  -1.112  0.00  0.00     0.169 C 
BRANCH   7   8
ATOM      8  O1  <0> d          -0.022  -0.024   0.031  0.00  0.00    -0.396 OA
ATOM      9  C1  <0> d          -0.048   1.405   0.048  0.00  0.00     0.201 C 
ENDBRANCH   7   8
ENDBRANCH   6   7
ENDBRANCH   5   6
BRANCH   5  10
ATOM     10  N2  <0> d           0.539  -2.366  -3.460  0.00  0.00    -0.066 N 
ATOM     11  H13 <0> d           0.487  -1.363  -3.557  0.00  0.00     0.275 HD
ATOM     12  H14 <0> d           1.000  -2.758  -4.267  0.00  0.00     0.275 HD
ATOM     13  H15 <0> d          -0.393  -2.745  -3.388  0.00  0.00     0.275 HD
ENDBRANCH   5  10
ENDBRANCH   1   5
BRANCH   3  14
ATOM     14  C6  <0> d           2.335  -6.135  -1.103  0.00  0.00     0.053 A 
ATOM     15  C11 <0> d           3.520  -6.785  -0.783  0.00  0.00     0.037 A 
ATOM     16  C10 <0> d           3.518  -8.148  -0.553  0.00  0.00     0.023 A 
ATOM     17 Br1  <0> d           5.132  -5.805  -0.652  0.00  0.00    -0.049 Br
ATOM     18  C9  <0> d           2.341  -8.866  -0.653  0.00  0.00     0.020 A 
ATOM     19  C8  <0> d           1.160  -8.222  -0.978  0.00  0.00     0.013 A 
ATOM     20  C7  <0> d           1.154  -6.858  -1.203  0.00  0.00     0.050 A 
ATOM     21 Br2  <0> d          -0.447  -9.209  -1.114  0.00  0.00    -0.051 Br
ENDBRANCH   3  14
TORSDOF 6
