REMARK  6 active torsions:
REMARK  status: ('A' for Active; 'I' for Inactive)
REMARK    1  A    between atoms: C3_5  and  N3_7 
REMARK       I    between atoms: N3_7  and  C4_8 
REMARK    2  A    between atoms: C4_8  and  C5_10 
REMARK    3  A    between atoms: N6_23  and  C16_26 
REMARK    4  A    between atoms: C15_24  and  N7_25 
REMARK    5  A    between atoms: C16_26  and  C17_27 
REMARK    6  A    between atoms: C17_27  and  C18_28 
ROOT
ATOM      1  C5  <0> d          -0.430  -6.466   0.210  0.00  0.00     0.077 A 
ATOM      2  C6  <0> d          -0.320  -6.822   1.556  0.00  0.00     0.042 A 
ATOM      3  C7  <0> d           0.214  -8.072   1.861  0.00  0.00     0.080 A 
ATOM      4  C8  <0> d           0.626  -8.938   0.812  0.00  0.00     0.149 A 
ATOM      5  N4  <0> d           1.137 -10.133   1.125  0.00  0.00    -0.212 NA
ATOM      6  C9  <0> d           1.272 -10.538   2.383  0.00  0.00     0.139 A 
ATOM      7  C10 <0> d           1.821 -11.816   2.624  0.00  0.00     0.051 A 
ATOM      8  C11 <0> d           1.970 -12.254   3.903  0.00  0.00     0.005 A 
ATOM      9  C12 <0> d           1.576 -11.430   4.969  0.00  0.00     0.018 A 
ATOM     10  C13 <0> d           1.052 -10.210   4.724  0.00  0.00     0.102 A 
ATOM     11  N5  <0> d           0.898  -9.759   3.445  0.00  0.00    -0.273 N 
ATOM     12  C14 <0> d           0.368  -8.530   3.242  0.00  0.00     0.267 A 
ATOM     13  O2  <0> d           0.032  -7.828   4.178  0.00  0.00    -0.267 OA
ATOM     14  N6  <0> d           0.501  -8.554  -0.460  0.00  0.00    -0.316 N 
ATOM     15  C15 <0> d          -0.006  -7.379  -0.781  0.00  0.00     0.118 A 
ENDROOT
BRANCH   1  16
ATOM     16  C4  <0> d          -0.986  -5.159  -0.171  0.00  0.00     0.261 C 
ATOM     17  N3  <0> d          -1.493  -4.341   0.773  0.00  0.00    -0.300 N 
ATOM     18  H4  <0> d          -1.491  -4.614   1.704  0.00  0.00     0.171 HD
ATOM     19  O1  <0> d          -0.989  -4.816  -1.338  0.00  0.00    -0.267 OA
BRANCH  17  20
ATOM     20  C3  <0> d          -2.018  -3.106   0.413  0.00  0.00     0.196 A 
ATOM     21  N2  <0> d          -2.123  -2.538  -0.781  0.00  0.00    -0.123 NA
ATOM     22  N1  <0> d          -2.634  -1.395  -0.931  0.00  0.00    -0.145 NA
ATOM     23  C2  <0> d          -3.095  -0.693   0.084  0.00  0.00     0.097 A 
ATOM     24  C1  <0> d          -3.733   0.672   0.108  0.00  0.00     0.081 C 
ATOM     25  S1  <0> d          -2.742  -1.821   1.429  0.00  0.00    -0.034 SA
ENDBRANCH  17  20
ENDBRANCH   1  16
BRANCH  15  26
ATOM     26  N7  <0> d          -0.119  -7.032  -2.111  0.00  0.00    -0.384 N 
ATOM     27  H10 <0> d          -0.059  -6.101  -2.377  0.00  0.00     0.157 HD
ATOM     28  H20 <0> d          -0.258  -7.720  -2.781  0.00  0.00     0.157 HD
ENDBRANCH  15  26
BRANCH  14  29
ATOM     29  C16 <0> d           0.932  -9.462  -1.526  0.00  0.00     0.137 C 
BRANCH  29  30
ATOM     30  C17 <0> d          -0.240 -10.354  -1.941  0.00  0.00     0.059 C 
BRANCH  30  31
ATOM     31  C18 <0> d           0.203 -11.287  -3.038  0.00  0.00    -0.057 A 
ATOM     32  C23 <0> d           0.731 -12.525  -2.720  0.00  0.00     0.007 A 
ATOM     33  C22 <0> d           1.133 -13.383  -3.726  0.00  0.00     0.001 A 
ATOM     34  C21 <0> d           1.016 -13.001  -5.049  0.00  0.00     0.000 A 
ATOM     35  C20 <0> d           0.492 -11.761  -5.367  0.00  0.00     0.001 A 
ATOM     36  C19 <0> d           0.086 -10.905  -4.361  0.00  0.00     0.007 A 
ENDBRANCH  30  31
ENDBRANCH  29  30
ENDBRANCH  14  29
TORSDOF 6
