REMARK  2 active torsions:
REMARK  status: ('A' for Active; 'I' for Inactive)
REMARK    1  A    between atoms: C8_12  and  C9_13 
REMARK       I    between atoms: C9_13  and  N3_15 
REMARK    2  A    between atoms: N3_15  and  C10_16 
ROOT
ATOM      1  C1  <0> d          -0.018   1.503   0.010  0.00  0.00     0.046 C 
ATOM      2  C2  <0> d           0.002  -0.004   0.002  0.00  0.00    -0.042 A 
ATOM      3  C3  <0> d           0.006  -0.691  -1.150  0.00  0.00     0.073 A 
ATOM      4  C4  <0> d           0.026  -2.167  -1.069  0.00  0.00     0.112 A 
ATOM      5  N1  <0> d           0.030  -2.895  -2.160  0.00  0.00    -0.226 NA
ATOM      6  C5  <0> d           0.016  -2.337  -3.360  0.00  0.00     0.127 A 
ATOM      7  N2  <0> d          -0.003  -1.040  -3.554  0.00  0.00    -0.194 NA
ATOM      8  C6  <0> d          -0.008  -0.158  -2.549  0.00  0.00     0.281 A 
ATOM      9  O1  <0> d          -0.026   1.042  -2.765  0.00  0.00    -0.265 OA
ATOM     10  C7  <0> d           0.021  -3.239  -4.567  0.00  0.00     0.093 C 
ATOM     11  S1  <0> d           0.040  -2.523   0.670  0.00  0.00    -0.090 SA
ATOM     12  C8  <0> d           0.025  -0.793   1.292  0.00  0.00     0.176 A 
ENDROOT
BRANCH  12  13
ATOM     13  C9  <0> d          -1.212  -0.525   2.110  0.00  0.00     0.242 C 
ATOM     14  O2  <0> d          -2.275  -0.336   1.557  0.00  0.00    -0.271 OA
ATOM     15  N3  <0> d          -1.137  -0.497   3.455  0.00  0.00    -0.304 N 
ATOM     16  H8  <0> d          -0.287  -0.649   3.897  0.00  0.00     0.171 HD
BRANCH  15  17
ATOM     17  C10 <0> d          -2.279  -0.251   4.209  0.00  0.00     0.172 A 
ATOM     18  S2  <0> d          -2.428  -0.168   5.884  0.00  0.00    -0.062 SA
ATOM     19  C12 <0> d          -4.178   0.177   5.959  0.00  0.00     0.072 A 
ATOM     20  C11 <0> d          -4.490   0.189   4.640  0.00  0.00     0.126 A 
ATOM     21  N4  <0> d          -3.505  -0.031   3.788  0.00  0.00    -0.236 NA
ENDBRANCH  15  17
ENDBRANCH  12  13
TORSDOF 2
