REMARK  3 active torsions:
REMARK  status: ('A' for Active; 'I' for Inactive)
REMARK    1  A    between atoms: C5_5  and  N2_22 
REMARK    2  A    between atoms: C7_7  and  N1_8 
REMARK       I    between atoms: N1_8  and  C8_9 
REMARK    3  A    between atoms: C8_9  and  C9_11 
ROOT
ATOM      1  N1  <0> d          -0.022   0.081   2.434  0.00  0.00    -0.321 N 
ATOM      2  C8  <0> d           0.074  -0.547   3.623  0.00  0.00     0.280 C 
ATOM      3  O1  <0> d           0.275  -1.747   3.662  0.00  0.00    -0.265 OA
ATOM      4  H7  <0> d          -0.125   1.045   2.402  0.00  0.00     0.169 HD
ENDROOT
BRANCH   1   5
ATOM      5  C7  <0> d           0.025  -0.656   1.247  0.00  0.00     0.043 A 
ATOM      6  C2  <0> d          -0.585  -0.166   0.099  0.00  0.00    -0.035 A 
ATOM      7  C1  <0> d          -1.297   1.161   0.133  0.00  0.00     0.050 C 
ATOM      8  C3  <0> d          -0.534  -0.893  -1.075  0.00  0.00     0.011 A 
ATOM      9  C4  <0> d           0.118  -2.110  -1.110  0.00  0.00     0.031 A 
ATOM     10  C5  <0> d           0.725  -2.608   0.036  0.00  0.00     0.047 A 
ATOM     11  C6  <0> d           0.675  -1.882   1.216  0.00  0.00     0.060 A 
BRANCH  10  12
ATOM     12  N2  <0> d           1.385  -3.844  -0.000  0.00  0.00    -0.252 N 
ATOM     13  C21 <0> d           2.706  -3.966   0.183  0.00  0.00     0.231 A 
ATOM     14  C20 <0> d           3.090  -5.426   0.085  0.00  0.00     0.113 A 
ATOM     15  O5  <0> d           3.472  -3.051   0.397  0.00  0.00    -0.273 OA
ATOM     16  C19 <0> d           1.750  -6.134  -0.200  0.00  0.00     0.113 A 
ATOM     17  C18 <0> d           0.748  -5.000  -0.227  0.00  0.00     0.231 A 
ATOM     18  O4  <0> d          -0.442  -5.119  -0.424  0.00  0.00    -0.273 OA
ENDBRANCH  10  12
ENDBRANCH   1   5
BRANCH   2  19
ATOM     19  C9  <0> d          -0.061   0.216   4.869  0.00  0.00     0.150 A 
ATOM     20  O2  <0> d          -0.284   1.547   4.957  0.00  0.00    -0.308 OA
ATOM     21  C12 <0> d          -0.360   1.911   6.230  0.00  0.00     0.068 A 
ATOM     22  C11 <0> d          -0.166   0.775   7.008  0.00  0.00     0.048 A 
ATOM     23  C13 <0> d          -0.604   3.276   6.821  0.00  0.00     0.066 C 
ATOM     24  C10 <0> d           0.022  -0.302   6.129  0.00  0.00    -0.006 A 
ATOM     25  C16 <0> d          -0.178   0.833   8.478  0.00  0.00     0.162 C 
ATOM     26  C17 <0> d           0.267  -1.741   6.502  0.00  0.00     0.052 C 
ATOM     27  C15 <0> d          -0.146   2.234   9.070  0.00  0.00     0.084 C 
ATOM     28  O3  <0> d          -0.211  -0.165   9.168  0.00  0.00    -0.292 OA
ATOM     29  C14 <0> d          -1.099   3.121   8.262  0.00  0.00     0.014 C 
ENDBRANCH   2  19
TORSDOF 3
