REMARK  4 active torsions:
REMARK  status: ('A' for Active; 'I' for Inactive)
REMARK    1  A    between atoms: N1_12  and  C12_16 
REMARK    2  A    between atoms: C12_16  and  C13_17 
REMARK       I    between atoms: C13_17  and  N3_19 
REMARK    3  A    between atoms: N3_19  and  N4_20 
REMARK       I    between atoms: N4_20  and  C14_21 
REMARK    4  A    between atoms: C14_21  and  C15_23 
ROOT
ATOM      1  C12 <0> d          -4.079  -4.264  -1.458  0.00  0.00     0.241 C 
ENDROOT
BRANCH   1   2
ATOM      2  N1  <0> d          -2.895  -3.499  -1.058  0.00  0.00    -0.259 N 
ATOM      3  C10 <0> d          -2.817  -2.754   0.064  0.00  0.00     0.256 A 
ATOM      4  C4  <0> d          -1.428  -2.159   0.057  0.00  0.00     0.117 A 
ATOM      5  O1  <0> d          -3.679  -2.595   0.901  0.00  0.00    -0.270 OA
ATOM      6  C3  <0> d          -1.501  -0.636   0.015  0.00  0.00     0.045 C 
ATOM      7  N2  <0> d          -0.823  -2.679  -1.176  0.00  0.00    -0.324 N 
ATOM      8  C5  <0> d          -0.642  -2.627   1.276  0.00  0.00     0.050 C 
ATOM      9  C2  <0> d          -0.085  -0.057  -0.027  0.00  0.00    -0.015 C 
ATOM     10  C1  <0> d          -0.159   1.471  -0.048  0.00  0.00     0.010 C 
ATOM     11  C7  <0> d           0.688  -0.513   1.212  0.00  0.00     0.013 C 
ATOM     12  C6  <0> d           0.772  -2.041   1.230  0.00  0.00    -0.045 C 
ATOM     13  C8  <0> d           1.553  -2.495   2.465  0.00  0.00     0.015 C 
ATOM     14  C9  <0> d           1.485  -2.527  -0.033  0.00  0.00     0.015 C 
ATOM     15  C11 <0> d          -1.756  -3.453  -1.761  0.00  0.00     0.326 A 
ATOM     16  H17 <0> d           0.073  -2.500  -1.504  0.00  0.00     0.165 HD
ATOM     17  O2  <0> d          -1.585  -4.042  -2.810  0.00  0.00    -0.247 OA
ENDBRANCH   1   2
BRANCH   1  18
ATOM     18  C13 <0> d          -4.972  -3.399  -2.310  0.00  0.00     0.254 C 
ATOM     19  O3  <0> d          -4.651  -2.256  -2.558  0.00  0.00    -0.270 OA
ATOM     20  N3  <0> d          -6.127  -3.895  -2.795  0.00  0.00    -0.266 N 
ATOM     21  H20 <0> d          -6.383  -4.809  -2.596  0.00  0.00     0.190 HD
BRANCH  20  22
ATOM     22  N4  <0> d          -6.957  -3.091  -3.587  0.00  0.00    -0.263 N 
ATOM     23  C14 <0> d          -8.113  -3.587  -4.072  0.00  0.00     0.277 C 
ATOM     24  O4  <0> d          -8.434  -4.734  -3.823  0.00  0.00    -0.265 OA
ATOM     25  H21 <0> d          -6.701  -2.177  -3.785  0.00  0.00     0.190 HD
BRANCH  23  26
ATOM     26  C15 <0> d          -8.981  -2.746  -4.900  0.00  0.00     0.075 A 
ATOM     27  S1  <0> d          -8.752  -1.055  -5.411  0.00  0.00    -0.089 SA
ATOM     28  C18 <0> d         -10.153  -0.862  -6.310  0.00  0.00    -0.010 A 
ATOM     29  C17 <0> d         -10.809  -2.048  -6.230  0.00  0.00    -0.043 A 
ATOM     30  C19 <0> d         -10.909   0.139  -7.144  0.00  0.00     0.047 C 
ATOM     31  C16 <0> d         -10.193  -3.055  -5.484  0.00  0.00     0.033 A 
ATOM     32  C21 <0> d         -12.111  -1.931  -7.026  0.00  0.00     0.040 C 
ATOM     33  C20 <0> d         -11.926  -0.706  -7.942  0.00  0.00     0.010 C 
ENDBRANCH  23  26
ENDBRANCH  20  22
ENDBRANCH   1  18
TORSDOF 4
