REMARK  3 active torsions:
REMARK  status: ('A' for Active; 'I' for Inactive)
REMARK    1  A    between atoms: C2_2  and  C14_20 
REMARK    2  A    between atoms: N1_5  and  C5_9 
REMARK    3  A    between atoms: C5_9  and  C6_10 
ROOT
ATOM      1  C1  <0> d           0.098   1.369   0.575  0.00  0.00     0.054 C 
ATOM      2  C2  <0> d           0.207  -0.157   0.551  0.00  0.00     0.140 A 
ATOM      3  C3  <0> d           0.810  -0.628  -0.758  0.00  0.00     0.261 A 
ATOM      4  O1  <0> d           0.359  -0.467  -1.872  0.00  0.00    -0.270 OA
ATOM      5  N1  <0> d           1.952  -1.262  -0.426  0.00  0.00    -0.260 N 
ATOM      6  C4  <0> d           2.152  -1.256   0.897  0.00  0.00     0.326 A 
ATOM      7  O2  <0> d           3.114  -1.767   1.437  0.00  0.00    -0.247 OA
ATOM      8  N2  <0> d           1.169  -0.624   1.563  0.00  0.00    -0.321 N 
ATOM      9  H4  <0> d           1.107  -0.499   2.523  0.00  0.00     0.165 HD
ENDROOT
BRANCH   5  10
ATOM     10  C5  <0> d           2.861  -1.880  -1.393  0.00  0.00     0.215 C 
BRANCH  10  11
ATOM     11  C6  <0> d           3.959  -0.909  -1.743  0.00  0.00     0.125 A 
ATOM     12  N4  <0> d           3.949  -0.075  -2.818  0.00  0.00    -0.336 N 
ATOM     13  C12 <0> d           5.122   0.651  -2.786  0.00  0.00     0.064 A 
ATOM     14  C13 <0> d           2.887   0.034  -3.822  0.00  0.00     0.158 C 
ATOM     15  C7  <0> d           5.825   0.202  -1.655  0.00  0.00     0.085 A 
ATOM     16  C11 <0> d           5.671   1.637  -3.594  0.00  0.00     0.032 A 
ATOM     17  N3  <0> d           5.058  -0.750  -1.064  0.00  0.00    -0.231 NA
ATOM     18  C8  <0> d           7.072   0.756  -1.356  0.00  0.00     0.034 A 
ATOM     19  C9  <0> d           7.597   1.726  -2.162  0.00  0.00     0.002 A 
ATOM     20  C10 <0> d           6.903   2.170  -3.279  0.00  0.00     0.002 A 
ENDBRANCH  10  11
ENDBRANCH   5  10
BRANCH   2  21
ATOM     21  C14 <0> d          -1.144  -0.787   0.773  0.00  0.00    -0.018 A 
ATOM     22  C19 <0> d          -1.572  -1.067   2.057  0.00  0.00     0.055 A 
ATOM     23  C18 <0> d          -2.815  -1.641   2.263  0.00  0.00     0.155 A 
ATOM     24  C17 <0> d          -3.624  -1.944   1.179  0.00  0.00     0.154 A 
ATOM     25  F1  <0> d          -3.236  -1.910   3.518  0.00  0.00    -0.203 F 
ATOM     26  C16 <0> d          -3.190  -1.668  -0.106  0.00  0.00     0.046 A 
ATOM     27  F2  <0> d          -4.836  -2.509   1.376  0.00  0.00    -0.203 F 
ATOM     28  C15 <0> d          -1.951  -1.090  -0.308  0.00  0.00     0.013 A 
ENDBRANCH   2  21
TORSDOF 3
