REMARK  5 active torsions:
REMARK  status: ('A' for Active; 'I' for Inactive)
REMARK    1  A    between atoms: C7_7  and  C10_11 
REMARK    2  A    between atoms: C10_11  and  C11_12 
REMARK    3  A    between atoms: C11_12  and  N2_13 
REMARK       I    between atoms: N2_13  and  C12_14 
REMARK    4  A    between atoms: C12_14  and  C13_16 
REMARK       I    between atoms: N3_18  and  C21_26 
REMARK    5  A    between atoms: C21_26  and  C22_28 
ROOT
ATOM      1  C13 <0> d          -8.699   1.640  -6.113  0.00  0.00     0.106 C 
ATOM      2  C14 <0> d          -9.937   2.098  -5.309  0.00  0.00     0.141 C 
ATOM      3  N3  <0> d         -11.095   1.646  -6.114  0.00  0.00    -0.348 N 
ATOM      4  C15 <0> d         -10.693   0.312  -6.622  0.00  0.00     0.136 C 
ATOM      5  C16 <0> d          -9.200   0.467  -6.973  0.00  0.00    -0.007 C 
ATOM      6  C17 <0> d          -8.441  -0.809  -6.620  0.00  0.00     0.039 C 
ATOM      7  C18 <0> d          -8.914  -1.947  -7.527  0.00  0.00     0.233 C 
ATOM      8  N4  <0> d          -8.680  -1.587  -8.931  0.00  0.00    -0.075 N 
ATOM      9  C19 <0> d          -9.486  -0.413  -9.288  0.00  0.00     0.233 C 
ATOM     10  C20 <0> d          -9.036   0.790  -8.455  0.00  0.00     0.039 C 
ATOM     11  C21 <0> d         -12.253   2.299  -6.335  0.00  0.00     0.251 C 
ATOM     12  O2  <0> d         -12.399   3.430  -5.924  0.00  0.00    -0.270 OA
ATOM     13  H24 <0> d          -7.702  -1.374  -9.063  0.00  0.00     0.277 HD
ATOM     14  H35 <0> d          -8.936  -2.362  -9.524  0.00  0.00     0.277 HD
ENDROOT
BRANCH   1  15
ATOM     15  C12 <0> d          -7.609   1.179  -5.181  0.00  0.00     0.224 C 
ATOM     16  N2  <0> d          -6.327   1.164  -5.598  0.00  0.00    -0.360 N 
ATOM     17  H15 <0> d          -6.107   1.449  -6.498  0.00  0.00     0.162 HD
ATOM     18  O1  <0> d          -7.884   0.822  -4.055  0.00  0.00    -0.273 OA
BRANCH  16  19
ATOM     19  C11 <0> d          -5.267   0.716  -4.691  0.00  0.00     0.127 C 
BRANCH  19  20
ATOM     20  C10 <0> d          -3.917   0.796  -5.407  0.00  0.00     0.060 C 
BRANCH  20  21
ATOM     21  C7  <0> d          -2.826   0.335  -4.474  0.00  0.00    -0.029 A 
ATOM     22  C6  <0> d          -2.403  -1.048  -4.244  0.00  0.00    -0.001 A 
ATOM     23  C5  <0> d          -2.812  -2.284  -4.748  0.00  0.00     0.014 A 
ATOM     24  C9  <0> d          -1.366  -0.985  -3.296  0.00  0.00     0.049 A 
ATOM     25  C4  <0> d          -2.198  -3.428  -4.320  0.00  0.00     0.002 A 
ATOM     26  C3  <0> d          -1.171  -3.370  -3.388  0.00  0.00     0.009 A 
ATOM     27  C2  <0> d          -0.751  -2.161  -2.879  0.00  0.00    -0.034 A 
ATOM     28  C1  <0> d           0.366  -2.113  -1.868  0.00  0.00     0.050 C 
ATOM     29  N1  <0> d          -1.178   0.344  -2.988  0.00  0.00    -0.364 N 
ATOM     30  C8  <0> d          -2.058   1.115  -3.697  0.00  0.00     0.096 A 
ATOM     31  H10 <0> d          -0.521   0.683  -2.360  0.00  0.00     0.165 HD
ENDBRANCH  20  21
ENDBRANCH  19  20
ENDBRANCH  16  19
ENDBRANCH   1  15
BRANCH  11  32
ATOM     32  C22 <0> d         -13.367   1.623  -7.094  0.00  0.00     0.245 C 
ATOM     33  O4  <0> d         -14.424   2.558  -7.334  0.00  0.00    -0.331 OA
ATOM     34  C29 <0> d         -15.617   2.042  -7.739  0.00  0.00     0.103 A 
ATOM     35  C24 <0> d         -15.902   0.692  -7.570  0.00  0.00     0.102 A 
ATOM     36  C28 <0> d         -16.558   2.878  -8.322  0.00  0.00     0.040 A 
ATOM     37  O3  <0> d         -14.991  -0.147  -7.005  0.00  0.00    -0.345 OA
ATOM     38  C25 <0> d         -17.127   0.189  -7.982  0.00  0.00     0.039 A 
ATOM     39  C23 <0> d         -13.929   0.463  -6.262  0.00  0.00     0.218 C 
ATOM     40  C26 <0> d         -18.061   1.028  -8.561  0.00  0.00     0.003 A 
ATOM     41  C27 <0> d         -17.776   2.370  -8.731  0.00  0.00     0.003 A 
ENDBRANCH  11  32
TORSDOF 5
