REMARK  4 active torsions:
REMARK  status: ('A' for Active; 'I' for Inactive)
REMARK    1  A    between atoms: C2_2  and  C3_3 
REMARK    2  A    between atoms: C6_7  and  N3_19 
REMARK    3  A    between atoms: N2_11  and  C10_12 
REMARK    4  A    between atoms: C10_12  and  C12_14 
ROOT
ATOM      1  C3  <0> d           0.520  -0.177  -0.671  0.00  0.00     0.107 A 
ATOM      2  N1  <0> d          -0.423  -0.259  -1.564  0.00  0.00    -0.233 NA
ATOM      3  C4  <0> d           0.064  -0.839  -2.691  0.00  0.00     0.087 A 
ATOM      4  C5  <0> d          -0.501  -1.163  -3.927  0.00  0.00     0.063 A 
ATOM      5  C6  <0> d           0.276  -1.764  -4.899  0.00  0.00     0.028 A 
ATOM      6  C7  <0> d           1.618  -2.048  -4.652  0.00  0.00     0.031 A 
ATOM      7  C8  <0> d           2.185  -1.732  -3.437  0.00  0.00     0.034 A 
ATOM      8  C9  <0> d           1.417  -1.128  -2.451  0.00  0.00     0.065 A 
ATOM      9  N2  <0> d           1.677  -0.692  -1.165  0.00  0.00    -0.326 N 
ENDROOT
BRANCH   9  10
ATOM     10  C10 <0> d           2.961  -0.773  -0.463  0.00  0.00     0.116 C 
ATOM     11  C11 <0> d           3.478  -2.212  -0.509  0.00  0.00     0.035 C 
BRANCH  10  12
ATOM     12  C12 <0> d           3.972   0.154  -1.140  0.00  0.00     0.144 C 
ATOM     13  O1  <0> d           4.244  -0.297  -2.477  0.00  0.00    -0.384 OA
ATOM     14  C15 <0> d           5.627  -0.083  -2.792  0.00  0.00     0.168 C 
ATOM     15  C14 <0> d           6.302   0.521  -1.542  0.00  0.00     0.029 C 
ATOM     16  C13 <0> d           5.334   0.093  -0.405  0.00  0.00     0.036 C 
ENDBRANCH  10  12
ENDBRANCH   9  10
BRANCH   1  17
ATOM     17  C2  <0> d           0.355   0.410   0.707  0.00  0.00     0.074 C 
ATOM     18  C1  <0> d           0.621   1.916   0.655  0.00  0.00     0.013 C 
ENDBRANCH   1  17
BRANCH   5  19
ATOM     19  N3  <0> d          -0.288  -2.089  -6.138  0.00  0.00    -0.399 N 
ATOM     20  H20 <0> d          -1.222  -1.893  -6.313  0.00  0.00     0.156 HD
ATOM     21  H21 <0> d           0.255  -2.511  -6.822  0.00  0.00     0.156 HD
ENDBRANCH   5  19
TORSDOF 4
