REMARK  7 active torsions:
REMARK  status: ('A' for Active; 'I' for Inactive)
REMARK    1  A    between atoms: O1_2  and  C2_3 
REMARK    2  A    between atoms: C2_3  and  C3_5 
REMARK    3  A    between atoms: C7_9  and  C9_11 
REMARK    4  A    between atoms: C10_12  and  C11_13 
REMARK    5  A    between atoms: C15_17  and  N1_19 
REMARK       I    between atoms: N1_19  and  C17_20 
REMARK    6  A    between atoms: C17_20  and  C18_22 
REMARK    7  A    between atoms: N3_24  and  C22_29 
ROOT
ATOM      1  C11 <0> d           4.374  -7.695  -6.009  0.00  0.00     0.020 A 
ATOM      2  C12 <0> d           3.172  -7.273  -5.433  0.00  0.00     0.021 A 
ATOM      3  C13 <0> d           2.565  -6.116  -5.876  0.00  0.00     0.004 A 
ATOM      4  C14 <0> d           3.140  -5.371  -6.888  0.00  0.00     0.029 A 
ATOM      5  C15 <0> d           4.335  -5.782  -7.468  0.00  0.00     0.036 A 
ATOM      6  C16 <0> d           4.957  -6.939  -7.027  0.00  0.00     0.050 A 
ENDROOT
BRANCH   5   7
ATOM      7  N1  <0> d           4.912  -5.024  -8.492  0.00  0.00    -0.322 N 
ATOM      8  C17 <0> d           5.599  -5.636  -9.477  0.00  0.00     0.272 C 
ATOM      9  O3  <0> d           5.636  -6.851  -9.530  0.00  0.00    -0.266 OA
ATOM     10  H13 <0> d           4.818  -4.059  -8.493  0.00  0.00     0.169 HD
BRANCH   8  11
ATOM     11  C18 <0> d           6.302  -4.836 -10.487  0.00  0.00     0.123 C 
ATOM     12  C21 <0> d           7.066  -5.530 -11.583  0.00  0.00     0.076 C 
ATOM     13  C20 <0> d           6.971  -4.705 -12.871  0.00  0.00     0.111 C 
ATOM     14  C19 <0> d           7.275  -3.262 -12.557  0.00  0.00     0.240 C 
ATOM     15  N3  <0> d           6.917  -2.747 -11.365  0.00  0.00    -0.232 N 
ATOM     16  O4  <0> d           7.840  -2.567 -13.375  0.00  0.00    -0.272 OA
ATOM     17  N2  <0> d           6.261  -3.542 -10.419  0.00  0.00    -0.168 NA
BRANCH  15  18
ATOM     18  C22 <0> d           7.218  -1.347 -11.056  0.00  0.00     0.128 C 
ATOM     19  C25 <0> d           8.148  -1.281  -9.822  0.00  0.00     0.167 C 
ATOM     20  S1  <0> d           7.647   0.296  -9.021  0.00  0.00     0.146 S 
ATOM     21  C24 <0> d           6.268   0.783 -10.142  0.00  0.00     0.142 C 
ATOM     22  O5  <0> d           7.117   0.012  -7.733  0.00  0.00    -0.228 OA
ATOM     23  O6  <0> d           8.703   1.238  -9.150  0.00  0.00    -0.228 OA
ATOM     24  C23 <0> d           5.908  -0.596 -10.765  0.00  0.00     0.043 C 
ENDBRANCH  15  18
ENDBRANCH   8  11
ENDBRANCH   5   7
BRANCH   1  25
ATOM     25  C10 <0> d           5.007  -8.896  -5.551  0.00  0.00    -0.061 C 
ATOM     26  C9  <0> d           5.526  -9.880  -5.177  0.00  0.00    -0.061 C 
BRANCH  26  27
ATOM     27  C7  <0> d           6.159 -11.080  -4.719  0.00  0.00     0.019 A 
ATOM     28  C6  <0> d           5.574 -11.836  -3.699  0.00  0.00     0.020 A 
ATOM     29  C5  <0> d           6.183 -12.994  -3.258  0.00  0.00     0.002 A 
ATOM     30  C4  <0> d           7.372 -13.414  -3.820  0.00  0.00     0.017 A 
ATOM     31  C3  <0> d           7.969 -12.668  -4.840  0.00  0.00     0.040 A 
ATOM     32  C8  <0> d           7.363 -11.495  -5.287  0.00  0.00     0.038 A 
BRANCH  31  33
ATOM     33  C2  <0> d           9.242 -13.119  -5.439  0.00  0.00     0.293 C 
ATOM     34  O2  <0> d           9.762 -12.467  -6.323  0.00  0.00    -0.259 OA
BRANCH  33  35
ATOM     35  O1  <0> d           9.826 -14.253  -5.006  0.00  0.00    -0.323 OA
ATOM     36  C1  <0> d          11.055 -14.629  -5.630  0.00  0.00     0.213 C 
ENDBRANCH  33  35
ENDBRANCH  31  33
ENDBRANCH  26  27
ENDBRANCH   1  25
TORSDOF 7
