REMARK  4 active torsions:
REMARK  status: ('A' for Active; 'I' for Inactive)
REMARK    1  A    between atoms: C5_5  and  C9_9 
REMARK       I    between atoms: C9_9  and  N1_11 
REMARK    2  A    between atoms: C11_13  and  C18_21 
REMARK       I    between atoms: C18_21  and  N3_23 
REMARK    3  A    between atoms: N3_23  and  C19_24 
REMARK    4  A    between atoms: C19_24  and  C20_25 
ROOT
ATOM      1  C9  <0> d           0.150  -4.150  -0.010  0.00  0.00     0.254 C 
ATOM      2  O1  <0> d           0.263  -4.736   1.049  0.00  0.00    -0.267 OA
ATOM      3  N1  <0> d           0.096  -4.846  -1.163  0.00  0.00    -0.346 N 
ATOM      4  C10 <0> d           0.068  -4.312  -2.546  0.00  0.00     0.141 C 
ATOM      5  C11 <0> d           0.964  -5.277  -3.354  0.00  0.00     0.106 C 
ATOM      6  C12 <0> d           0.946  -6.592  -2.555  0.00  0.00    -0.007 C 
ATOM      7  C13 <0> d           0.055  -6.318  -1.335  0.00  0.00     0.136 C 
ATOM      8  C14 <0> d           2.357  -6.953  -2.101  0.00  0.00     0.039 C 
ATOM      9  C15 <0> d           2.321  -8.292  -1.358  0.00  0.00     0.233 C 
ATOM     10  N2  <0> d           1.790  -9.332  -2.247  0.00  0.00    -0.075 N 
ATOM     11  C16 <0> d           0.401  -9.024  -2.606  0.00  0.00     0.233 C 
ATOM     12  C17 <0> d           0.355  -7.716  -3.401  0.00  0.00     0.039 C 
ATOM     13  H20 <0> d           2.351  -9.375  -3.085  0.00  0.00     0.277 HD
ATOM     14  H36 <0> d           1.825 -10.225  -1.777  0.00  0.00     0.277 HD
ENDROOT
BRANCH   5  15
ATOM     15  C18 <0> d           2.368  -4.737  -3.447  0.00  0.00     0.224 C 
ATOM     16  O2  <0> d           2.787  -3.988  -2.590  0.00  0.00    -0.273 OA
ATOM     17  N3  <0> d           3.157  -5.085  -4.482  0.00  0.00    -0.358 N 
ATOM     18  H25 <0> d           2.822  -5.684  -5.168  0.00  0.00     0.162 HD
BRANCH  17  19
ATOM     19  C19 <0> d           4.522  -4.559  -4.572  0.00  0.00     0.156 C 
BRANCH  19  20
ATOM     20  C20 <0> d           5.197  -5.106  -5.832  0.00  0.00     0.166 C 
ATOM     21  O4  <0> d           5.333  -6.539  -5.756  0.00  0.00    -0.347 OA
ATOM     22  C22 <0> d           6.624  -6.870  -6.292  0.00  0.00     0.157 C 
ATOM     23  O3  <0> d           7.274  -5.661  -6.717  0.00  0.00    -0.353 OA
ATOM     24  C23 <0> d           6.454  -7.810  -7.488  0.00  0.00     0.078 C 
ATOM     25  C24 <0> d           7.468  -7.559  -5.218  0.00  0.00     0.078 C 
ATOM     26  C21 <0> d           6.663  -4.614  -5.925  0.00  0.00     0.205 C 
ENDBRANCH  19  20
ENDBRANCH  17  19
ENDBRANCH   5  15
BRANCH   1  27
ATOM     27  C5  <0> d           0.074  -2.673  -0.034  0.00  0.00     0.038 A 
ATOM     28  C4  <0> d          -0.907  -2.034  -0.794  0.00  0.00     0.018 A 
ATOM     29  C3  <0> d          -0.973  -0.657  -0.811  0.00  0.00     0.008 A 
ATOM     30  C2  <0> d          -0.070   0.092  -0.077  0.00  0.00    -0.061 A 
ATOM     31  C1  <0> d          -0.148   1.597  -0.101  0.00  0.00     0.048 C 
ATOM     32  C7  <0> d           0.908  -0.535   0.675  0.00  0.00     0.014 A 
ATOM     33  C6  <0> d           0.982  -1.913   0.705  0.00  0.00    -0.046 A 
ATOM     34  C8  <0> d           2.044  -2.594   1.528  0.00  0.00     0.049 C 
ENDBRANCH   1  27
TORSDOF 4
