REMARK  4 active torsions:
REMARK  status: ('A' for Active; 'I' for Inactive)
REMARK    1  A    between atoms: C4_8  and  C5_10 
REMARK    2  A    between atoms: C5_10  and  N5_11 
REMARK    3  A    between atoms: N5_11  and  S2_12 
REMARK    4  A    between atoms: S2_12  and  C6_15 
ROOT
ATOM      1  C5  <0> d           0.073  -1.884   4.754  0.00  0.00     0.201 C 
ENDROOT
BRANCH   1   2
ATOM      2  C4  <0> d           0.057  -1.788   3.250  0.00  0.00     0.117 A 
ATOM      3  N4  <0> d           0.036  -0.728   2.499  0.00  0.00    -0.159 NA
ATOM      4  N3  <0> d           0.024  -0.821   1.114  0.00  0.00    -0.191 N 
ATOM      5  C2  <0> d           0.002  -0.004   0.002  0.00  0.00     0.148 A 
ATOM      6  C3  <0> d           0.033  -2.089   0.586  0.00  0.00     0.218 A 
ATOM      7  C1  <0> d          -0.018   1.503   0.010  0.00  0.00     0.095 C 
ATOM      8  N1  <0> d           0.008  -0.764  -1.057  0.00  0.00    -0.133 NA
ATOM      9  N2  <0> d           0.026  -2.004  -0.710  0.00  0.00    -0.120 NA
ATOM     10  S1  <0> d           0.052  -3.104   2.042  0.00  0.00    -0.030 SA
ENDBRANCH   1   2
BRANCH   1  11
ATOM     11  N5  <0> d           0.060  -0.536   5.329  0.00  0.00    -0.309 N 
ATOM     12  H6  <0> d           0.262   0.231   4.771  0.00  0.00     0.172 HD
BRANCH  11  13
ATOM     13  S2  <0> d          -0.299  -0.323   6.931  0.00  0.00     0.265 S 
ATOM     14  O1  <0> d          -0.204   1.071   7.187  0.00  0.00    -0.200 OA
ATOM     15  O2  <0> d          -1.484  -1.065   7.184  0.00  0.00    -0.200 OA
BRANCH  13  16
ATOM     16  C6  <0> d           0.985  -1.094   7.859  0.00  0.00     0.119 A 
ATOM     17  S3  <0> d           1.091  -2.775   8.451  0.00  0.00    -0.088 SA
ATOM     18  C9  <0> d           2.680  -2.658   9.258  0.00  0.00     0.051 A 
ATOM     19  C8  <0> d           3.014  -1.364   9.032  0.00  0.00     0.009 A 
ATOM     20  C7  <0> d           2.146  -0.562   8.315  0.00  0.00     0.033 A 
ENDBRANCH  13  16
ENDBRANCH  11  13
ENDBRANCH   1  11
TORSDOF 4
