REMARK  3 active torsions:
REMARK  status: ('A' for Active; 'I' for Inactive)
REMARK    1  A    between atoms: N1_2  and  S1_3 
REMARK    2  A    between atoms: S1_3  and  C2_6 
REMARK    3  A    between atoms: C5_9  and  N2_12 
ROOT
ATOM      1  C2  <0> d           2.438  -0.437  -1.202  0.00  0.00     0.079 A 
ATOM      2  C3  <0> d           2.925   0.657  -1.894  0.00  0.00     0.027 A 
ATOM      3  C4  <0> d           4.272   0.956  -1.857  0.00  0.00     0.033 A 
ATOM      4  C5  <0> d           5.139   0.158  -1.124  0.00  0.00     0.058 A 
ATOM      5  C6  <0> d           4.649  -0.940  -0.429  0.00  0.00     0.033 A 
ATOM      6  C7  <0> d           3.299  -1.231  -0.466  0.00  0.00     0.027 A 
ENDROOT
BRANCH   1   7
ATOM      7  S1  <0> d           0.718  -0.816  -1.251  0.00  0.00     0.258 S 
ATOM      8  O1  <0> d           0.599  -2.201  -0.959  0.00  0.00    -0.201 OA
ATOM      9  O2  <0> d           0.211  -0.243  -2.449  0.00  0.00    -0.201 OA
BRANCH   7  10
ATOM     10  N1  <0> d           0.002  -0.004   0.002  0.00  0.00    -0.320 N 
ATOM     11  C1  <0> d          -0.018   1.461   0.010  0.00  0.00     0.159 C 
ATOM     12  H4  <0> d          -0.404  -0.499   0.731  0.00  0.00     0.171 HD
ENDBRANCH   7  10
ENDBRANCH   1   7
BRANCH   4  13
ATOM     13  N2  <0> d           6.508   0.459  -1.085  0.00  0.00    -0.244 N 
ATOM     14  N3  <0> d           7.137   1.528  -1.735  0.00  0.00    -0.179 NA
ATOM     15  C10 <0> d           8.415   1.482  -1.460  0.00  0.00     0.159 A 
ATOM     16  C9  <0> d           8.648   0.377  -0.633  0.00  0.00     0.047 A 
ATOM     17  C8  <0> d           7.462  -0.238  -0.414  0.00  0.00     0.139 A 
ATOM     18 Br1  <0> d          10.324  -0.162   0.058  0.00  0.00    -0.048 Br
ENDBRANCH   4  13
TORSDOF 3
