REMARK  3 active torsions:
REMARK  status: ('A' for Active; 'I' for Inactive)
REMARK    1  A    between atoms: C8_12  and  C9_13 
REMARK       I    between atoms: C9_13  and  N3_15 
REMARK    2  A    between atoms: N3_15  and  C10_16 
REMARK    3  A    between atoms: C13_19  and  N4_22 
ROOT
ATOM      1  C9  <0> d          -0.156  -1.277   3.951  0.00  0.00     0.240 C 
ATOM      2  O2  <0> d          -0.273  -1.772   5.052  0.00  0.00    -0.272 OA
ATOM      3  N3  <0> d          -1.137  -0.497   3.455  0.00  0.00    -0.326 N 
ATOM      4  H8  <0> d          -1.017  -0.049   2.603  0.00  0.00     0.169 HD
ENDROOT
BRANCH   1   5
ATOM      5  C8  <0> d           1.086  -1.534   3.137  0.00  0.00     0.176 A 
ATOM      6  C2  <0> d           1.603  -2.936   3.366  0.00  0.00    -0.042 A 
ATOM      7  C1  <0> d           0.771  -4.141   3.011  0.00  0.00     0.046 C 
ATOM      8  C3  <0> d           2.830  -3.070   3.892  0.00  0.00     0.073 A 
ATOM      9  C6  <0> d           3.570  -4.332   4.210  0.00  0.00     0.281 A 
ATOM     10  C4  <0> d           3.579  -1.836   4.211  0.00  0.00     0.112 A 
ATOM     11  N2  <0> d           4.795  -4.223   4.736  0.00  0.00    -0.194 NA
ATOM     12  O1  <0> d           3.072  -5.425   3.998  0.00  0.00    -0.265 OA
ATOM     13  C5  <0> d           5.362  -3.066   4.979  0.00  0.00     0.127 A 
ATOM     14  N1  <0> d           4.783  -1.902   4.728  0.00  0.00    -0.226 NA
ATOM     15  C7  <0> d           6.747  -3.060   5.573  0.00  0.00     0.093 C 
ATOM     16  S1  <0> d           2.491  -0.514   3.743  0.00  0.00    -0.090 SA
ENDBRANCH   1   5
BRANCH   3  17
ATOM     17  C10 <0> d          -2.332  -0.334   4.170  0.00  0.00     0.034 A 
ATOM     18  C15 <0> d          -2.310  -0.297   5.558  0.00  0.00     0.032 A 
ATOM     19  C14 <0> d          -3.486  -0.131   6.263  0.00  0.00     0.031 A 
ATOM     20  C13 <0> d          -4.691  -0.012   5.584  0.00  0.00     0.030 A 
ATOM     21  C12 <0> d          -4.713  -0.055   4.196  0.00  0.00     0.031 A 
ATOM     22  C11 <0> d          -3.537  -0.215   3.491  0.00  0.00     0.032 A 
BRANCH  20  23
ATOM     23  N4  <0> d          -5.883   0.151   6.298  0.00  0.00    -0.377 N 
ATOM     24  C19 <0> d          -5.874   0.317   7.760  0.00  0.00     0.149 C 
ATOM     25  C18 <0> d          -6.866  -0.673   8.370  0.00  0.00     0.187 C 
ATOM     26  O3  <0> d          -8.133  -0.532   7.722  0.00  0.00    -0.388 OA
ATOM     27  C17 <0> d          -8.112  -0.833   6.325  0.00  0.00     0.187 C 
ATOM     28  C16 <0> d          -7.184   0.154   5.609  0.00  0.00     0.149 C 
ENDBRANCH  20  23
ENDBRANCH   3  17
TORSDOF 3
