REMARK  3 active torsions:
REMARK  status: ('A' for Active; 'I' for Inactive)
REMARK    1  A    between atoms: C3_3  and  C9_15 
REMARK    2  A    between atoms: N2_5  and  C5_8 
REMARK    3  A    between atoms: C4_6  and  N3_7 
ROOT
ATOM      1  C1  <0> d          -0.018   1.503   0.010  0.00  0.00     0.055 C 
ATOM      2  C2  <0> d           0.002  -0.004   0.002  0.00  0.00     0.012 A 
ATOM      3  C3  <0> d           0.008  -0.827  -1.139  0.00  0.00     0.070 A 
ATOM      4  N1  <0> d           0.028  -2.081  -0.741  0.00  0.00    -0.295 N 
ATOM      5  N2  <0> d           0.035  -2.098   0.660  0.00  0.00    -0.270 N 
ATOM      6  C4  <0> d           0.024  -0.811   1.096  0.00  0.00     0.124 A 
ATOM      7  H16 <0> d           0.036  -2.860  -1.318  0.00  0.00     0.187 HD
ENDROOT
BRANCH   5   8
ATOM      8  C5  <0> d           0.055  -3.294   1.506  0.00  0.00     0.124 C 
ATOM      9  C8  <0> d          -1.202  -4.162   1.218  0.00  0.00     0.167 C 
ATOM     10  S1  <0> d          -0.649  -5.788   1.886  0.00  0.00     0.146 S 
ATOM     11  C7  <0> d           1.172  -5.537   1.829  0.00  0.00     0.142 C 
ATOM     12  O1  <0> d          -1.004  -6.811   0.965  0.00  0.00    -0.228 OA
ATOM     13  O2  <0> d          -1.059  -5.896   3.242  0.00  0.00    -0.228 OA
ATOM     14  C6  <0> d           1.302  -4.135   1.185  0.00  0.00     0.043 C 
ENDBRANCH   5   8
BRANCH   6  15
ATOM     15  N3  <0> d           0.031  -0.394   2.424  0.00  0.00    -0.384 N 
ATOM     16  H5  <0> d           0.019   0.552   2.635  0.00  0.00     0.157 HD
ATOM     17  H6  <0> d           0.047  -1.051   3.138  0.00  0.00     0.157 HD
ENDBRANCH   6  15
BRANCH   3  18
ATOM     18  C9  <0> d          -0.005  -0.361  -2.549  0.00  0.00     0.017 A 
ATOM     19  C12 <0> d           0.743   0.633  -3.090  0.00  0.00     0.155 A 
ATOM     20  O3  <0> d           0.435   0.738  -4.391  0.00  0.00    -0.334 OA
ATOM     21  C11 <0> d          -0.507  -0.156  -4.729  0.00  0.00     0.142 A 
ATOM     22  C10 <0> d          -0.835  -0.877  -3.644  0.00  0.00     0.040 A 
ENDBRANCH   3  18
TORSDOF 3
