REMARK  5 active torsions:
REMARK  status: ('A' for Active; 'I' for Inactive)
REMARK    1  A    between atoms: C4_4  and  N1_7 
REMARK    2  A    between atoms: C8_9  and  C14_17 
REMARK    3  A    between atoms: C9_10  and  C10_12 
REMARK    4  A    between atoms: C17_22  and  N4_24 
REMARK    5  A    between atoms: C20_27  and  C23_30 
REMARK       I    between atoms: C23_30  and  N5_32 
ROOT
ATOM      1  C14 <0> d           1.669  -1.961  -0.025  0.00  0.00     0.040 C 
ATOM      2  C15 <0> d           1.335  -0.643  -0.014  0.00  0.00     0.079 A 
ATOM      3  C16 <0> d           0.002  -0.004   0.002  0.00  0.00     0.286 A 
ATOM      4  O1  <0> d          -1.027  -0.662   0.009  0.00  0.00    -0.265 OA
ATOM      5  N3  <0> d          -0.016   1.311   0.009  0.00  0.00    -0.184 NA
ATOM      6  C17 <0> d           1.092   2.036   0.003  0.00  0.00     0.173 A 
ATOM      7  S2  <0> d           2.385   0.805  -0.016  0.00  0.00    -0.047 SA
ENDROOT
BRANCH   1   8
ATOM      8  C8  <0> d           3.079  -2.359  -0.041  0.00  0.00     0.015 A 
ATOM      9  C7  <0> d           4.179  -1.520  -0.046  0.00  0.00     0.132 A 
ATOM     10  N1  <0> d           5.284  -2.287  -0.061  0.00  0.00    -0.244 N 
ATOM     11  N2  <0> d           4.920  -3.637  -0.066  0.00  0.00    -0.166 NA
ATOM     12  C9  <0> d           3.607  -3.731  -0.048  0.00  0.00     0.106 A 
BRANCH  10  13
ATOM     13  C4  <0> d           6.599  -1.807  -0.071  0.00  0.00     0.058 A 
ATOM     14  C3  <0> d           7.665  -2.697  -0.086  0.00  0.00     0.031 A 
ATOM     15  C2  <0> d           8.961  -2.219  -0.097  0.00  0.00     0.002 A 
ATOM     16  C1  <0> d           9.197  -0.857  -0.092  0.00  0.00     0.000 A 
ATOM     17  C6  <0> d           8.138   0.032  -0.077  0.00  0.00     0.002 A 
ATOM     18  C5  <0> d           6.840  -0.439  -0.072  0.00  0.00     0.031 A 
ENDBRANCH  10  13
BRANCH  12  19
ATOM     19  C10 <0> d           2.816  -4.977  -0.040  0.00  0.00     0.036 A 
ATOM     20  S1  <0> d           1.263  -5.318   0.771  0.00  0.00    -0.100 SA
ATOM     21  C13 <0> d           1.071  -7.013   0.246  0.00  0.00     0.050 A 
ATOM     22  C12 <0> d           2.187  -7.208  -0.503  0.00  0.00     0.008 A 
ATOM     23  C11 <0> d           3.080  -6.171  -0.659  0.00  0.00     0.022 A 
ENDBRANCH  12  19
ENDBRANCH   1   8
BRANCH   6  24
ATOM     24  N4  <0> d           1.216   3.401   0.008  0.00  0.00    -0.360 N 
ATOM     25  C22 <0> d           0.024   4.261   0.024  0.00  0.00     0.126 C 
ATOM     26  C21 <0> d           0.117   5.253  -1.139  0.00  0.00     0.034 C 
ATOM     27  C20 <0> d           1.442   6.013  -1.051  0.00  0.00     0.081 C 
ATOM     28  C19 <0> d           2.607   5.027  -1.164  0.00  0.00     0.034 C 
ATOM     29  C18 <0> d           2.542   4.032   0.005  0.00  0.00     0.126 C 
BRANCH  27  30
ATOM     30  C23 <0> d           1.522   7.015  -2.174  0.00  0.00     0.219 C 
ATOM     31  O2  <0> d           0.609   7.111  -2.967  0.00  0.00    -0.273 OA
ATOM     32  N5  <0> d           2.608   7.804  -2.298  0.00  0.00    -0.370 N 
ATOM     33  H20 <0> d           3.338   7.727  -1.664  0.00  0.00     0.159 HD
ATOM     34  H21 <0> d           2.659   8.448  -3.021  0.00  0.00     0.159 HD
ENDBRANCH  27  30
ENDBRANCH   6  24
TORSDOF 5
