REMARK  3 active torsions:
REMARK  status: ('A' for Active; 'I' for Inactive)
REMARK    1  A    between atoms: N1_2  and  C3_4 
REMARK    2  A    between atoms: N2_7  and  C7_9 
REMARK    3  A    between atoms: C12_14  and  N3_15 
ROOT
ATOM      1  C7  <0> d           4.063  -0.799  -2.759  0.00  0.00     0.059 A 
ATOM      2  C8  <0> d           4.024  -0.295  -4.056  0.00  0.00     0.033 A 
ATOM      3  C9  <0> d           5.206  -0.081  -4.740  0.00  0.00     0.024 A 
ATOM      4  C10 <0> d           6.405  -0.369  -4.133  0.00  0.00     0.037 A 
ATOM      5  C11 <0> d           6.487  -0.882  -2.820  0.00  0.00     0.102 A 
ATOM      6  C12 <0> d           5.265  -1.087  -2.138  0.00  0.00     0.083 A 
ATOM      7  N4  <0> d           7.754  -1.098  -2.407  0.00  0.00    -0.250 NA
ATOM      8  C13 <0> d           8.781  -0.849  -3.164  0.00  0.00     0.167 A 
ATOM      9  S1  <0> d           8.115  -0.265  -4.595  0.00  0.00    -0.080 SA
ENDROOT
BRANCH   1  10
ATOM     10  N2  <0> d           2.861  -1.014  -2.067  0.00  0.00    -0.377 N 
ATOM     11  C5  <0> d           2.081  -2.261  -2.071  0.00  0.00     0.125 C 
ATOM     12  C4  <0> d           0.833  -2.023  -1.196  0.00  0.00     0.054 C 
ATOM     13  C3  <0> d           0.690  -0.478  -1.207  0.00  0.00     0.206 C 
ATOM     14  C6  <0> d           2.172  -0.028  -1.215  0.00  0.00     0.156 C 
BRANCH  13  15
ATOM     15  N1  <0> d           0.002  -0.004   0.002  0.00  0.00    -0.073 N 
ATOM     16  C1  <0> d          -0.018   1.465   0.010  0.00  0.00     0.269 C 
ATOM     17  C2  <0> d          -1.376  -0.512   0.012  0.00  0.00     0.269 C 
ATOM     18  H19 <0> d           0.490  -0.338   0.820  0.00  0.00     0.279 HD
ENDBRANCH  13  15
ENDBRANCH   1  10
BRANCH   6  19
ATOM     19  N3  <0> d           5.271  -1.589  -0.830  0.00  0.00    -0.395 N 
ATOM     20  H16 <0> d           4.434  -1.734  -0.362  0.00  0.00     0.156 HD
ATOM     21  H17 <0> d           6.113  -1.792  -0.393  0.00  0.00     0.156 HD
ENDBRANCH   6  19
TORSDOF 3
