REMARK  8 active torsions:
REMARK  status: ('A' for Active; 'I' for Inactive)
REMARK    1  A    between atoms: C2_2  and  C3_3 
REMARK    2  A    between atoms: C3_3  and  N1_5 
REMARK       I    between atoms: N1_5  and  C5_6 
REMARK    3  A    between atoms: C5_6  and  C6_8 
REMARK    4  A    between atoms: C6_8  and  N2_9 
REMARK    5  A    between atoms: N3_12  and  C11_15 
REMARK    6  A    between atoms: C11_15  and  C12_16 
REMARK    7  A    between atoms: C14_18  and  C19_24 
REMARK    8  A    between atoms: C17_21  and  O2_22 
ROOT
ATOM      1  N2  <0> d           4.615   1.316   4.010  0.00  0.00     0.100 N 
ATOM      2  C7  <0> d           4.647  -0.107   4.375  0.00  0.00     0.300 C 
ATOM      3  C8  <0> d           5.291  -0.261   5.755  0.00  0.00     0.265 C 
ATOM      4  N3  <0> d           6.654   0.286   5.723  0.00  0.00    -0.064 N 
ATOM      5  C9  <0> d           6.603   1.713   5.381  0.00  0.00     0.265 C 
ATOM      6  C10 <0> d           5.970   1.884   3.998  0.00  0.00     0.300 C 
ATOM      7  H36 <0> d           7.198  -0.207   5.031  0.00  0.00     0.280 HD
ENDROOT
BRANCH   4   8
ATOM      8  C11 <0> d           7.278   0.121   7.043  0.00  0.00     0.276 C 
BRANCH   8   9
ATOM      9  C12 <0> d           8.716   0.569   6.978  0.00  0.00     0.001 A 
ATOM     10  C17 <0> d           9.665  -0.232   6.361  0.00  0.00     0.074 A 
ATOM     11  C16 <0> d          10.987   0.186   6.298  0.00  0.00     0.044 A 
ATOM     12  C15 <0> d          11.356   1.393   6.859  0.00  0.00    -0.053 A 
ATOM     13  C14 <0> d          10.409   2.187   7.480  0.00  0.00    -0.048 A 
ATOM     14  C18 <0> d          12.792   1.845   6.796  0.00  0.00     0.049 C 
ATOM     15  C13 <0> d           9.090   1.775   7.539  0.00  0.00     0.019 A 
BRANCH  10  16
ATOM     16  O2  <0> d           9.301  -1.421   5.814  0.00  0.00    -0.360 OA
ATOM     17  H25 <0> d           9.034  -1.363   4.886  0.00  0.00     0.217 HD
ENDBRANCH  10  16
BRANCH  13  18
ATOM     18  C19 <0> d          10.814   3.503   8.091  0.00  0.00     0.011 C 
ATOM     19  C20 <0> d          10.151   4.648   7.323  0.00  0.00     0.015 C 
ATOM     20  C21 <0> d          10.368   3.544   9.554  0.00  0.00     0.015 C 
ENDBRANCH  13  18
ENDBRANCH   8   9
ENDBRANCH   4   8
BRANCH   1  21
ATOM     21  C6  <0> d           3.951   1.512   2.714  0.00  0.00     0.374 C 
BRANCH  21  22
ATOM     22  C5  <0> d           2.495   1.144   2.835  0.00  0.00     0.246 C 
ATOM     23  N1  <0> d           1.683   1.245   1.763  0.00  0.00    -0.355 N 
ATOM     24  H10 <0> d           2.036   1.554   0.914  0.00  0.00     0.162 HD
ATOM     25  O1  <0> d           2.053   0.758   3.896  0.00  0.00    -0.272 OA
BRANCH  23  26
ATOM     26  C3  <0> d           0.267   0.888   1.881  0.00  0.00     0.080 C 
ATOM     27  C4  <0> d           0.103  -0.620   1.679  0.00  0.00     0.032 C 
BRANCH  26  28
ATOM     28  C2  <0> d          -0.538   1.636   0.816  0.00  0.00     0.020 C 
ATOM     29  C1  <0> d          -0.475   3.139   1.091  0.00  0.00     0.007 C 
ENDBRANCH  26  28
ENDBRANCH  23  26
ENDBRANCH  21  22
ENDBRANCH   1  21
TORSDOF 8
