REMARK  4 active torsions:
REMARK  status: ('A' for Active; 'I' for Inactive)
REMARK    1  A    between atoms: C3_5  and  C11_14 
REMARK    2  A    between atoms: N2_7  and  C5_8 
REMARK       I    between atoms: C11_14  and  N3_16 
REMARK    3  A    between atoms: N3_16  and  S1_17 
REMARK    4  A    between atoms: S1_17  and  C12_20 
ROOT
ATOM      1  C11 <0> d           2.288   1.811  -1.191  0.00  0.00     0.272 C 
ATOM      2  O2  <0> d           1.663   1.280  -2.090  0.00  0.00    -0.266 OA
ATOM      3  N3  <0> d           1.676   2.107  -0.028  0.00  0.00    -0.246 N 
ATOM      4  H10 <0> d           2.154   2.595   0.661  0.00  0.00     0.182 HD
ENDROOT
BRANCH   1   5
ATOM      5  C3  <0> d           3.710   2.128  -1.374  0.00  0.00     0.119 A 
ATOM      6  C2  <0> d           4.604   2.764  -0.393  0.00  0.00     0.279 A 
ATOM      7  N1  <0> d           5.814   2.860  -0.982  0.00  0.00    -0.255 N 
ATOM      8  O1  <0> d           4.309   3.130   0.729  0.00  0.00    -0.265 OA
ATOM      9  C1  <0> d           7.017   3.432  -0.374  0.00  0.00     0.182 C 
ATOM     10  N2  <0> d           5.726   2.322  -2.270  0.00  0.00    -0.262 N 
ATOM     11  C4  <0> d           4.473   1.882  -2.499  0.00  0.00     0.139 A 
BRANCH  10  12
ATOM     12  C5  <0> d           6.783   2.248  -3.182  0.00  0.00     0.056 A 
ATOM     13  C10 <0> d           7.044   1.058  -3.849  0.00  0.00     0.031 A 
ATOM     14  C9  <0> d           8.089   0.989  -4.750  0.00  0.00     0.002 A 
ATOM     15  C8  <0> d           8.874   2.102  -4.988  0.00  0.00     0.000 A 
ATOM     16  C7  <0> d           8.617   3.288  -4.325  0.00  0.00     0.002 A 
ATOM     17  C6  <0> d           7.570   3.366  -3.427  0.00  0.00     0.031 A 
ENDBRANCH  10  12
ENDBRANCH   1   5
BRANCH   3  18
ATOM     18  S1  <0> d           0.108   1.640   0.225  0.00  0.00     0.267 S 
ATOM     19  O3  <0> d          -0.631   2.063  -0.913  0.00  0.00    -0.200 OA
ATOM     20  O4  <0> d          -0.229   2.045   1.545  0.00  0.00    -0.200 OA
BRANCH  18  21
ATOM     21  C12 <0> d           0.081  -0.122   0.216  0.00  0.00     0.101 A 
ATOM     22  C17 <0> d           0.752  -0.829   1.199  0.00  0.00     0.057 A 
ATOM     23  C16 <0> d           0.730  -2.212   1.191  0.00  0.00     0.025 A 
ATOM     24 Cl1  <0> d           1.619   0.020   2.440  0.00  0.00    -0.083 Cl
ATOM     25  C15 <0> d           0.039  -2.887   0.203  0.00  0.00     0.002 A 
ATOM     26  C14 <0> d          -0.631  -2.180  -0.778  0.00  0.00     0.002 A 
ATOM     27  C13 <0> d          -0.614  -0.798  -0.768  0.00  0.00     0.027 A 
ENDBRANCH  18  21
ENDBRANCH   3  18
TORSDOF 4
