REMARK  4 active torsions:
REMARK  status: ('A' for Active; 'I' for Inactive)
REMARK    1  A    between atoms: C2_2  and  C3_3 
REMARK    2  A    between atoms: C3_3  and  N5_27 
REMARK    3  A    between atoms: C14_14  and  N6_29 
REMARK    4  A    between atoms: C17_17  and  N2_21 
ROOT
ATOM      1  C4  <0> d           0.003  -0.004  -0.001  0.00  0.00     0.262 C 
ATOM      2  C5  <0> d          -0.018   1.495   0.007  0.00  0.00     0.005 C 
ATOM      3  C6  <0> d           1.074   2.227   0.002  0.00  0.00    -0.052 C 
ATOM      4  C7  <0> d           2.452   1.617   0.046  0.00  0.00     0.053 C 
ATOM      5  C8  <0> d           2.424   0.131   0.319  0.00  0.00     0.245 C 
ATOM      6  C9  <0> d           3.276   2.409   1.073  0.00  0.00     0.011 C 
ATOM      7  C10 <0> d           4.633   1.753   1.272  0.00  0.00     0.041 C 
ATOM      8  C11 <0> d           4.584   0.534   2.187  0.00  0.00     0.235 C 
ATOM      9  C12 <0> d           2.541   1.286   3.245  0.00  0.00     0.235 C 
ATOM     10  C13 <0> d           2.491   2.535   2.373  0.00  0.00     0.041 C 
ATOM     11  C16 <0> d           3.469   3.820   0.486  0.00  0.00     0.186 C 
ATOM     12  C17 <0> d           2.142   4.432   0.141  0.00  0.00     0.063 C 
ATOM     13  C18 <0> d           1.015   3.707  -0.084  0.00  0.00     0.171 C 
ATOM     14  C19 <0> d          -0.202   4.386  -0.410  0.00  0.00     0.074 C 
ATOM     15  N1  <0> d          -1.168   4.925  -0.669  0.00  0.00    -0.196 NA
ATOM     16  C20 <0> d           4.294   3.763  -0.733  0.00  0.00     0.091 C 
ATOM     17  N3  <0> d           4.930   3.719  -1.673  0.00  0.00    -0.195 NA
ATOM     18  C21 <0> d           4.154   4.704   1.442  0.00  0.00     0.091 C 
ATOM     19  N4  <0> d           4.683   5.386   2.180  0.00  0.00    -0.195 NA
ATOM     20  N5  <0> d           1.319  -0.541  -0.409  0.00  0.00    -0.067 N 
ATOM     21  H29 <0> d           1.441  -0.369  -1.414  0.00  0.00     0.280 HD
ATOM     22  N6  <0> d           3.943   0.887   3.468  0.00  0.00    -0.071 N 
ATOM     23  H30 <0> d           4.449   1.678   3.884  0.00  0.00     0.279 HD
ENDROOT
BRANCH  12  24
ATOM     24  N2  <0> d           2.063   5.794   0.049  0.00  0.00    -0.304 NA
ATOM     25  H27 <0> d           1.218   6.217  -0.171  0.00  0.00     0.186 HD
ENDBRANCH  12  24
BRANCH  20  26
ATOM     26  C3  <0> d           1.372  -1.993  -0.172  0.00  0.00     0.234 C 
BRANCH  26  27
ATOM     27  C2  <0> d           1.234  -2.332   1.313  0.00  0.00     0.023 C 
ATOM     28  C1  <0> d           1.297  -3.850   1.498  0.00  0.00     0.007 C 
ENDBRANCH  26  27
ENDBRANCH  20  26
BRANCH  22  29
ATOM     29  C14 <0> d           4.002  -0.261   4.398  0.00  0.00     0.230 C 
ATOM     30  C15 <0> d           5.421  -0.833   4.396  0.00  0.00     0.034 C 
ENDBRANCH  22  29
TORSDOF 4
