REMARK  6 active torsions:
REMARK  status: ('A' for Active; 'I' for Inactive)
REMARK    1  A    between atoms: N1_5  and  C5_7 
REMARK    2  A    between atoms: C5_7  and  C6_8 
REMARK    3  A    between atoms: C6_8  and  C7_9 
REMARK       I    between atoms: C7_9  and  N3_11 
REMARK    4  A    between atoms: N3_11  and  C9_13 
REMARK    5  A    between atoms: C9_13  and  C10_14 
REMARK    6  A    between atoms: C10_14  and  C11_15 
ROOT
ATOM      1  C7  <0> d           1.525  -4.907   2.664  0.00  0.00     0.221 C 
ATOM      2  O1  <0> d           0.484  -5.412   3.025  0.00  0.00    -0.273 OA
ATOM      3  N3  <0> d           2.702  -5.436   3.054  0.00  0.00    -0.356 N 
ATOM      4  C8  <0> d           3.960  -4.825   2.618  0.00  0.00     0.152 C 
ENDROOT
BRANCH   1   5
ATOM      5  C6  <0> d           1.504  -3.687   1.779  0.00  0.00     0.125 C 
BRANCH   5   6
ATOM      6  C5  <0> d           0.055  -3.295   1.486  0.00  0.00     0.160 C 
BRANCH   6   7
ATOM      7  N1  <0> d           0.034  -2.109   0.625  0.00  0.00    -0.272 N 
ATOM      8  C4  <0> d           0.028  -2.108  -0.725  0.00  0.00     0.050 A 
ATOM      9  C3  <0> d           0.008  -0.818  -1.136  0.00  0.00     0.083 A 
ATOM     10  C12 <0> d           0.041  -3.324  -1.615  0.00  0.00     0.072 C 
ATOM     11  C2  <0> d           0.002  -0.004   0.002  0.00  0.00     0.074 A 
ATOM     12 Cl1  <0> d          -0.008  -0.271  -2.784  0.00  0.00    -0.080 Cl
ATOM     13  C1  <0> d          -0.018   1.503   0.010  0.00  0.00     0.074 C 
ATOM     14  N2  <0> d           0.023  -0.777   1.058  0.00  0.00    -0.176 NA
ENDBRANCH   6   7
ENDBRANCH   5   6
ENDBRANCH   1   5
BRANCH   3  15
ATOM     15  C9  <0> d           2.723  -6.621   3.915  0.00  0.00     0.132 C 
BRANCH  15  16
ATOM     16  C10 <0> d           2.736  -7.881   3.047  0.00  0.00     0.089 C 
BRANCH  16  17
ATOM     17  C11 <0> d           2.757  -9.100   3.933  0.00  0.00     0.072 C 
ATOM     18  S1  <0> d           2.762  -8.934   5.523  0.00  0.00    -0.066 SA
ATOM     19  N4  <0> d           2.772 -10.331   3.384  0.00  0.00    -0.393 N 
ATOM     20  H15 <0> d           2.768 -10.432   2.419  0.00  0.00     0.156 HD
ATOM     21  H16 <0> d           2.785 -11.116   3.954  0.00  0.00     0.156 HD
ENDBRANCH  16  17
ENDBRANCH  15  16
ENDBRANCH   3  15
TORSDOF 6
