REMARK  4 active torsions:
REMARK  status: ('A' for Active; 'I' for Inactive)
REMARK    1  A    between atoms: C3_3  and  C6_8 
REMARK    2  A    between atoms: C6_8  and  N3_10 
REMARK       I    between atoms: N3_10  and  C8_11 
REMARK    3  A    between atoms: C8_11  and  C9_13 
REMARK       I    between atoms: N4_15  and  C17_23 
REMARK    4  A    between atoms: C17_23  and  C18_25 
ROOT
ATOM      1  C9  <0> d           0.708   3.493  -4.318  0.00  0.00     0.106 C 
ATOM      2  C10 <0> d          -0.733   3.813  -3.860  0.00  0.00     0.141 C 
ATOM      3  N4  <0> d          -1.307   4.617  -4.964  0.00  0.00    -0.346 N 
ATOM      4  C11 <0> d          -0.788   3.977  -6.196  0.00  0.00     0.136 C 
ATOM      5  C12 <0> d           0.667   3.601  -5.852  0.00  0.00    -0.007 C 
ATOM      6  C13 <0> d           1.029   2.261  -6.486  0.00  0.00     0.039 C 
ATOM      7  C14 <0> d           1.039   2.409  -8.010  0.00  0.00     0.233 C 
ATOM      8  N5  <0> d           2.014   3.435  -8.398  0.00  0.00    -0.075 N 
ATOM      9  C15 <0> d           1.607   4.740  -7.861  0.00  0.00     0.233 C 
ATOM     10  C16 <0> d           1.621   4.691  -6.330  0.00  0.00     0.039 C 
ATOM     11  C17 <0> d          -2.118   5.690  -4.869  0.00  0.00     0.255 C 
ATOM     12  O2  <0> d          -2.577   6.195  -5.875  0.00  0.00    -0.267 OA
ATOM     13  H22 <0> d           2.922   3.191  -8.031  0.00  0.00     0.277 HD
ATOM     14  H30 <0> d           2.063   3.488  -9.404  0.00  0.00     0.277 HD
ENDROOT
BRANCH   1  15
ATOM     15  C8  <0> d           1.094   2.098  -3.900  0.00  0.00     0.224 C 
ATOM     16  N3  <0> d           2.383   1.805  -3.639  0.00  0.00    -0.353 N 
ATOM     17  H13 <0> d           3.062   2.493  -3.720  0.00  0.00     0.163 HD
ATOM     18  O1  <0> d           0.244   1.238  -3.799  0.00  0.00    -0.273 OA
BRANCH  16  19
ATOM     19  C6  <0> d           2.759   0.449  -3.233  0.00  0.00     0.113 C 
ATOM     20  C7  <0> d           2.594   0.306  -1.718  0.00  0.00     0.037 C 
BRANCH  19  21
ATOM     21  C3  <0> d           4.195   0.191  -3.608  0.00  0.00    -0.006 A 
ATOM     22  C2  <0> d           5.425   0.983  -3.201  0.00  0.00     0.160 A 
ATOM     23  C1  <0> d           5.337   2.422  -3.714  0.00  0.00     0.041 C 
ATOM     24  N2  <0> d           6.524   0.260  -3.864  0.00  0.00    -0.183 NA
ATOM     25  N1  <0> d           6.026  -0.688  -4.483  0.00  0.00    -0.159 NA
ATOM     26  C4  <0> d           4.682  -0.786  -4.376  0.00  0.00     0.059 A 
ATOM     27  C5  <0> d           3.847  -1.854  -5.034  0.00  0.00     0.072 C 
ENDBRANCH  19  21
ENDBRANCH  16  19
ENDBRANCH   1  15
BRANCH  11  28
ATOM     28  C18 <0> d          -2.450   6.250  -3.543  0.00  0.00     0.055 A 
ATOM     29  C23 <0> d          -2.621   7.628  -3.386  0.00  0.00     0.071 A 
ATOM     30  C22 <0> d          -2.937   8.144  -2.143  0.00  0.00     0.056 A 
ATOM     31 Cl1  <0> d          -2.444   8.688  -4.750  0.00  0.00    -0.081 Cl
ATOM     32  C21 <0> d          -3.072   7.300  -1.055  0.00  0.00     0.026 A 
ATOM     33 Cl2  <0> d          -3.158   9.855  -1.946  0.00  0.00    -0.083 Cl
ATOM     34  C20 <0> d          -2.899   5.935  -1.204  0.00  0.00     0.003 A 
ATOM     35  C19 <0> d          -2.589   5.406  -2.439  0.00  0.00     0.019 A 
ENDBRANCH  11  28
TORSDOF 4
