REMARK  3 active torsions:
REMARK  status: ('A' for Active; 'I' for Inactive)
REMARK    1  A    between atoms: C6_6  and  N1_8 
REMARK    2  A    between atoms: N1_8  and  C8_9 
REMARK    3  A    between atoms: C8_9  and  C9_10 
ROOT
ATOM      1  C9  <0> d           0.067  -3.061   4.803  0.00  0.00     0.125 A 
ATOM      2  N2  <0> d           0.061  -2.582   6.074  0.00  0.00    -0.309 N 
ATOM      3  H1  <0> d           0.045  -1.626   6.237  0.00  0.00     0.170 HD
ATOM      4  C10 <0> d           0.077  -3.453   7.112  0.00  0.00     0.266 A 
ATOM      5  O1  <0> d           0.073  -3.054   8.265  0.00  0.00    -0.267 OA
ATOM      6  C11 <0> d           0.100  -4.818   6.825  0.00  0.00     0.101 A 
ATOM      7  C12 <0> d           0.105  -5.287   5.500  0.00  0.00     0.082 A 
ATOM      8  N3  <0> d           0.082  -4.324   4.521  0.00  0.00    -0.232 NA
ATOM      9  C13 <0> d           0.128  -6.681   5.354  0.00  0.00     0.040 A 
ATOM     10  C14 <0> d           0.143  -7.478   6.444  0.00  0.00     0.053 A 
ATOM     11  S1  <0> d           0.127  -6.305   7.790  0.00  0.00    -0.094 SA
ENDROOT
BRANCH   1  12
ATOM     12  C8  <0> d           0.048  -2.074   3.664  0.00  0.00     0.198 C 
BRANCH  12  13
ATOM     13  N1  <0> d           0.051  -2.796   2.390  0.00  0.00    -0.382 N 
ATOM     14  H8  <0> d           0.064  -3.766   2.383  0.00  0.00     0.160 HD
BRANCH  13  15
ATOM     15  C6  <0> d           0.036  -2.089   1.186  0.00  0.00     0.034 A 
ATOM     16  C5  <0> d           0.039  -2.773  -0.023  0.00  0.00    -0.036 A 
ATOM     17  C4  <0> d           0.024  -2.071  -1.212  0.00  0.00     0.009 A 
ATOM     18  C15 <0> d           0.059  -4.280  -0.037  0.00  0.00     0.050 C 
ATOM     19  C3  <0> d           0.006  -0.688  -1.200  0.00  0.00     0.007 A 
ATOM     20  C2  <0> d           0.002  -0.004   0.002  0.00  0.00    -0.060 A 
ATOM     21  C1  <0> d          -0.018   1.503   0.010  0.00  0.00     0.048 C 
ATOM     22  C7  <0> d           0.023  -0.700   1.194  0.00  0.00     0.036 A 
ENDBRANCH  13  15
ENDBRANCH  12  13
ENDBRANCH   1  12
TORSDOF 3
