REMARK  6 active torsions:
REMARK  status: ('A' for Active; 'I' for Inactive)
REMARK    1  A    between atoms: C4_4  and  N2_15 
REMARK    2  A    between atoms: C10_11  and  C11_12 
REMARK    3  A    between atoms: N2_15  and  C14_16 
REMARK    4  A    between atoms: C14_16  and  C15_17 
REMARK    5  A    between atoms: C18_20  and  N3_24 
REMARK    6  A    between atoms: C23_27  and  O1_30 
ROOT
ATOM      1  N2  <0> d           0.048  -2.789  -2.358  0.00  0.00    -0.372 N 
ATOM      2  H15 <0> d           0.061  -3.759  -2.360  0.00  0.00     0.161 HD
ENDROOT
BRANCH   1   3
ATOM      3  C4  <0> d           0.039  -2.098  -1.155  0.00  0.00     0.102 A 
ATOM      4  C3  <0> d           0.020  -0.696  -1.171  0.00  0.00     0.056 A 
ATOM      5  C2  <0> d           0.011  -0.004   0.002  0.00  0.00    -0.046 A 
ATOM      6  C1  <0> d          -0.009   1.503   0.010  0.00  0.00     0.049 C 
ATOM      7  C6  <0> d           0.028  -0.733   1.208  0.00  0.00    -0.003 A 
ATOM      8  C5  <0> d           0.042  -2.149   1.158  0.00  0.00     0.051 A 
ATOM      9  C7  <0> d           0.026  -0.084   2.452  0.00  0.00     0.014 A 
ATOM     10  N1  <0> d           0.049  -2.774  -0.025  0.00  0.00    -0.342 N 
ATOM     11  C10 <0> d           0.052  -2.876   2.361  0.00  0.00    -0.027 A 
ATOM     12  H31 <0> d           0.062  -3.744  -0.050  0.00  0.00     0.167 HD
ATOM     13  C9  <0> d           0.062  -2.213   3.550  0.00  0.00     0.010 A 
ATOM     14  C8  <0> d           0.042  -0.822   3.597  0.00  0.00     0.002 A 
BRANCH  11  15
ATOM     15  C11 <0> d           0.072  -4.382   2.333  0.00  0.00     0.013 C 
ATOM     16  C12 <0> d           1.399  -4.885   2.908  0.00  0.00     0.015 C 
ATOM     17  C13 <0> d          -1.085  -4.923   3.175  0.00  0.00     0.015 C 
ENDBRANCH  11  15
ENDBRANCH   1   3
BRANCH   1  18
ATOM     18  C14 <0> d           0.036  -2.054  -3.625  0.00  0.00     0.160 C 
BRANCH  18  19
ATOM     19  C15 <0> d           0.049  -3.031  -4.772  0.00  0.00    -0.037 A 
ATOM     20  C20 <0> d          -1.144  -3.495  -5.296  0.00  0.00     0.053 A 
ATOM     21  C19 <0> d          -1.136  -4.387  -6.353  0.00  0.00     0.143 A 
ATOM     22  C18 <0> d           0.074  -4.825  -6.880  0.00  0.00     0.069 A 
ATOM     23  F1  <0> d          -2.301  -4.836  -6.869  0.00  0.00    -0.204 F 
ATOM     24  C17 <0> d           1.269  -4.361  -6.347  0.00  0.00     0.033 A 
ATOM     25  C16 <0> d           1.253  -3.466  -5.295  0.00  0.00     0.011 A 
BRANCH  22  26
ATOM     26  N3  <0> d           0.087  -5.731  -7.946  0.00  0.00    -0.378 N 
ATOM     27  C25 <0> d           0.103  -7.179  -7.697  0.00  0.00     0.125 C 
ATOM     28  C24 <0> d          -1.061  -7.820  -8.469  0.00  0.00     0.051 C 
ATOM     29  C23 <0> d          -0.959  -7.436  -9.946  0.00  0.00     0.121 C 
ATOM     30  C22 <0> d          -1.066  -5.915 -10.088  0.00  0.00     0.051 C 
ATOM     31  C21 <0> d           0.092  -5.253  -9.335  0.00  0.00     0.125 C 
BRANCH  29  32
ATOM     32  O1  <0> d          -2.019  -8.058 -10.675  0.00  0.00    -0.395 OA
ATOM     33  H30 <0> d          -2.013  -9.024 -10.629  0.00  0.00     0.210 HD
ENDBRANCH  29  32
ENDBRANCH  22  26
ENDBRANCH  18  19
ENDBRANCH   1  18
TORSDOF 6
