REMARK  3 active torsions:
REMARK  status: ('A' for Active; 'I' for Inactive)
REMARK    1  A    between atoms: C8_9  and  C11_14 
REMARK    2  A    between atoms: C11_14  and  C12_15 
REMARK    3  A    between atoms: C12_15  and  N2_16 
ROOT
ATOM      1  C1  <0> d          -0.018   1.503   0.010  0.00  0.00     0.051 C 
ATOM      2  C2  <0> d           0.002  -0.004   0.002  0.00  0.00    -0.025 A 
ATOM      3  C3  <0> d           0.001  -0.689  -1.199  0.00  0.00     0.029 A 
ATOM      4  C4  <0> d           0.043  -2.067  -1.196  0.00  0.00     0.019 A 
ATOM      5  C5  <0> d           0.074  -2.776   0.002  0.00  0.00    -0.015 A 
ATOM      6  C6  <0> d           0.015  -2.111   1.205  0.00  0.00     0.078 A 
ATOM      7  C7  <0> d           0.023  -0.704   1.192  0.00  0.00     0.103 A 
ATOM      8  O1  <0> d           0.088  -0.024   2.370  0.00  0.00    -0.334 OA
ATOM      9  C8  <0> d           0.882  -0.617   3.403  0.00  0.00     0.223 C 
ATOM     10  C9  <0> d           0.495  -2.068   3.529  0.00  0.00     0.253 C 
ATOM     11  O2  <0> d           0.678  -2.666   4.566  0.00  0.00    -0.270 OA
ATOM     12  N1  <0> d          -0.062  -2.704   2.469  0.00  0.00    -0.317 N 
ATOM     13  C10 <0> d          -0.799  -3.941   2.739  0.00  0.00     0.159 C 
ATOM     14  C13 <0> d           0.232  -4.273  -0.110  0.00  0.00     0.052 C 
ATOM     15 Br1  <0> d           0.060  -3.016  -2.833  0.00  0.00    -0.050 Br
ENDROOT
BRANCH   9  16
ATOM     16  C11 <0> d           2.364  -0.503   3.046  0.00  0.00     0.069 C 
BRANCH  16  17
ATOM     17  C12 <0> d           2.771   0.972   3.023  0.00  0.00     0.232 C 
BRANCH  17  18
ATOM     18  N2  <0> d           4.195   1.081   2.680  0.00  0.00    -0.079 N 
ATOM     19  H13 <0> d           4.746   0.590   3.369  0.00  0.00     0.274 HD
ATOM     20  H14 <0> d           4.354   0.675   1.770  0.00  0.00     0.274 HD
ATOM     21  H18 <0> d           4.463   2.054   2.666  0.00  0.00     0.274 HD
ENDBRANCH  17  18
ENDBRANCH  16  17
ENDBRANCH   9  16
TORSDOF 3
