REMARK  3 active torsions:
REMARK  status: ('A' for Active; 'I' for Inactive)
REMARK    1  A    between atoms: C4_4  and  C5_5 
REMARK    2  A    between atoms: C8_8  and  C9_10 
REMARK    3  A    between atoms: C10_12  and  C13_16 
ROOT
ATOM      1  C9  <0> d           1.631  -5.438  -0.315  0.00  0.00     0.305 C 
ATOM      2  N1  <0> d           0.528  -5.431  -1.287  0.00  0.00    -0.042 N 
ATOM      3  C10 <0> d           0.386  -6.752  -1.901  0.00  0.00     0.288 C 
ATOM      4  C11 <0> d          -0.257  -7.739  -0.930  0.00  0.00     0.054 C 
ATOM      5  C12 <0> d           0.742  -8.094   0.178  0.00  0.00     0.079 C 
ATOM      6  S1  <0> d           1.202  -6.563   1.049  0.00  0.00    -0.130 SA
ATOM      7  H12 <0> d          -0.331  -5.187  -0.817  0.00  0.00     0.280 HD
ATOM      8  H17 <0> d           0.719  -4.748  -2.005  0.00  0.00     0.280 HD
ENDROOT
BRANCH   1   9
ATOM      9  C8  <0> d           1.839  -4.046   0.224  0.00  0.00     0.094 A 
ATOM     10  C7  <0> d           3.007  -3.535   0.653  0.00  0.00     0.038 A 
ATOM     11  C6  <0> d           2.746  -2.209   1.068  0.00  0.00     0.036 A 
ATOM     12  C5  <0> d           1.434  -1.989   0.869  0.00  0.00     0.058 A 
ATOM     13  O1  <0> d           0.889  -3.107   0.362  0.00  0.00    -0.316 OA
BRANCH  12  14
ATOM     14  C4  <0> d           0.700  -0.708   1.168  0.00  0.00     0.047 A 
ATOM     15  C2  <0> d           0.002  -0.004   0.002  0.00  0.00    -0.007 A 
ATOM     16  C1  <0> d          -0.019   1.526   0.010  0.00  0.00     0.011 C 
ATOM     17  C3  <0> d          -0.828  -0.728   1.065  0.00  0.00     0.016 A 
ENDBRANCH  12  14
ENDBRANCH   1   9
BRANCH   3  18
ATOM     18  C13 <0> d          -0.476  -6.636  -3.131  0.00  0.00     0.204 C 
ATOM     19  O2  <0> d          -0.575  -7.580  -3.897  0.00  0.00    -0.646 OA
ATOM     20  O3  <0> d          -1.075  -5.599  -3.361  0.00  0.00    -0.646 OA
ENDBRANCH   3  18
TORSDOF 3
