REMARK  6 active torsions:
REMARK  status: ('A' for Active; 'I' for Inactive)
REMARK    1  A    between atoms: C5_5  and  C8_8 
REMARK    2  A    between atoms: C8_8  and  N1_10 
REMARK    3  A    between atoms: N1_10  and  C11_12 
REMARK    4  A    between atoms: C11_12  and  C12_13 
REMARK       I    between atoms: C12_13  and  N2_15 
REMARK    5  A    between atoms: N2_15  and  C13_16 
REMARK    6  A    between atoms: C14_17  and  C17_21 
REMARK       I    between atoms: C17_21  and  N3_23 
ROOT
ATOM      1  C12 <0> d          -3.066  -4.725   1.965  0.00  0.00     0.248 C 
ATOM      2  O1  <0> d          -2.593  -5.354   2.888  0.00  0.00    -0.271 OA
ATOM      3  N2  <0> d          -4.373  -4.399   1.971  0.00  0.00    -0.319 N 
ATOM      4  H17 <0> d          -4.751  -3.895   1.232  0.00  0.00     0.169 HD
ENDROOT
BRANCH   1   5
ATOM      5  C11 <0> d          -2.190  -4.309   0.811  0.00  0.00     0.337 C 
BRANCH   5   6
ATOM      6  N1  <0> d          -0.819  -4.782   1.042  0.00  0.00    -0.059 N 
ATOM      7  C10 <0> d          -0.800  -6.251   1.034  0.00  0.00     0.271 C 
ATOM      8  H22 <0> d          -0.492  -4.447   1.936  0.00  0.00     0.280 HD
BRANCH   6   9
ATOM      9  C8  <0> d           0.059  -4.275  -0.021  0.00  0.00     0.217 C 
ATOM     10  C9  <0> d           1.488  -4.768   0.218  0.00  0.00     0.045 C 
BRANCH   9  11
ATOM     11  C5  <0> d           0.040  -2.768  -0.013  0.00  0.00    -0.028 A 
ATOM     12  C4  <0> d           0.025  -2.071  -1.206  0.00  0.00     0.010 A 
ATOM     13  C3  <0> d           0.006  -0.689  -1.199  0.00  0.00     0.007 A 
ATOM     14  C2  <0> d           0.002  -0.004   0.002  0.00  0.00    -0.062 A 
ATOM     15  C1  <0> d          -0.018   1.503   0.010  0.00  0.00     0.048 C 
ATOM     16  C7  <0> d           0.023  -0.702   1.195  0.00  0.00     0.007 A 
ATOM     17  C6  <0> d           0.037  -2.084   1.188  0.00  0.00     0.010 A 
ENDBRANCH   9  11
ENDBRANCH   6   9
ENDBRANCH   5   6
ENDBRANCH   1   5
BRANCH   3  18
ATOM     18  C13 <0> d          -5.179  -4.782   3.033  0.00  0.00     0.092 A 
ATOM     19  S1  <0> d          -4.739  -5.649   4.400  0.00  0.00    -0.083 SA
ATOM     20  C16 <0> d          -6.304  -5.716   5.245  0.00  0.00     0.053 A 
ATOM     21  C15 <0> d          -7.133  -5.057   4.415  0.00  0.00     0.027 A 
ATOM     22  C14 <0> d          -6.534  -4.541   3.205  0.00  0.00     0.066 A 
BRANCH  22  23
ATOM     23  C17 <0> d          -7.318  -3.802   2.211  0.00  0.00     0.252 C 
ATOM     24  O2  <0> d          -6.781  -3.381   1.202  0.00  0.00    -0.268 OA
ATOM     25  N3  <0> d          -8.633  -3.588   2.413  0.00  0.00    -0.366 N 
ATOM     26  H20 <0> d          -9.061  -3.924   3.216  0.00  0.00     0.159 HD
ATOM     27  H21 <0> d          -9.152  -3.099   1.755  0.00  0.00     0.159 HD
ENDBRANCH  22  23
ENDBRANCH   3  18
TORSDOF 6
