REMARK  7 active torsions:
REMARK  status: ('A' for Active; 'I' for Inactive)
REMARK    1  A    between atoms: C5_5  and  N1_8 
REMARK    2  A    between atoms: N1_8  and  C8_9 
REMARK    3  A    between atoms: N2_11  and  N3_12 
REMARK       I    between atoms: N3_12  and  C9_13 
REMARK    4  A    between atoms: C9_13  and  C10_15 
REMARK    5  A    between atoms: C10_15  and  S2_16 
REMARK    6  A    between atoms: S2_16  and  C11_17 
REMARK    7  A    between atoms: C11_17  and  C12_18 
ROOT
ATOM      1  N3  <0> d           1.680   3.649  -0.017  0.00  0.00    -0.267 N 
ATOM      2  C9  <0> d           1.480   2.317  -0.041  0.00  0.00     0.245 C 
ATOM      3  O1  <0> d           2.370   1.576  -0.403  0.00  0.00    -0.271 OA
ATOM      4  H10 <0> d           0.968   4.241   0.272  0.00  0.00     0.190 HD
ENDROOT
BRANCH   1   5
ATOM      5  N2  <0> d           2.915   4.179  -0.410  0.00  0.00    -0.274 N 
ATOM      6  C8  <0> d           3.115   5.512  -0.387  0.00  0.00     0.191 C 
ATOM      7  S1  <0> d           4.625   6.160  -0.867  0.00  0.00    -0.039 SA
ATOM      8  H9  <0> d           3.627   3.587  -0.700  0.00  0.00     0.189 HD
BRANCH   6   9
ATOM      9  N1  <0> d           2.126   6.335   0.016  0.00  0.00    -0.332 N 
ATOM     10  H8  <0> d           1.251   5.973   0.229  0.00  0.00     0.168 HD
BRANCH   9  11
ATOM     11  C5  <0> d           2.361   7.709   0.127  0.00  0.00     0.034 A 
ATOM     12  C4  <0> d           3.029   8.385  -0.887  0.00  0.00     0.030 A 
ATOM     13  C3  <0> d           3.259   9.742  -0.774  0.00  0.00     0.009 A 
ATOM     14  C2  <0> d           2.825  10.428   0.345  0.00  0.00    -0.062 A 
ATOM     15  C1  <0> d           3.078  11.909   0.464  0.00  0.00     0.048 C 
ATOM     16  C7  <0> d           2.161   9.758   1.356  0.00  0.00     0.009 A 
ATOM     17  C6  <0> d           1.922   8.402   1.247  0.00  0.00     0.030 A 
ENDBRANCH   9  11
ENDBRANCH   6   9
ENDBRANCH   1   5
BRANCH   2  18
ATOM     18  C10 <0> d           0.151   1.746   0.382  0.00  0.00     0.178 C 
BRANCH  18  19
ATOM     19  S2  <0> d           0.196  -0.062   0.239  0.00  0.00    -0.155 SA
BRANCH  19  20
ATOM     20  C11 <0> d          -1.455  -0.586   0.778  0.00  0.00     0.112 C 
BRANCH  20  21
ATOM     21  C12 <0> d          -1.554  -2.088   0.706  0.00  0.00    -0.048 A 
ATOM     22  C17 <0> d          -1.206  -2.856   1.802  0.00  0.00     0.014 A 
ATOM     23  C16 <0> d          -1.296  -4.234   1.736  0.00  0.00    -0.061 A 
ATOM     24  C15 <0> d          -1.735  -4.843   0.576  0.00  0.00     0.007 A 
ATOM     25  C18 <0> d          -0.917  -5.071   2.930  0.00  0.00     0.048 C 
ATOM     26  C14 <0> d          -2.084  -4.075  -0.519  0.00  0.00     0.001 A 
ATOM     27  C13 <0> d          -1.998  -2.697  -0.453  0.00  0.00     0.008 A 
ENDBRANCH  20  21
ENDBRANCH  19  20
ENDBRANCH  18  19
ENDBRANCH   2  18
TORSDOF 7
