REMARK  5 active torsions:
REMARK  status: ('A' for Active; 'I' for Inactive)
REMARK       I    between atoms: C2_2  and  N1_4 
REMARK    1  A    between atoms: C5_7  and  N4_31 
REMARK    2  A    between atoms: C16_18  and  N3_23 
REMARK       I    between atoms: N3_23  and  C19_24 
REMARK    3  A    between atoms: C19_24  and  C20_26 
REMARK    4  A    between atoms: C20_26  and  C21_27 
REMARK    5  A    between atoms: C21_27  and  O4_28 
ROOT
ATOM      1  C8  <0> d          -0.717   1.409   0.249  0.00  0.00     0.241 C 
ATOM      2  C9  <0> d          -1.464   1.883   1.486  0.00  0.00     0.031 C 
ATOM      3  C10 <0> d          -2.959   1.578   1.372  0.00  0.00     0.020 C 
ATOM      4  C11 <0> d          -3.470   2.248   0.090  0.00  0.00     0.062 C 
ATOM      5  C12 <0> d          -2.717   1.630  -1.100  0.00  0.00     0.246 C 
ATOM      6  C13 <0> d          -3.128   3.721   0.128  0.00  0.00     0.021 A 
ATOM      7  C14 <0> d          -3.924   4.564  -0.582  0.00  0.00     0.028 A 
ATOM      8  C15 <0> d          -3.636   5.931  -0.648  0.00  0.00     0.037 A 
ATOM      9  C16 <0> d          -2.525   6.403  -0.003  0.00  0.00     0.103 A 
ATOM     10  C17 <0> d          -1.723   5.502   0.724  0.00  0.00     0.274 A 
ATOM     11  O2  <0> d          -0.704   5.901   1.265  0.00  0.00    -0.265 OA
ATOM     12  N2  <0> d          -2.071   4.195   0.829  0.00  0.00    -0.316 N 
ATOM     13  C18 <0> d          -1.270   3.369   1.733  0.00  0.00     0.138 C 
ATOM     14  N4  <0> d          -1.293   2.014  -0.969  0.00  0.00    -0.066 N 
ATOM     15  H33 <0> d          -1.228   3.036  -0.897  0.00  0.00     0.280 HD
ENDROOT
BRANCH  14  16
ATOM     16  C5  <0> d          -0.538   1.569  -2.158  0.00  0.00     0.191 C 
ATOM     17  C4  <0> d          -1.242   2.083  -3.416  0.00  0.00     0.053 C 
ATOM     18  C3  <0> d          -0.469   1.619  -4.654  0.00  0.00     0.128 C 
ATOM     19  N1  <0> d           0.930   2.049  -4.527  0.00  0.00    -0.352 N 
ATOM     20  C2  <0> d           1.521   2.764  -5.506  0.00  0.00     0.215 C 
ATOM     21  C7  <0> d           1.673   1.685  -3.313  0.00  0.00     0.128 C 
ATOM     22  C1  <0> d           0.715   3.225  -6.693  0.00  0.00     0.117 C 
ATOM     23  O1  <0> d           2.700   3.035  -5.431  0.00  0.00    -0.274 OA
ATOM     24  C6  <0> d           0.876   2.149  -2.090  0.00  0.00     0.053 C 
ENDBRANCH  14  16
BRANCH   9  25
ATOM     25  N3  <0> d          -2.190   7.762  -0.064  0.00  0.00    -0.323 N 
ATOM     26  C19 <0> d          -2.109   8.488   1.068  0.00  0.00     0.224 C 
ATOM     27  O3  <0> d          -2.239   7.947   2.146  0.00  0.00    -0.273 OA
ATOM     28  H25 <0> d          -2.017   8.181  -0.922  0.00  0.00     0.169 HD
BRANCH  26  29
ATOM     29  C20 <0> d          -1.856   9.972   0.995  0.00  0.00     0.129 C 
BRANCH  29  30
ATOM     30  C21 <0> d          -1.810  10.552   2.411  0.00  0.00     0.176 C 
BRANCH  30  31
ATOM     31  O4  <0> d          -1.570  11.959   2.342  0.00  0.00    -0.395 OA
ATOM     32  C22 <0> d          -1.508  12.601   3.617  0.00  0.00     0.201 C 
ENDBRANCH  30  31
ENDBRANCH  29  30
ENDBRANCH  26  29
ENDBRANCH   9  25
TORSDOF 5
