REMARK  4 active torsions:
REMARK  status: ('A' for Active; 'I' for Inactive)
REMARK    1  A    between atoms: C7_7  and  N1_9 
REMARK       I    between atoms: N1_9  and  C8_10 
REMARK    2  A    between atoms: C8_10  and  C9_12 
REMARK    3  A    between atoms: C9_12  and  S2_13 
REMARK    4  A    between atoms: S2_13  and  C10_14 
ROOT
ATOM      1  C1  <0> d          -0.735   1.583   1.264  0.00  0.00     0.005 C 
ATOM      2  C2  <0> d          -0.013   1.086   0.008  0.00  0.00     0.005 C 
ATOM      3  C3  <0> d          -0.761   1.597  -1.232  0.00  0.00     0.047 C 
ATOM      4  C4  <0> d          -1.032   3.059  -1.049  0.00  0.00    -0.007 A 
ATOM      5  C5  <0> d          -0.951   3.765   0.100  0.00  0.00    -0.021 A 
ATOM      6  C6  <0> d          -1.271   5.177  -0.019  0.00  0.00     0.085 A 
ATOM      7  C7  <0> d          -1.621   5.653  -1.274  0.00  0.00     0.098 A 
ATOM      8  S1  <0> d          -1.524   4.240  -2.273  0.00  0.00    -0.075 SA
ATOM      9  C13 <0> d          -1.226   6.046   1.118  0.00  0.00     0.103 C 
ATOM     10  N4  <0> d          -1.191   6.736   2.020  0.00  0.00    -0.191 NA
ATOM     11  C14 <0> d          -0.551   3.094   1.407  0.00  0.00     0.041 C 
ENDROOT
BRANCH   7  12
ATOM     12  N1  <0> d          -1.965   6.946  -1.641  0.00  0.00    -0.319 N 
ATOM     13  C8  <0> d          -2.279   7.222  -2.922  0.00  0.00     0.232 C 
ATOM     14  O1  <0> d          -2.260   6.341  -3.755  0.00  0.00    -0.272 OA
ATOM     15  H7  <0> d          -1.980   7.652  -0.975  0.00  0.00     0.169 HD
BRANCH  13  16
ATOM     16  C9  <0> d          -2.653   8.627  -3.320  0.00  0.00     0.185 C 
BRANCH  16  17
ATOM     17  S2  <0> d          -3.016   8.675  -5.093  0.00  0.00    -0.083 SA
BRANCH  17  18
ATOM     18  C10 <0> d          -3.411  10.382  -5.278  0.00  0.00     0.157 A 
ATOM     19  N3  <0> d          -3.767  10.937  -6.478  0.00  0.00    -0.368 N 
ATOM     20  C12 <0> d          -4.026  12.371  -6.268  0.00  0.00     0.143 A 
ATOM     21  H14 <0> d          -3.837  10.465  -7.323  0.00  0.00     0.161 HD
ATOM     22  C11 <0> d          -3.765  12.560  -4.760  0.00  0.00     0.171 A 
ATOM     23  N2  <0> d          -3.395  11.218  -4.291  0.00  0.00    -0.265 NA
ENDBRANCH  17  18
ENDBRANCH  16  17
ENDBRANCH  13  16
ENDBRANCH   7  12
TORSDOF 4
