REMARK  3 active torsions:
REMARK  status: ('A' for Active; 'I' for Inactive)
REMARK    1  A    between atoms: C4_6  and  N2_9 
REMARK    2  A    between atoms: C8_12  and  C11_15 
REMARK    3  A    between atoms: C8_12  and  N4_18 
REMARK       I    between atoms: C11_15  and  N3_17 
ROOT
ATOM      1  N2  <0> d          -1.226  -2.473   1.275  0.00  0.00     0.102 N 
ATOM      2  C6  <0> d          -2.526  -1.936   0.854  0.00  0.00     0.276 C 
ATOM      3  C7  <0> d          -3.631  -2.933   1.210  0.00  0.00     0.079 C 
ATOM      4  C8  <0> d          -3.624  -3.178   2.721  0.00  0.00     0.210 C 
ATOM      5  C9  <0> d          -2.244  -3.692   3.140  0.00  0.00     0.079 C 
ATOM      6  C10 <0> d          -1.179  -2.672   2.729  0.00  0.00     0.276 C 
ENDROOT
BRANCH   4   7
ATOM      7  C11 <0> d          -3.922  -1.889   3.442  0.00  0.00     0.252 C 
ATOM      8  O3  <0> d          -4.368  -0.941   2.830  0.00  0.00    -0.271 OA
ATOM      9  N3  <0> d          -3.693  -1.788   4.766  0.00  0.00    -0.368 N 
ATOM     10  H15 <0> d          -3.265  -2.518   5.241  0.00  0.00     0.159 HD
ATOM     11  H16 <0> d          -3.956  -0.987   5.244  0.00  0.00     0.159 HD
ENDBRANCH   4   7
BRANCH   4  12
ATOM     12  N4  <0> d          -4.644  -4.179   3.061  0.00  0.00    -0.053 N 
ATOM     13  C16 <0> d          -4.631  -4.417   4.509  0.00  0.00     0.236 C 
ATOM     14  C15 <0> d          -5.635  -5.517   4.859  0.00  0.00     0.028 C 
ATOM     15  C14 <0> d          -7.037  -5.078   4.425  0.00  0.00     0.003 C 
ATOM     16  C13 <0> d          -7.021  -4.761   2.927  0.00  0.00     0.028 C 
ATOM     17  C12 <0> d          -5.965  -3.689   2.649  0.00  0.00     0.236 C 
ATOM     18  H27 <0> d          -4.442  -5.042   2.577  0.00  0.00     0.281 HD
ENDBRANCH   4  12
BRANCH   1  19
ATOM     19  C4  <0> d          -0.128  -1.607   0.826  0.00  0.00     0.323 A 
ATOM     20  C3  <0> d          -0.111  -1.504  -0.713  0.00  0.00     0.149 A 
ATOM     21  C2  <0> d          -0.331  -0.030  -0.972  0.00  0.00     0.228 A 
ATOM     22  N1  <0> d          -0.453   0.610   0.197  0.00  0.00    -0.291 N 
ATOM     23  O1  <0> d          -0.386   0.489  -2.066  0.00  0.00    -0.273 OA
ATOM     24  C1  <0> d          -0.675   2.055   0.291  0.00  0.00     0.162 C 
ATOM     25  C5  <0> d          -0.350  -0.178   1.274  0.00  0.00     0.260 A 
ATOM     26  O2  <0> d          -0.425   0.193   2.426  0.00  0.00    -0.271 OA
ENDBRANCH   1  19
TORSDOF 3
