REMARK  6 active torsions:
REMARK  status: ('A' for Active; 'I' for Inactive)
REMARK    1  A    between atoms: C3_3  and  N1_9 
REMARK       I    between atoms: N1_9  and  C7_10 
REMARK    2  A    between atoms: C7_10  and  C8_12 
REMARK       I    between atoms: C8_12  and  N2_14 
REMARK    3  A    between atoms: N2_14  and  C9_15 
REMARK    4  A    between atoms: C9_15  and  C10_16 
REMARK    5  A    between atoms: C10_16  and  C11_17 
REMARK    6  A    between atoms: C11_17  and  N3_18 
ROOT
ATOM      1  C8  <0> d           4.845   4.232  -0.237  0.00  0.00     0.309 C 
ATOM      2  O2  <0> d           5.903   3.637  -0.250  0.00  0.00    -0.262 OA
ATOM      3  N2  <0> d           4.827   5.576  -0.332  0.00  0.00    -0.353 N 
ATOM      4  H5  <0> d           3.982   6.051  -0.322  0.00  0.00     0.162 HD
ENDROOT
BRANCH   1   5
ATOM      5  C7  <0> d           3.564   3.474  -0.116  0.00  0.00     0.314 C 
ATOM      6  N1  <0> d           3.583   2.130  -0.021  0.00  0.00    -0.316 N 
ATOM      7  H4  <0> d           4.428   1.660   0.049  0.00  0.00     0.169 HD
ATOM      8  O1  <0> d           2.506   4.069  -0.103  0.00  0.00    -0.262 OA
BRANCH   6   9
ATOM      9  C3  <0> d           2.382   1.412  -0.024  0.00  0.00     0.077 A 
ATOM     10  C2  <0> d           1.250   1.953  -0.619  0.00  0.00     0.033 A 
ATOM     11  C1  <0> d           0.065   1.242  -0.621  0.00  0.00     0.005 A 
ATOM     12  C6  <0> d           0.004  -0.007  -0.033  0.00  0.00     0.046 A 
ATOM     13  C5  <0> d           1.130  -0.552   0.562  0.00  0.00     0.157 A 
ATOM     14  C4  <0> d           2.321   0.155   0.568  0.00  0.00     0.181 A 
ATOM     15  F1  <0> d           1.067  -1.774   1.135  0.00  0.00    -0.203 F 
ATOM     16  F2  <0> d           3.420  -0.375   1.147  0.00  0.00    -0.200 F 
ENDBRANCH   6   9
ENDBRANCH   1   5
BRANCH   3  17
ATOM     17  C9  <0> d           6.084   6.319  -0.451  0.00  0.00     0.125 C 
BRANCH  17  18
ATOM     18  C10 <0> d           5.784   7.817  -0.542  0.00  0.00     0.040 C 
BRANCH  18  19
ATOM     19  C11 <0> d           7.097   8.593  -0.666  0.00  0.00     0.130 C 
BRANCH  19  20
ATOM     20  N3  <0> d           6.810  10.027  -0.753  0.00  0.00    -0.352 N 
ATOM     21  C14 <0> d           6.710  10.888   0.282  0.00  0.00     0.182 A 
ATOM     22  N4  <0> d           6.448  12.078  -0.187  0.00  0.00    -0.361 N 
ATOM     23  C13 <0> d           6.364  12.017  -1.525  0.00  0.00     0.106 A 
ATOM     24  H15 <0> d           6.329  12.878   0.347  0.00  0.00     0.166 HD
ATOM     25  C12 <0> d           6.587  10.742  -1.899  0.00  0.00     0.108 A 
ENDBRANCH  19  20
ENDBRANCH  18  19
ENDBRANCH  17  18
ENDBRANCH   3  17
TORSDOF 6
