REMARK  7 active torsions:
REMARK  status: ('A' for Active; 'I' for Inactive)
REMARK    1  A    between atoms: C2_2  and  N4_27 
REMARK    2  A    between atoms: C3_3  and  C4_4 
REMARK    3  A    between atoms: C3_3  and  N4_27 
REMARK       I    between atoms: C4_4  and  N1_6 
REMARK    4  A    between atoms: N1_6  and  C5_7 
REMARK    5  A    between atoms: C10_14  and  C11_15 
REMARK    6  A    between atoms: C10_14  and  N4_27 
REMARK       I    between atoms: C11_15  and  N3_17 
REMARK    7  A    between atoms: N3_17  and  C12_19 
ROOT
ATOM      1  C5  <0> d           4.233  -0.216  -2.637  0.00  0.00     0.097 A 
ATOM      2  C6  <0> d           5.159  -0.515  -3.628  0.00  0.00     0.079 A 
ATOM      3  C7  <0> d           6.500  -0.017  -3.436  0.00  0.00     0.033 A 
ATOM      4  C8  <0> d           6.739   0.684  -2.312  0.00  0.00     0.053 A 
ATOM      5  S1  <0> d           5.159   0.694  -1.491  0.00  0.00    -0.083 SA
ATOM      6  C9  <0> d           4.800  -1.277  -4.786  0.00  0.00     0.102 C 
ATOM      7  N2  <0> d           4.516  -1.881  -5.705  0.00  0.00    -0.191 NA
ENDROOT
BRANCH   1   8
ATOM      8  N1  <0> d           2.891  -0.567  -2.577  0.00  0.00    -0.319 N 
ATOM      9  C4  <0> d           2.142  -0.188  -1.523  0.00  0.00     0.248 C 
ATOM     10  O1  <0> d           2.640   0.460  -0.626  0.00  0.00    -0.271 OA
ATOM     11  H10 <0> d           2.493  -1.084  -3.294  0.00  0.00     0.169 HD
BRANCH   9  12
ATOM     12  C3  <0> d           0.686  -0.569  -1.458  0.00  0.00     0.338 C 
BRANCH  12  13
ATOM     13  N4  <0> d           0.113  -0.049  -0.198  0.00  0.00    -0.055 N 
ATOM     14  H21 <0> d           0.705  -0.349   0.586  0.00  0.00     0.281 HD
BRANCH  13  15
ATOM     15  C2  <0> d           0.073   1.428  -0.232  0.00  0.00     0.231 C 
ATOM     16  C1  <0> d          -0.069   1.948   1.199  0.00  0.00     0.034 C 
ENDBRANCH  13  15
BRANCH  13  17
ATOM     17  C10 <0> d          -1.250  -0.587  -0.004  0.00  0.00     0.337 C 
BRANCH  17  18
ATOM     18  C11 <0> d          -1.147  -2.038   0.390  0.00  0.00     0.243 C 
ATOM     19  O2  <0> d          -0.059  -2.537   0.585  0.00  0.00    -0.272 OA
ATOM     20  N3  <0> d          -2.264  -2.780   0.524  0.00  0.00    -0.354 N 
ATOM     21  H1  <0> d          -3.134  -2.381   0.368  0.00  0.00     0.162 HD
BRANCH  20  22
ATOM     22  C12 <0> d          -2.163  -4.191   0.907  0.00  0.00     0.099 C 
ATOM     23  C15 <0> d          -3.401  -4.956   0.379  0.00  0.00     0.165 C 
ATOM     24  S2  <0> d          -3.642  -6.262   1.652  0.00  0.00     0.146 S 
ATOM     25  C14 <0> d          -2.303  -5.792   2.828  0.00  0.00     0.142 C 
ATOM     26  O3  <0> d          -4.900  -6.066   2.282  0.00  0.00    -0.228 OA
ATOM     27  O4  <0> d          -3.334  -7.526   1.081  0.00  0.00    -0.228 OA
ATOM     28  C13 <0> d          -2.094  -4.301   2.439  0.00  0.00     0.041 C 
ENDBRANCH  20  22
ENDBRANCH  17  18
ENDBRANCH  13  17
ENDBRANCH  12  13
ENDBRANCH   9  12
ENDBRANCH   1   8
TORSDOF 7
