REMARK  9 active torsions:
REMARK  status: ('A' for Active; 'I' for Inactive)
REMARK    1  A    between atoms: C10_12  and  O3_13 
REMARK    2  A    between atoms: O3_13  and  C11_14 
REMARK    3  A    between atoms: C11_14  and  C12_15 
REMARK       I    between atoms: C12_15  and  N1_17 
REMARK    4  A    between atoms: C14_19  and  C21_27 
REMARK       I    between atoms: C21_27  and  N3_29 
REMARK    5  A    between atoms: N3_29  and  C22_30 
REMARK    6  A    between atoms: C22_30  and  C23_31 
REMARK    7  A    between atoms: C23_31  and  C24_32 
REMARK    8  A    between atoms: C24_32  and  C25_33 
REMARK    9  A    between atoms: C25_33  and  N4_34 
ROOT
ATOM      1  C12 <0> d           0.143  -6.577   3.309  0.00  0.00     0.244 C 
ATOM      2  O4  <0> d           0.089  -7.039   2.188  0.00  0.00    -0.271 OA
ATOM      3  N1  <0> d           0.125  -7.399   4.377  0.00  0.00    -0.349 N 
ATOM      4  C13 <0> d           0.175  -7.025   5.811  0.00  0.00     0.140 C 
ATOM      5  C14 <0> d          -0.808  -7.996   6.502  0.00  0.00     0.106 C 
ATOM      6  C15 <0> d          -0.885  -9.211   5.562  0.00  0.00    -0.007 C 
ATOM      7  C16 <0> d           0.043  -8.879   4.385  0.00  0.00     0.136 C 
ATOM      8  C17 <0> d          -2.314  -9.403   5.062  0.00  0.00     0.039 C 
ATOM      9  C18 <0> d          -2.376 -10.650   4.176  0.00  0.00     0.233 C 
ATOM     10  N2  <0> d          -1.944 -11.823   4.947  0.00  0.00    -0.075 N 
ATOM     11  C19 <0> d          -0.540 -11.671   5.345  0.00  0.00     0.233 C 
ATOM     12  C20 <0> d          -0.399 -10.467   6.280  0.00  0.00     0.039 C 
ATOM     13  H19 <0> d          -2.518 -11.912   5.771  0.00  0.00     0.277 HD
ATOM     14  H39 <0> d          -2.044 -12.652   4.380  0.00  0.00     0.277 HD
ENDROOT
BRANCH   1  15
ATOM     15  C11 <0> d           0.231  -5.086   3.506  0.00  0.00     0.278 C 
BRANCH  15  16
ATOM     16  O3  <0> d           0.235  -4.437   2.233  0.00  0.00    -0.339 OA
BRANCH  16  17
ATOM     17  C10 <0> d           0.310  -3.079   2.232  0.00  0.00     0.104 A 
ATOM     18  C5  <0> d           0.319  -2.381   1.027  0.00  0.00     0.123 A 
ATOM     19  O2  <0> d           0.253  -3.037  -0.152  0.00  0.00    -0.272 OA
ATOM     20  C6  <0> d           0.402  -0.979   1.042  0.00  0.00     0.007 A 
ATOM     21  C4  <0> d           0.260  -2.380  -1.321  0.00  0.00     0.288 A 
ATOM     22  C3  <0> d           0.336  -0.972  -1.380  0.00  0.00     0.090 A 
ATOM     23  O1  <0> d           0.199  -3.015  -2.359  0.00  0.00    -0.260 OA
ATOM     24  C2  <0> d           0.405  -0.252  -0.231  0.00  0.00    -0.043 A 
ATOM     25  C1  <0> d           0.487   1.252  -0.264  0.00  0.00     0.049 C 
ATOM     26  C7  <0> d           0.476  -0.296   2.261  0.00  0.00     0.015 A 
ATOM     27  C8  <0> d           0.472  -1.005   3.441  0.00  0.00     0.004 A 
ATOM     28  C9  <0> d           0.395  -2.389   3.429  0.00  0.00     0.040 A 
ENDBRANCH  16  17
ENDBRANCH  15  16
ENDBRANCH   1  15
BRANCH   5  29
ATOM     29  C21 <0> d          -0.278  -8.407   7.851  0.00  0.00     0.224 C 
ATOM     30  O5  <0> d           0.918  -8.472   8.039  0.00  0.00    -0.273 OA
ATOM     31  N3  <0> d          -1.134  -8.701   8.850  0.00  0.00    -0.361 N 
ATOM     32  H24 <0> d          -2.091  -8.649   8.700  0.00  0.00     0.162 HD
BRANCH  31  33
ATOM     33  C22 <0> d          -0.619  -9.100  10.162  0.00  0.00     0.122 C 
BRANCH  33  34
ATOM     34  C23 <0> d          -1.790  -9.376  11.107  0.00  0.00     0.021 C 
BRANCH  34  35
ATOM     35  C24 <0> d          -1.253  -9.793  12.478  0.00  0.00     0.029 C 
BRANCH  35  36
ATOM     36  C25 <0> d          -2.424 -10.069  13.423  0.00  0.00     0.234 C 
BRANCH  36  37
ATOM     37  N4  <0> d          -1.907 -10.469  14.739  0.00  0.00    -0.079 N 
ATOM     38  C26 <0> d          -1.179  -9.345  15.341  0.00  0.00     0.269 C 
ATOM     39  C27 <0> d          -3.028 -10.849  15.609  0.00  0.00     0.269 C 
ATOM     40  H40 <0> d          -1.284 -11.255  14.631  0.00  0.00     0.278 HD
ENDBRANCH  36  37
ENDBRANCH  35  36
ENDBRANCH  34  35
ENDBRANCH  33  34
ENDBRANCH  31  33
ENDBRANCH   5  29
TORSDOF 9
