REMARK  7 active torsions:
REMARK  status: ('A' for Active; 'I' for Inactive)
REMARK    1  A    between atoms: C5_5  and  S2_22 
REMARK    2  A    between atoms: C7_7  and  N1_8 
REMARK    3  A    between atoms: N1_8  and  C8_9 
REMARK    4  A    between atoms: N2_11  and  N3_12 
REMARK    5  A    between atoms: C9_13  and  C10_14 
REMARK    6  A    between atoms: C15_19  and  C16_20 
REMARK    7  A    between atoms: S2_22  and  N4_25 
ROOT
ATOM      1  N1  <0> d           2.616   8.280   0.253  0.00  0.00    -0.332 N 
ATOM      2  H7  <0> d           1.800   7.808   0.483  0.00  0.00     0.168 HD
ENDROOT
BRANCH   1   3
ATOM      3  C7  <0> d           2.572   9.643  -0.054  0.00  0.00     0.041 A 
ATOM      4  C2  <0> d           1.381  10.346   0.068  0.00  0.00    -0.035 A 
ATOM      5  C1  <0> d           0.132   9.640   0.530  0.00  0.00     0.050 C 
ATOM      6  C3  <0> d           1.341  11.693  -0.235  0.00  0.00     0.010 A 
ATOM      7  C4  <0> d           2.486  12.342  -0.659  0.00  0.00     0.026 A 
ATOM      8  C5  <0> d           3.674  11.645  -0.782  0.00  0.00     0.081 A 
ATOM      9  C6  <0> d           3.722  10.299  -0.476  0.00  0.00     0.055 A 
BRANCH   8  10
ATOM     10  S2  <0> d           5.130  12.477  -1.323  0.00  0.00     0.260 S 
ATOM     11  O2  <0> d           5.982  11.484  -1.877  0.00  0.00    -0.200 OA
ATOM     12  O3  <0> d           4.699  13.610  -2.063  0.00  0.00    -0.200 OA
BRANCH  10  13
ATOM     13  N4  <0> d           5.894  13.056   0.028  0.00  0.00    -0.315 N 
ATOM     14  C17 <0> d           6.885  12.229   0.720  0.00  0.00     0.162 C 
ATOM     15  C18 <0> d           5.577  14.395   0.530  0.00  0.00     0.162 C 
ENDBRANCH  10  13
ENDBRANCH   8  10
ENDBRANCH   1   3
BRANCH   1  16
ATOM     16  C8  <0> d           3.792   7.621   0.228  0.00  0.00     0.192 C 
ATOM     17  S1  <0> d           4.525   7.125   1.694  0.00  0.00    -0.039 SA
ATOM     18  N2  <0> d           4.390   7.353  -0.949  0.00  0.00    -0.253 N 
ATOM     19  H8  <0> d           5.199   6.818  -0.972  0.00  0.00     0.191 HD
BRANCH  18  20
ATOM     20  N3  <0> d           3.843   7.847  -2.141  0.00  0.00    -0.184 NA
ATOM     21  C9  <0> d           4.471   7.671  -3.265  0.00  0.00     0.151 C 
BRANCH  21  22
ATOM     22  C10 <0> d           3.954   8.284  -4.499  0.00  0.00    -0.000 A 
ATOM     23  C15 <0> d           4.687   8.189  -5.700  0.00  0.00     0.052 A 
ATOM     24  C14 <0> d           4.183   8.776  -6.862  0.00  0.00     0.019 A 
ATOM     25  C13 <0> d           2.974   9.438  -6.831  0.00  0.00     0.001 A 
ATOM     26  C12 <0> d           2.256   9.536  -5.649  0.00  0.00     0.001 A 
ATOM     27  C11 <0> d           2.735   8.964  -4.490  0.00  0.00     0.014 A 
BRANCH  23  28
ATOM     28  C16 <0> d           5.976   7.474  -5.729  0.00  0.00     0.210 C 
ATOM     29  O1  <0> d           6.365   6.884  -4.740  0.00  0.00    -0.644 OA
ATOM     30  O4  <0> d           6.723   7.476  -6.851  0.00  0.00    -0.644 OA
ENDBRANCH  23  28
ENDBRANCH  21  22
ENDBRANCH  18  20
ENDBRANCH   1  16
TORSDOF 7
