REMARK  2 active torsions:
REMARK  status: ('A' for Active; 'I' for Inactive)
REMARK    1  A    between atoms: C9_11  and  C12_15 
REMARK    2  A    between atoms: N4_21  and  C16_24 
ROOT
ATOM      1  C1  <0> d          -0.016   1.361   0.009  0.00  0.00     0.001 A 
ATOM      2  C2  <0> d           1.169   2.083   0.002  0.00  0.00     0.002 A 
ATOM      3  C3  <0> d           2.385   1.435  -0.013  0.00  0.00     0.030 A 
ATOM      4  C4  <0> d           2.428   0.045  -0.021  0.00  0.00     0.043 A 
ATOM      5  C5  <0> d           1.222  -0.684  -0.013  0.00  0.00    -0.001 A 
ATOM      6  C6  <0> d           0.002  -0.004   0.002  0.00  0.00     0.014 A 
ATOM      7  C7  <0> d           1.609  -2.088  -0.025  0.00  0.00    -0.019 A 
ATOM      8  C8  <0> d           2.957  -2.137  -0.037  0.00  0.00     0.052 A 
ATOM      9  N1  <0> d           3.460  -0.869  -0.036  0.00  0.00    -0.356 N 
ATOM     10  H1  <0> d           4.404  -0.644  -0.045  0.00  0.00     0.166 HD
ATOM     11  C9  <0> d           3.729  -3.436  -0.046  0.00  0.00     0.278 C 
ATOM     12  N2  <0> d           2.830  -4.518   0.382  0.00  0.00    -0.061 N 
ATOM     13  C10 <0> d           1.605  -4.511  -0.429  0.00  0.00     0.238 C 
ATOM     14  C11 <0> d           0.731  -3.313  -0.028  0.00  0.00     0.069 C 
ATOM     15  H8  <0> d           3.298  -5.405   0.272  0.00  0.00     0.278 HD
ATOM     16  H24 <0> d           2.589  -4.388   1.353  0.00  0.00     0.278 HD
ENDROOT
BRANCH  11  17
ATOM     17  C12 <0> d           4.896  -3.337   0.902  0.00  0.00     0.100 A 
ATOM     18  C15 <0> d           6.175  -3.388   0.432  0.00  0.00     0.199 A 
ATOM     19  N4  <0> d           7.223  -3.293   1.313  0.00  0.00    -0.272 N 
ATOM     20  O2  <0> d           6.409  -3.527  -0.890  0.00  0.00    -0.171 OA
ATOM     21  C14 <0> d           6.994  -3.160   2.632  0.00  0.00     0.331 A 
ATOM     22  N3  <0> d           5.739  -3.112   3.116  0.00  0.00    -0.275 N 
ATOM     23  O1  <0> d           7.934  -3.081   3.399  0.00  0.00    -0.246 OA
ATOM     24  C13 <0> d           4.682  -3.198   2.285  0.00  0.00     0.262 A 
ATOM     25  H3  <0> d           5.594  -3.016   4.071  0.00  0.00     0.173 HD
ATOM     26  O3  <0> d           3.547  -3.155   2.728  0.00  0.00    -0.267 OA
BRANCH  19  27
ATOM     27  C16 <0> d           8.599  -3.342   0.815  0.00  0.00     0.097 C 
ATOM     28  C21 <0> d           9.323  -2.047   1.190  0.00  0.00     0.026 C 
ATOM     29  C20 <0> d          10.761  -2.098   0.669  0.00  0.00     0.002 C 
ATOM     30  C19 <0> d          11.489  -3.289   1.296  0.00  0.00     0.000 C 
ATOM     31  C18 <0> d          10.765  -4.584   0.921  0.00  0.00     0.002 C 
ATOM     32  C17 <0> d           9.327  -4.533   1.442  0.00  0.00     0.026 C 
ENDBRANCH  19  27
ENDBRANCH  11  17
TORSDOF 2
