REMARK  2 active torsions:
REMARK  status: ('A' for Active; 'I' for Inactive)
REMARK    1  A    between atoms: C4_4  and  N1_15 
REMARK    2  A    between atoms: N1_15  and  C11_16 
ROOT
ATOM      1  C1  <0> d           0.103   1.757  -0.029  0.00  0.00     0.026 C 
ATOM      2  C2  <0> d           0.103   0.231   0.076  0.00  0.00     0.112 C 
ATOM      3  C3  <0> d           0.793  -0.379  -1.154  0.00  0.00     0.058 C 
ATOM      4  C4  <0> d           2.112   0.335  -1.389  0.00  0.00     0.222 C 
ATOM      5  C5  <0> d           3.088   0.199  -0.258  0.00  0.00    -0.005 A 
ATOM      6  C6  <0> d           4.438   0.339  -0.578  0.00  0.00     0.011 A 
ATOM      7  C7  <0> d           5.410   0.247   0.394  0.00  0.00     0.002 A 
ATOM      8  C8  <0> d           5.051   0.015   1.709  0.00  0.00     0.020 A 
ATOM      9  C9  <0> d           3.717  -0.131   2.032  0.00  0.00     0.033 A 
ATOM     10  C10 <0> d           2.739  -0.048   1.050  0.00  0.00     0.085 A 
ATOM     11  S1  <0> d           1.056  -0.291   1.534  0.00  0.00     0.181 S 
ATOM     12  O1  <0> d           0.929  -1.692   1.728  0.00  0.00    -0.222 OA
ATOM     13  O2  <0> d           0.847   0.616   2.608  0.00  0.00    -0.222 OA
ATOM     14 Br1  <0> d           3.217  -0.447   3.828  0.00  0.00    -0.050 Br
ENDROOT
BRANCH   4  15
ATOM     15  N1  <0> d           2.730  -0.210  -2.605  0.00  0.00    -0.062 N 
ATOM     16  H11 <0> d           3.635   0.215  -2.743  0.00  0.00     0.278 HD
ATOM     17  H17 <0> d           2.839  -1.208  -2.508  0.00  0.00     0.278 HD
BRANCH  15  18
ATOM     18  C11 <0> d           1.872   0.079  -3.762  0.00  0.00     0.186 A 
ATOM     19  C13 <0> d           2.396  -0.313  -5.145  0.00  0.00     0.035 A 
ATOM     20  C12 <0> d           1.260  -1.112  -4.503  0.00  0.00     0.035 A 
ENDBRANCH  15  18
ENDBRANCH   4  15
TORSDOF 2
