REMARK  5 active torsions:
REMARK  status: ('A' for Active; 'I' for Inactive)
REMARK    1  A    between atoms: C2_2  and  C3_3 
REMARK    2  A    between atoms: C2_2  and  N1_9 
REMARK       I    between atoms: N1_9  and  C9_10 
REMARK    3  A    between atoms: C9_10  and  C10_12 
REMARK    4  A    between atoms: N4_25  and  C21_28 
REMARK    5  A    between atoms: C21_28  and  C22_29 
ROOT
ATOM      1  C10 <0> d           1.087  -0.668   0.008  0.00  0.00     0.076 A 
ATOM      2  C11 <0> d          -0.066   0.106   0.003  0.00  0.00     0.042 A 
ATOM      3  C12 <0> d           0.044   1.504  -0.009  0.00  0.00     0.080 A 
ATOM      4  C13 <0> d           1.311   2.130  -0.016  0.00  0.00     0.149 A 
ATOM      5  N2  <0> d           1.381   3.455  -0.028  0.00  0.00    -0.212 NA
ATOM      6  C14 <0> d           0.284   4.214  -0.032  0.00  0.00     0.139 A 
ATOM      7  C15 <0> d           0.423   5.614  -0.044  0.00  0.00     0.051 A 
ATOM      8  C16 <0> d          -0.690   6.400  -0.049  0.00  0.00     0.005 A 
ATOM      9  C17 <0> d          -1.958   5.804  -0.042  0.00  0.00     0.018 A 
ATOM     10  C18 <0> d          -2.074   4.457  -0.030  0.00  0.00     0.102 A 
ATOM     11  N3  <0> d          -0.967   3.662  -0.025  0.00  0.00    -0.273 N 
ATOM     12  C19 <0> d          -1.118   2.319  -0.019  0.00  0.00     0.267 A 
ATOM     13  O2  <0> d          -2.229   1.819  -0.018  0.00  0.00    -0.267 OA
ATOM     14  N4  <0> d           2.460   1.379  -0.011  0.00  0.00    -0.310 N 
ATOM     15  C20 <0> d           2.397   0.002   0.000  0.00  0.00     0.119 A 
ATOM     16  N5  <0> d           3.497  -0.707   0.004  0.00  0.00    -0.384 N 
ATOM     17  H16 <0> d           4.476  -0.204  -0.002  0.00  0.00     0.157 HD
ATOM     18  H22 <0> d           3.444  -1.806   0.013  0.00  0.00     0.157 HD
ENDROOT
BRANCH   1  19
ATOM     19  C9  <0> d           0.999  -2.132   0.020  0.00  0.00     0.256 C 
ATOM     20  N1  <0> d          -0.200  -2.735   0.143  0.00  0.00    -0.348 N 
ATOM     21  H10 <0> d          -1.113  -2.129   0.234  0.00  0.00     0.163 HD
ATOM     22  O1  <0> d           2.010  -2.803  -0.082  0.00  0.00    -0.268 OA
BRANCH  20  23
ATOM     23  C2  <0> d          -0.287  -4.197   0.155  0.00  0.00     0.114 C 
ATOM     24  C1  <0> d          -0.047  -4.711   1.576  0.00  0.00     0.037 C 
BRANCH  23  25
ATOM     25  C3  <0> d          -1.657  -4.622  -0.308  0.00  0.00    -0.036 A 
ATOM     26  C8  <0> d          -1.796  -5.718  -1.140  0.00  0.00     0.009 A 
ATOM     27  C7  <0> d          -3.052  -6.108  -1.565  0.00  0.00     0.001 A 
ATOM     28  C6  <0> d          -4.169  -5.403  -1.158  0.00  0.00     0.000 A 
ATOM     29  C5  <0> d          -4.030  -4.308  -0.326  0.00  0.00     0.001 A 
ATOM     30  C4  <0> d          -2.774  -3.921   0.103  0.00  0.00     0.009 A 
ENDBRANCH  23  25
ENDBRANCH  20  23
ENDBRANCH   1  19
BRANCH  14  31
ATOM     31  C21 <0> d           3.765   2.046  -0.019  0.00  0.00     0.197 C 
BRANCH  31  32
ATOM     32  C22 <0> d           4.210   2.262  -1.443  0.00  0.00     0.070 A 
ATOM     33  O3  <0> d           4.937   1.405  -2.177  0.00  0.00    -0.325 OA
ATOM     34  C25 <0> d           5.146   1.926  -3.397  0.00  0.00     0.142 A 
ATOM     35  C24 <0> d           4.548   3.130  -3.453  0.00  0.00     0.027 A 
ATOM     36  C23 <0> d           3.940   3.345  -2.195  0.00  0.00     0.036 A 
ENDBRANCH  31  32
ENDBRANCH  14  31
TORSDOF 5
