REMARK  3 active torsions:
REMARK  status: ('A' for Active; 'I' for Inactive)
REMARK    1  A    between atoms: C3_3  and  N1_8 
REMARK    2  A    between atoms: N1_8  and  C7_9 
REMARK    3  A    between atoms: C7_9  and  C12_15 
ROOT
ATOM      1  C7  <0> d           4.859   1.411   0.073  0.00  0.00     0.122 C 
ATOM      2  C8  <0> d           5.056   0.547  -1.175  0.00  0.00     0.070 C 
ATOM      3  C9  <0> d           5.136   1.451  -2.407  0.00  0.00     0.235 C 
ATOM      4  N2  <0> d           6.266   2.377  -2.267  0.00  0.00    -0.075 N 
ATOM      5  C10 <0> d           6.048   3.257  -1.113  0.00  0.00     0.235 C 
ATOM      6  C11 <0> d           6.004   2.423   0.169  0.00  0.00     0.070 C 
ATOM      7  H10 <0> d           7.116   1.851  -2.132  0.00  0.00     0.277 HD
ATOM      8  H15 <0> d           6.347   2.935  -3.104  0.00  0.00     0.277 HD
ENDROOT
BRANCH   1   9
ATOM      9  N1  <0> d           3.582   2.123  -0.021  0.00  0.00    -0.371 N 
ATOM     10  H5  <0> d           3.561   3.091   0.040  0.00  0.00     0.161 HD
BRANCH   9  11
ATOM     11  C3  <0> d           2.395   1.409  -0.200  0.00  0.00     0.030 A 
ATOM     12  C2  <0> d           2.397   0.023  -0.110  0.00  0.00     0.029 A 
ATOM     13  C1  <0> d           1.221  -0.681  -0.286  0.00  0.00     0.004 A 
ATOM     14  C6  <0> d           0.044  -0.008  -0.552  0.00  0.00     0.019 A 
ATOM     15  C5  <0> d           0.038   1.373  -0.643  0.00  0.00     0.013 A 
ATOM     16  C4  <0> d           1.210   2.083  -0.467  0.00  0.00     0.048 A 
ATOM     17 Br1  <0> d          -1.576   2.290  -1.007  0.00  0.00    -0.051 Br
ENDBRANCH   9  11
ENDBRANCH   1   9
BRANCH   1  18
ATOM     18  C12 <0> d           4.857   0.535   1.300  0.00  0.00     0.202 C 
ATOM     19  O1  <0> d           3.880   0.507   2.028  0.00  0.00    -0.646 OA
ATOM     20  O2  <0> d           5.833  -0.147   1.563  0.00  0.00    -0.646 OA
ENDBRANCH   1  18
TORSDOF 3
