REMARK  7 active torsions:
REMARK  status: ('A' for Active; 'I' for Inactive)
REMARK    1  A    between atoms: C2_2  and  N1_3 
REMARK    2  A    between atoms: C4_5  and  O3_16 
REMARK    3  A    between atoms: C7_9  and  C8_10 
REMARK    4  A    between atoms: C8_10  and  N2_11 
REMARK    5  A    between atoms: N2_11  and  C10_13 
REMARK    6  A    between atoms: C10_13  and  C11_14 
REMARK    7  A    between atoms: C11_14  and  O2_15 
ROOT
ATOM      1  N1  <0> d          -1.372  -0.511   0.012  0.00  0.00    -0.356 N 
ATOM      2  C3  <0> d          -1.986  -0.742   1.202  0.00  0.00     0.131 A 
ATOM      3  C4  <0> d          -3.256  -1.210   1.244  0.00  0.00     0.131 A 
ATOM      4  C5  <0> d          -3.941  -1.458   0.027  0.00  0.00     0.208 A 
ATOM      5  O1  <0> d          -5.089  -1.881   0.032  0.00  0.00    -0.285 OA
ATOM      6  C6  <0> d          -3.271  -1.206  -1.191  0.00  0.00     0.084 A 
ATOM      7  C7  <0> d          -2.005  -0.734  -1.165  0.00  0.00     0.043 A 
ENDROOT
BRANCH   7   8
ATOM      8  C8  <0> d          -1.286  -0.457  -2.460  0.00  0.00     0.329 C 
BRANCH   8   9
ATOM      9  N2  <0> d          -1.014   0.982  -2.571  0.00  0.00     0.091 N 
ATOM     10  C9  <0> d          -2.263   1.746  -2.695  0.00  0.00     0.310 C 
BRANCH   9  11
ATOM     11  C10 <0> d          -0.113   1.262  -3.697  0.00  0.00     0.298 C 
BRANCH  11  12
ATOM     12  C11 <0> d           0.345   2.720  -3.634  0.00  0.00     0.194 C 
BRANCH  12  13
ATOM     13  O2  <0> d           1.133   2.921  -2.459  0.00  0.00    -0.399 OA
ATOM     14  H17 <0> d           1.458   3.826  -2.354  0.00  0.00     0.209 HD
ENDBRANCH  12  13
ENDBRANCH  11  12
ENDBRANCH   9  11
ENDBRANCH   8   9
ENDBRANCH   7   8
BRANCH   1  15
ATOM     15  C2  <0> d           0.002  -0.004   0.002  0.00  0.00     0.124 C 
ATOM     16  C1  <0> d          -0.019   1.526   0.010  0.00  0.00     0.027 C 
ENDBRANCH   1  15
BRANCH   3  17
ATOM     17  O3  <0> d          -3.867  -1.441   2.438  0.00  0.00    -0.356 OA
ATOM     18  H18 <0> d          -4.772  -1.774   2.359  0.00  0.00     0.218 HD
ENDBRANCH   3  17
TORSDOF 7
