REMARK  3 active torsions:
REMARK  status: ('A' for Active; 'I' for Inactive)
REMARK    1  A    between atoms: O1_2  and  C2_3 
REMARK    2  A    between atoms: C5_6  and  C8_9 
REMARK    3  A    between atoms: N2_17  and  C13_20 
ROOT
ATOM      1  C8  <0> d           2.491  -2.491  -4.359  0.00  0.00     0.079 C 
ATOM      2  N1  <0> d           3.097  -1.836  -5.423  0.00  0.00    -0.264 N 
ATOM      3  O2  <0> d           3.094  -2.775  -6.518  0.00  0.00    -0.260 OA
ATOM      4  C9  <0> d           3.451  -3.977  -5.818  0.00  0.00     0.285 C 
ATOM      5  C10 <0> d           2.604  -3.832  -4.545  0.00  0.00     0.080 C 
ATOM      6  H2  <0> d           3.450  -0.933  -5.428  0.00  0.00     0.194 HD
ATOM      7  C11 <0> d           2.278  -5.158  -4.248  0.00  0.00     0.266 C 
ATOM      8  O3  <0> d           2.029  -5.591  -3.137  0.00  0.00    -0.267 OA
ATOM      9  N2  <0> d           2.281  -5.883  -5.385  0.00  0.00    -0.246 N 
ATOM     10  C12 <0> d           2.906  -5.243  -6.419  0.00  0.00     0.268 C 
ATOM     11  O4  <0> d           3.010  -5.609  -7.570  0.00  0.00    -0.269 OA
ENDROOT
BRANCH   1  12
ATOM     12  C5  <0> d           1.837  -1.836  -3.211  0.00  0.00    -0.007 A 
ATOM     13  C4  <0> d           1.785  -0.441  -3.135  0.00  0.00     0.016 A 
ATOM     14  C3  <0> d           1.172   0.166  -2.061  0.00  0.00     0.037 A 
ATOM     15  C2  <0> d           0.605  -0.606  -1.054  0.00  0.00     0.068 A 
ATOM     16  C7  <0> d           0.659  -1.994  -1.123  0.00  0.00     0.037 A 
ATOM     17  C6  <0> d           1.265  -2.609  -2.196  0.00  0.00     0.016 A 
BRANCH  15  18
ATOM     18  O1  <0> d           0.002  -0.004   0.002  0.00  0.00    -0.356 OA
ATOM     19  C1  <0> d          -0.017   1.425   0.010  0.00  0.00     0.210 C 
ENDBRANCH  15  18
ENDBRANCH   1  12
BRANCH   9  20
ATOM     20  C13 <0> d           1.707  -7.157  -5.497  0.00  0.00     0.045 A 
ATOM     21  C18 <0> d           1.090  -7.741  -4.399  0.00  0.00     0.030 A 
ATOM     22  C17 <0> d           0.522  -8.995  -4.515  0.00  0.00     0.002 A 
ATOM     23  C16 <0> d           0.576  -9.672  -5.719  0.00  0.00     0.000 A 
ATOM     24  C15 <0> d           1.194  -9.095  -6.813  0.00  0.00     0.002 A 
ATOM     25  C14 <0> d           1.760  -7.839  -6.705  0.00  0.00     0.030 A 
ENDBRANCH   9  20
TORSDOF 3
