REMARK  5 active torsions:
REMARK  status: ('A' for Active; 'I' for Inactive)
REMARK    1  A    between atoms: C6_6  and  C7_7 
REMARK    2  A    between atoms: C7_7  and  N1_8 
REMARK    3  A    between atoms: C10_12  and  C11_13 
REMARK    4  A    between atoms: C14_16  and  O3_20 
REMARK    5  A    between atoms: C15_17  and  O2_19 
ROOT
ATOM      1  N1  <0> d           5.138   1.457   0.195  0.00  0.00    -0.270 N 
ATOM      2  C8  <0> d           3.870   1.822   0.099  0.00  0.00     0.268 A 
ATOM      3  O1  <0> d           2.973   1.003   0.023  0.00  0.00    -0.266 OA
ATOM      4  C9  <0> d           3.599   3.273   0.087  0.00  0.00     0.079 A 
ATOM      5  C10 <0> d           2.415   3.931  -0.001  0.00  0.00     0.036 C 
ATOM      6  S1  <0> d           5.259   3.925   0.212  0.00  0.00    -0.023 SA
ATOM      7  C17 <0> d           6.129   2.367   0.277  0.00  0.00     0.294 A 
ATOM      8  O4  <0> d           7.326   2.174   0.367  0.00  0.00    -0.259 OA
ENDROOT
BRANCH   5   9
ATOM      9  C11 <0> d           1.153   3.186   0.081  0.00  0.00    -0.032 A 
ATOM     10  C16 <0> d           1.024   2.118   0.977  0.00  0.00     0.051 A 
ATOM     11  C15 <0> d          -0.166   1.421   1.048  0.00  0.00     0.099 A 
ATOM     12  C14 <0> d          -1.237   1.785   0.234  0.00  0.00     0.098 A 
ATOM     13  C13 <0> d          -1.110   2.840  -0.659  0.00  0.00     0.040 A 
ATOM     14  C12 <0> d           0.073   3.541  -0.738  0.00  0.00     0.014 A 
BRANCH  11  15
ATOM     15  O2  <0> d          -0.294   0.383   1.918  0.00  0.00    -0.358 OA
ATOM     16  H11 <0> d          -0.620   0.640   2.792  0.00  0.00     0.217 HD
ENDBRANCH  11  15
BRANCH  12  17
ATOM     17  O3  <0> d          -2.409   1.101   0.311  0.00  0.00    -0.358 OA
ATOM     18  H12 <0> d          -2.462   0.343  -0.287  0.00  0.00     0.217 HD
ENDBRANCH  12  17
ENDBRANCH   5   9
BRANCH   1  19
ATOM     19  C7  <0> d           5.472   0.030   0.211  0.00  0.00     0.174 C 
BRANCH  19  20
ATOM     20  C6  <0> d           5.697  -0.450  -1.200  0.00  0.00    -0.040 A 
ATOM     21  C1  <0> d           4.639  -0.949  -1.936  0.00  0.00     0.010 A 
ATOM     22  C2  <0> d           4.843  -1.384  -3.232  0.00  0.00     0.024 A 
ATOM     23  C3  <0> d           6.109  -1.331  -3.788  0.00  0.00     0.034 A 
ATOM     24  C4  <0> d           7.169  -0.837  -3.048  0.00  0.00     0.024 A 
ATOM     25 Cl1  <0> d           6.368  -1.886  -5.412  0.00  0.00    -0.084 Cl
ATOM     26  C5  <0> d           6.962  -0.396  -1.754  0.00  0.00     0.010 A 
ENDBRANCH  19  20
ENDBRANCH   1  19
TORSDOF 5
