REMARK  8 active torsions:
REMARK  status: ('A' for Active; 'I' for Inactive)
REMARK    1  A    between atoms: O1_2  and  C2_3 
REMARK    2  A    between atoms: C6_7  and  C8_9 
REMARK    3  A    between atoms: C10_11  and  C24_31 
REMARK    4  A    between atoms: N1_12  and  C13_18 
REMARK    5  A    between atoms: C13_18  and  C14_19 
REMARK    6  A    between atoms: C14_19  and  C15_20 
REMARK    7  A    between atoms: C18_23  and  O3_29 
REMARK    8  A    between atoms: C27_34  and  O4_37 
ROOT
ATOM      1  C8  <0> d          -2.587  -4.011   0.150  0.00  0.00     0.143 C 
ATOM      2  C9  <0> d          -2.853  -4.635   1.539  0.00  0.00     0.077 C 
ATOM      3  C10 <0> d          -1.604  -5.411   1.996  0.00  0.00     0.129 C 
ATOM      4  N1  <0> d          -1.677  -6.718   1.337  0.00  0.00    -0.341 N 
ATOM      5  C11 <0> d          -2.909  -6.961   0.866  0.00  0.00     0.247 C 
ATOM      6  O2  <0> d          -3.244  -7.982   0.303  0.00  0.00    -0.271 OA
ATOM      7  C12 <0> d          -3.836  -5.778   1.136  0.00  0.00     0.229 C 
ATOM      8  N2  <0> d          -4.409  -5.307  -0.133  0.00  0.00    -0.206 NA
ATOM      9  N3  <0> d          -3.760  -4.394  -0.647  0.00  0.00    -0.308 N 
ATOM     10  H30 <0> d          -3.998  -3.972  -1.487  0.00  0.00     0.182 HD
ENDROOT
BRANCH   4  11
ATOM     11  C13 <0> d          -0.547  -7.642   1.208  0.00  0.00     0.131 C 
BRANCH  11  12
ATOM     12  C14 <0> d          -0.513  -8.576   2.419  0.00  0.00     0.056 C 
BRANCH  12  13
ATOM     13  C15 <0> d           0.649  -9.527   2.288  0.00  0.00    -0.048 A 
ATOM     14  C22 <0> d           0.671 -10.838   1.534  0.00  0.00     0.155 A 
ATOM     15  N4  <0> d           2.024 -11.379   1.704  0.00  0.00    -0.385 N 
ATOM     16  C21 <0> d           2.715 -10.548   2.445  0.00  0.00     0.039 A 
ATOM     17  H29 <0> d           2.351 -12.213   1.334  0.00  0.00     0.160 HD
ATOM     18  C16 <0> d           1.882  -9.383   2.824  0.00  0.00    -0.003 A 
ATOM     19  C20 <0> d           4.098 -10.585   2.930  0.00  0.00     0.033 A 
ATOM     20  C17 <0> d           2.489  -8.340   3.659  0.00  0.00     0.050 A 
ATOM     21  C18 <0> d           3.778  -8.469   4.055  0.00  0.00     0.069 A 
ATOM     22  C19 <0> d           4.567  -9.575   3.695  0.00  0.00     0.039 A 
BRANCH  21  23
ATOM     23  O3  <0> d           4.327  -7.495   4.827  0.00  0.00    -0.356 OA
ATOM     24  C23 <0> d           5.689  -7.671   5.223  0.00  0.00     0.210 C 
ENDBRANCH  21  23
ENDBRANCH  12  13
ENDBRANCH  11  12
ENDBRANCH   4  11
BRANCH   3  25
ATOM     25  C24 <0> d          -0.356  -4.682   1.569  0.00  0.00    -0.035 A 
ATOM     26  C29 <0> d           0.216  -4.954   0.339  0.00  0.00     0.012 A 
ATOM     27  C28 <0> d           1.357  -4.283  -0.057  0.00  0.00     0.037 A 
ATOM     28  C27 <0> d           1.935  -3.344   0.785  0.00  0.00     0.065 A 
ATOM     29  C26 <0> d           1.363  -3.077   2.020  0.00  0.00     0.037 A 
ATOM     30  C25 <0> d           0.219  -3.747   2.409  0.00  0.00     0.012 A 
BRANCH  28  31
ATOM     31  O4  <0> d           3.060  -2.686   0.400  0.00  0.00    -0.361 OA
ATOM     32  H28 <0> d           3.881  -3.128   0.654  0.00  0.00     0.217 HD
ENDBRANCH  28  31
ENDBRANCH   3  25
BRANCH   1  33
ATOM     33  C6  <0> d          -2.488  -2.510   0.255  0.00  0.00    -0.031 A 
ATOM     34  C5  <0> d          -3.636  -1.748   0.366  0.00  0.00     0.009 A 
ATOM     35  C4  <0> d          -3.547  -0.372   0.464  0.00  0.00     0.003 A 
ATOM     36  C3  <0> d          -2.312   0.245   0.450  0.00  0.00     0.037 A 
ATOM     37  C2  <0> d          -1.158  -0.517   0.338  0.00  0.00     0.068 A 
ATOM     38  C7  <0> d          -1.249  -1.898   0.235  0.00  0.00     0.046 A 
BRANCH  37  39
ATOM     39  O1  <0> d           0.059   0.087   0.324  0.00  0.00    -0.356 OA
ATOM     40  C1  <0> d           0.077   1.512   0.434  0.00  0.00     0.210 C 
ENDBRANCH  37  39
ENDBRANCH   1  33
TORSDOF 8
