REMARK  6 active torsions:
REMARK  status: ('A' for Active; 'I' for Inactive)
REMARK    1  A    between atoms: O1_2  and  C2_3 
REMARK    2  A    between atoms: C2_3  and  C3_5 
REMARK    3  A    between atoms: C8_10  and  N1_11 
REMARK       I    between atoms: N1_11  and  C9_12 
REMARK    4  A    between atoms: C9_12  and  C10_14 
REMARK    5  A    between atoms: C10_14  and  S1_15 
REMARK    6  A    between atoms: S1_15  and  C11_16 
ROOT
ATOM      1  S1  <0> d           3.198  -3.053  -6.936  0.00  0.00    -0.114 SA
ENDROOT
BRANCH   1   2
ATOM      2  C10 <0> d           2.762  -1.909  -5.598  0.00  0.00     0.180 C 
BRANCH   2   3
ATOM      3  C9  <0> d           2.119  -2.675  -4.471  0.00  0.00     0.231 C 
ATOM      4  N1  <0> d           1.710  -2.026  -3.362  0.00  0.00    -0.326 N 
ATOM      5  H8  <0> d           1.759  -1.058  -3.321  0.00  0.00     0.169 HD
ATOM      6  O3  <0> d           1.970  -3.875  -4.561  0.00  0.00    -0.272 OA
BRANCH   4   7
ATOM      7  C8  <0> d           1.218  -2.746  -2.277  0.00  0.00     0.051 A 
ATOM      8  C3  <0> d           0.185  -2.215  -1.489  0.00  0.00     0.066 A 
ATOM      9  C4  <0> d          -0.305  -2.949  -0.406  0.00  0.00     0.020 A 
ATOM     10  C5  <0> d           0.232  -4.185  -0.115  0.00  0.00     0.001 A 
ATOM     11  C6  <0> d           1.256  -4.704  -0.892  0.00  0.00     0.002 A 
ATOM     12  C7  <0> d           1.750  -3.990  -1.965  0.00  0.00     0.030 A 
BRANCH   8  13
ATOM     13  C2  <0> d          -0.385  -0.893  -1.806  0.00  0.00     0.295 C 
ATOM     14  O2  <0> d           0.099  -0.220  -2.695  0.00  0.00    -0.259 OA
BRANCH  13  15
ATOM     15  O1  <0> d          -1.442  -0.430  -1.111  0.00  0.00    -0.322 OA
ATOM     16  C1  <0> d          -1.943   0.859  -1.472  0.00  0.00     0.213 C 
ENDBRANCH  13  15
ENDBRANCH   8  13
ENDBRANCH   4   7
ENDBRANCH   2   3
ENDBRANCH   1   2
BRANCH   1  17
ATOM     17  C11 <0> d           3.950  -1.988  -8.197  0.00  0.00     0.247 A 
ATOM     18  N3  <0> d           5.132  -1.315  -7.648  0.00  0.00    -0.358 N 
ATOM     19  C21 <0> d           4.913  -0.026  -7.708  0.00  0.00     0.057 A 
ATOM     20  H19 <0> d           5.929  -1.746  -7.302  0.00  0.00     0.162 HD
ATOM     21  C12 <0> d           3.573   0.218  -8.302  0.00  0.00     0.057 A 
ATOM     22  C20 <0> d           5.714   1.079  -7.316  0.00  0.00     0.043 A 
ATOM     23  N2  <0> d           3.012  -0.930  -8.587  0.00  0.00    -0.358 N 
ATOM     24  C13 <0> d           3.115   1.551  -8.467  0.00  0.00     0.043 A 
ATOM     25  H18 <0> d           2.136  -1.057  -8.983  0.00  0.00     0.162 HD
ATOM     26  C14 <0> d           3.914   2.607  -8.078  0.00  0.00    -0.024 A 
ATOM     27  C19 <0> d           5.244   2.365  -7.489  0.00  0.00    -0.024 A 
ATOM     28  C15 <0> d           3.476   3.946  -8.234  0.00  0.00     0.012 A 
ATOM     29  C18 <0> d           6.028   3.482  -7.104  0.00  0.00     0.012 A 
ATOM     30  C17 <0> d           5.543   4.733  -7.284  0.00  0.00     0.001 A 
ATOM     31  C16 <0> d           4.280   4.963  -7.843  0.00  0.00     0.001 A 
ENDBRANCH   1  17
TORSDOF 6
