REMARK  7 active torsions:
REMARK  status: ('A' for Active; 'I' for Inactive)
REMARK    1  A    between atoms: N1_2  and  C3_4 
REMARK    2  A    between atoms: C3_4  and  C4_5 
REMARK    3  A    between atoms: C3_4  and  C25_32 
REMARK    4  A    between atoms: C4_5  and  N2_6 
REMARK       I    between atoms: N2_6  and  C5_7 
REMARK    5  A    between atoms: C5_7  and  C6_9 
REMARK       I    between atoms: N3_11  and  C14_19 
REMARK    6  A    between atoms: C14_19  and  C15_21 
REMARK    7  A    between atoms: C18_24  and  C19_26 
ROOT
ATOM      1  C6  <0> d           0.341  -2.926   3.203  0.00  0.00     0.106 C 
ATOM      2  C7  <0> d           1.631  -2.077   3.250  0.00  0.00     0.141 C 
ATOM      3  N3  <0> d           2.646  -2.972   3.854  0.00  0.00    -0.345 N 
ATOM      4  C8  <0> d           2.366  -4.301   3.260  0.00  0.00     0.136 C 
ATOM      5  C9  <0> d           0.827  -4.385   3.209  0.00  0.00    -0.007 C 
ATOM      6  C10 <0> d           0.297  -5.114   4.440  0.00  0.00     0.039 C 
ATOM      7  C11 <0> d           0.747  -6.577   4.395  0.00  0.00     0.233 C 
ATOM      8  N4  <0> d           0.240  -7.209   3.171  0.00  0.00    -0.075 N 
ATOM      9  C12 <0> d           0.827  -6.561   1.992  0.00  0.00     0.233 C 
ATOM     10  C13 <0> d           0.381  -5.097   1.936  0.00  0.00     0.039 C 
ATOM     11  C14 <0> d           3.606  -2.650   4.743  0.00  0.00     0.277 C 
ATOM     12  O2  <0> d           4.371  -3.505   5.149  0.00  0.00    -0.265 OA
ATOM     13  H20 <0> d           0.486  -8.187   3.173  0.00  0.00     0.277 HD
ATOM     14  H37 <0> d          -0.764  -7.117   3.138  0.00  0.00     0.277 HD
ENDROOT
BRANCH   1  15
ATOM     15  C5  <0> d          -0.432  -2.637   1.942  0.00  0.00     0.224 C 
ATOM     16  N2  <0> d          -1.773  -2.774   1.926  0.00  0.00    -0.358 N 
ATOM     17  H11 <0> d          -2.240  -3.060   2.727  0.00  0.00     0.162 HD
ATOM     18  O1  <0> d           0.152  -2.280   0.941  0.00  0.00    -0.273 OA
BRANCH  16  19
ATOM     19  C4  <0> d          -2.524  -2.493   0.700  0.00  0.00     0.160 C 
BRANCH  19  20
ATOM     20  C3  <0> d          -3.997  -2.847   0.912  0.00  0.00     0.237 C 
BRANCH  20  21
ATOM     21  N1  <0> d          -4.771  -2.451  -0.272  0.00  0.00    -0.069 N 
ATOM     22  C1  <0> d          -6.177  -2.836  -0.089  0.00  0.00     0.270 C 
ATOM     23  C2  <0> d          -4.681  -0.996  -0.451  0.00  0.00     0.270 C 
ATOM     24  H38 <0> d          -4.399  -2.914  -1.087  0.00  0.00     0.279 HD
ENDBRANCH  20  21
BRANCH  20  25
ATOM     25  C25 <0> d          -4.131  -4.333   1.126  0.00  0.00    -0.026 A 
ATOM     26  C30 <0> d          -4.268  -4.838   2.405  0.00  0.00     0.009 A 
ATOM     27  C29 <0> d          -4.395  -6.200   2.601  0.00  0.00     0.001 A 
ATOM     28  C28 <0> d          -4.375  -7.059   1.517  0.00  0.00     0.000 A 
ATOM     29  C27 <0> d          -4.233  -6.554   0.238  0.00  0.00     0.001 A 
ATOM     30  C26 <0> d          -4.110  -5.191   0.042  0.00  0.00     0.009 A 
ENDBRANCH  20  25
ENDBRANCH  19  20
ENDBRANCH  16  19
ENDBRANCH   1  15
BRANCH  11  31
ATOM     31  C15 <0> d           3.730  -1.270   5.221  0.00  0.00     0.143 A 
ATOM     32  O3  <0> d           2.951  -0.231   4.853  0.00  0.00    -0.304 OA
ATOM     33  C18 <0> d           3.354   0.877   5.495  0.00  0.00     0.086 A 
ATOM     34  C17 <0> d           4.419   0.560   6.288  0.00  0.00     0.041 A 
ATOM     35  C16 <0> d           4.665  -0.806   6.120  0.00  0.00     0.046 A 
BRANCH  33  36
ATOM     36  C19 <0> d           2.749   2.218   5.361  0.00  0.00    -0.002 A 
ATOM     37  C24 <0> d           1.657   2.414   4.513  0.00  0.00     0.014 A 
ATOM     38  C23 <0> d           1.094   3.667   4.397  0.00  0.00     0.001 A 
ATOM     39  C22 <0> d           1.615   4.732   5.110  0.00  0.00     0.000 A 
ATOM     40  C21 <0> d           2.700   4.547   5.948  0.00  0.00     0.001 A 
ATOM     41  C20 <0> d           3.270   3.297   6.078  0.00  0.00     0.014 A 
ENDBRANCH  33  36
ENDBRANCH  11  31
TORSDOF 7
