REMARK  5 active torsions:
REMARK  status: ('A' for Active; 'I' for Inactive)
REMARK    1  A    between atoms: C2_2  and  C3_3 
REMARK    2  A    between atoms: C2_2  and  N1_14 
REMARK    3  A    between atoms: C12_12  and  O1_13 
REMARK    4  A    between atoms: N1_14  and  C13_15 
REMARK    5  A    between atoms: C18_20  and  O2_21 
ROOT
ATOM      1  C1  <0> d          -0.019   1.526   0.010  0.00  0.00     0.045 C 
ATOM      2  C2  <0> d           0.002  -0.004   0.002  0.00  0.00     0.218 C 
ENDROOT
BRANCH   2   3
ATOM      3  C3  <0> d           0.731  -0.503   1.223  0.00  0.00     0.006 A 
ATOM      4  C12 <0> d           0.053  -0.646   2.401  0.00  0.00     0.085 A 
ATOM      5  C11 <0> d           0.734  -1.118   3.542  0.00  0.00     0.008 A 
ATOM      6  C6  <0> d           2.114  -1.426   3.449  0.00  0.00    -0.023 A 
ATOM      7  C10 <0> d           0.072  -1.283   4.769  0.00  0.00     0.015 A 
ATOM      8  C5  <0> d           2.776  -1.260   2.220  0.00  0.00     0.013 A 
ATOM      9  C7  <0> d           2.794  -1.891   4.587  0.00  0.00     0.012 A 
ATOM     10  C4  <0> d           2.087  -0.807   1.136  0.00  0.00     0.013 A 
ATOM     11  C8  <0> d           2.120  -2.039   5.760  0.00  0.00     0.001 A 
ATOM     12  C9  <0> d           0.763  -1.736   5.851  0.00  0.00     0.001 A 
BRANCH   4  13
ATOM     13  O1  <0> d          -1.268  -0.340   2.471  0.00  0.00    -0.359 OA
ATOM     14  H13 <0> d          -1.855  -1.083   2.273  0.00  0.00     0.217 HD
ENDBRANCH   4  13
ENDBRANCH   2   3
BRANCH   2  15
ATOM     15  N1  <0> d           0.690  -0.478  -1.207  0.00  0.00    -0.060 N 
ATOM     16  H14 <0> d           1.608  -0.063  -1.256  0.00  0.00     0.278 HD
ATOM     17  H24 <0> d           0.776  -1.482  -1.172  0.00  0.00     0.278 HD
BRANCH  15  18
ATOM     18  C13 <0> d          -0.086  -0.093  -2.394  0.00  0.00     0.215 C 
ATOM     19  C18 <0> d           0.690  -0.476  -3.655  0.00  0.00     0.148 C 
ATOM     20  C17 <0> d          -0.117  -0.075  -4.892  0.00  0.00     0.034 C 
ATOM     21  C16 <0> d          -1.463  -0.803  -4.880  0.00  0.00     0.003 C 
ATOM     22  C15 <0> d          -2.239  -0.420  -3.618  0.00  0.00     0.002 C 
ATOM     23  C14 <0> d          -1.431  -0.821  -2.382  0.00  0.00     0.036 C 
BRANCH  19  24
ATOM     24  O2  <0> d           0.912  -1.887  -3.668  0.00  0.00    -0.393 OA
ATOM     25  H23 <0> d           1.400  -2.202  -4.442  0.00  0.00     0.210 HD
ENDBRANCH  19  24
ENDBRANCH  15  18
ENDBRANCH   2  15
TORSDOF 5
