REMARK  5 active torsions:
REMARK  status: ('A' for Active; 'I' for Inactive)
REMARK    1  A    between atoms: C2_2  and  C3_3 
REMARK    2  A    between atoms: C2_2  and  C15_16 
REMARK    3  A    between atoms: C2_2  and  N2_19 
REMARK    4  A    between atoms: C3_3  and  C4_4 
REMARK    5  A    between atoms: C4_4  and  N1_5 
ROOT
ATOM      1  N1  <0> d           2.888  -0.468   2.421  0.00  0.00    -0.071 N 
ATOM      2  C5  <0> d           3.003  -1.930   2.356  0.00  0.00     0.235 C 
ATOM      3  C6  <0> d           3.670  -2.449   3.632  0.00  0.00     0.037 C 
ATOM      4  C7  <0> d           5.064  -1.830   3.760  0.00  0.00    -0.037 C 
ATOM      5  C8  <0> d           5.932  -2.278   2.583  0.00  0.00     0.010 C 
ATOM      6  C9  <0> d           6.053  -3.803   2.590  0.00  0.00     0.001 C 
ATOM      7  C10 <0> d           6.697  -4.256   3.901  0.00  0.00     0.000 C 
ATOM      8  C11 <0> d           5.829  -3.809   5.079  0.00  0.00     0.001 C 
ATOM      9  C12 <0> d           5.707  -2.284   5.071  0.00  0.00     0.010 C 
ATOM     10  C13 <0> d           4.939  -0.304   3.751  0.00  0.00     0.037 C 
ATOM     11  C14 <0> d           4.225   0.136   2.472  0.00  0.00     0.235 C 
ATOM     12  H28 <0> d           2.372  -0.210   3.248  0.00  0.00     0.279 HD
ENDROOT
BRANCH   1  13
ATOM     13  C4  <0> d           2.178   0.019   1.231  0.00  0.00     0.238 C 
BRANCH  13  14
ATOM     14  C3  <0> d           0.742  -0.511   1.242  0.00  0.00     0.080 C 
BRANCH  14  15
ATOM     15  C2  <0> d           0.002  -0.004   0.002  0.00  0.00     0.239 C 
ATOM     16  C1  <0> d          -0.019   1.526   0.010  0.00  0.00     0.061 C 
BRANCH  15  17
ATOM     17  C15 <0> d          -1.412  -0.526   0.013  0.00  0.00     0.212 C 
ATOM     18  O1  <0> d          -1.810  -1.227  -0.902  0.00  0.00    -0.646 OA
ATOM     19  O2  <0> d          -2.158  -0.246   0.936  0.00  0.00    -0.646 OA
ENDBRANCH  15  17
BRANCH  15  20
ATOM     20  N2  <0> d           0.690  -0.478  -1.207  0.00  0.00     0.098 N 
ATOM     21  H26 <0> d           0.717  -1.486  -1.236  0.00  0.00     0.314 HD
ATOM     22  H27 <0> d           0.258  -0.104  -2.038  0.00  0.00     0.314 HD
ENDBRANCH  15  20
ENDBRANCH  14  15
ENDBRANCH  13  14
ENDBRANCH   1  13
TORSDOF 5
