REMARK  8 active torsions:
REMARK  status: ('A' for Active; 'I' for Inactive)
REMARK    1  A    between atoms: C5_5  and  C8_8 
REMARK    2  A    between atoms: C8_8  and  C9_9 
REMARK    3  A    between atoms: C8_8  and  N3_23 
REMARK    4  A    between atoms: C9_9  and  C10_10 
REMARK       I    between atoms: C10_10  and  N1_12 
REMARK    5  A    between atoms: N1_12  and  C11_13 
REMARK    6  A    between atoms: C11_13  and  C12_14 
REMARK    7  A    between atoms: C12_14  and  C13_15 
REMARK    8  A    between atoms: C13_15  and  N2_16 
REMARK       I    between atoms: N3_23  and  C19_24 
ROOT
ATOM      1  C9  <0> d           1.533  -4.639   0.171  0.00  0.00     0.132 C 
ENDROOT
BRANCH   1   2
ATOM      2  C8  <0> d           0.059  -4.275  -0.021  0.00  0.00     0.126 C 
BRANCH   2   3
ATOM      3  C5  <0> d          -0.082  -2.777  -0.101  0.00  0.00    -0.035 A 
ATOM      4  C4  <0> d          -0.259  -2.164  -1.327  0.00  0.00     0.010 A 
ATOM      5  C3  <0> d          -0.390  -0.790  -1.401  0.00  0.00     0.007 A 
ATOM      6  C2  <0> d          -0.345  -0.029  -0.247  0.00  0.00    -0.062 A 
ATOM      7  C1  <0> d          -0.487   1.469  -0.327  0.00  0.00     0.048 C 
ATOM      8  C7  <0> d          -0.163  -0.641   0.978  0.00  0.00     0.007 A 
ATOM      9  C6  <0> d          -0.036  -2.016   1.052  0.00  0.00     0.010 A 
ENDBRANCH   2   3
BRANCH   2  10
ATOM     10  N3  <0> d          -0.720  -4.780   1.112  0.00  0.00    -0.352 N 
ATOM     11  C19 <0> d          -2.038  -5.021   0.969  0.00  0.00     0.214 C 
ATOM     12  O3  <0> d          -2.561  -4.907  -0.120  0.00  0.00    -0.274 OA
ATOM     13  C20 <0> d          -2.863  -5.432   2.161  0.00  0.00     0.117 C 
ATOM     14  H22 <0> d          -0.287  -4.941   1.965  0.00  0.00     0.163 HD
ENDBRANCH   2  10
ENDBRANCH   1   2
BRANCH   1  15
ATOM     15  C10 <0> d           1.691  -6.137   0.128  0.00  0.00     0.219 C 
ATOM     16  O1  <0> d           0.720  -6.844  -0.040  0.00  0.00    -0.274 OA
ATOM     17  N1  <0> d           2.911  -6.690   0.277  0.00  0.00    -0.361 N 
ATOM     18  H11 <0> d           3.687  -6.125   0.411  0.00  0.00     0.162 HD
BRANCH  17  19
ATOM     19  C11 <0> d           3.064  -8.147   0.235  0.00  0.00     0.124 C 
BRANCH  19  20
ATOM     20  C12 <0> d           4.538  -8.510   0.427  0.00  0.00     0.040 C 
BRANCH  20  21
ATOM     21  C13 <0> d           4.698 -10.031   0.384  0.00  0.00     0.133 C 
BRANCH  21  22
ATOM     22  N2  <0> d           6.109 -10.379   0.568  0.00  0.00    -0.325 N 
ATOM     23  C18 <0> d           6.587 -10.587   1.810  0.00  0.00     0.247 A 
ATOM     24  C17 <0> d           7.938 -10.927   1.996  0.00  0.00     0.074 A 
ATOM     25  O2  <0> d           5.844 -10.486   2.774  0.00  0.00    -0.268 OA
ATOM     26  C16 <0> d           8.756 -11.031   0.910  0.00  0.00     0.007 A 
ATOM     27  C15 <0> d           8.229 -10.802  -0.369  0.00  0.00     0.017 A 
ATOM     28  C14 <0> d           6.922 -10.482  -0.514  0.00  0.00     0.094 A 
ENDBRANCH  21  22
ENDBRANCH  20  21
ENDBRANCH  19  20
ENDBRANCH  17  19
ENDBRANCH   1  15
TORSDOF 8
