REMARK  5 active torsions:
REMARK  status: ('A' for Active; 'I' for Inactive)
REMARK    1  A    between atoms: C6_6  and  S1_7 
REMARK    2  A    between atoms: S1_7  and  N1_10 
REMARK    3  A    between atoms: N2_13  and  C9_14 
REMARK    4  A    between atoms: C9_14  and  C10_15 
REMARK    5  A    between atoms: C10_15  and  C11_16 
ROOT
ATOM      1  C11 <0> d           4.486   5.347   1.431  0.00  0.00     0.125 C 
ATOM      2  C12 <0> d           4.610   5.818   2.821  0.00  0.00     0.059 C 
ATOM      3  N3  <0> d           4.705   6.181   3.893  0.00  0.00    -0.197 NA
ENDROOT
BRANCH   1   4
ATOM      4  C10 <0> d           4.142   3.857   1.426  0.00  0.00     0.034 C 
BRANCH   4   5
ATOM      5  C9  <0> d           4.013   3.368  -0.018  0.00  0.00     0.124 C 
BRANCH   5   6
ATOM      6  N2  <0> d           3.684   1.940  -0.022  0.00  0.00    -0.380 N 
ATOM      7  C3  <0> d           2.390   1.418  -0.013  0.00  0.00     0.036 A 
ATOM      8  C2  <0> d           1.165   2.089   0.002  0.00  0.00     0.031 A 
ATOM      9  C4  <0> d           2.397   0.032  -0.021  0.00  0.00    -0.029 A 
ATOM     10  C1  <0> d          -0.017   1.378   0.010  0.00  0.00     0.027 A 
ATOM     11  C6  <0> d           0.002  -0.004   0.002  0.00  0.00     0.080 A 
ATOM     12  C5  <0> d           1.211  -0.675  -0.014  0.00  0.00     0.034 A 
ATOM     13  C7  <0> d           3.834  -0.441  -0.036  0.00  0.00     0.060 A 
ATOM     14  C8  <0> d           4.665   0.852  -0.037  0.00  0.00     0.128 A 
BRANCH  11  15
ATOM     15  S1  <0> d          -1.510  -0.908   0.012  0.00  0.00     0.256 S 
ATOM     16  O1  <0> d          -1.215  -2.188   0.553  0.00  0.00    -0.201 OA
ATOM     17  O2  <0> d          -2.493  -0.050   0.576  0.00  0.00    -0.201 OA
BRANCH  15  18
ATOM     18  N1  <0> d          -1.946  -1.151  -1.568  0.00  0.00    -0.324 N 
ATOM     19  H4  <0> d          -1.387  -0.809  -2.283  0.00  0.00     0.169 HD
ATOM     20  H5  <0> d          -2.760  -1.635  -1.777  0.00  0.00     0.169 HD
ENDBRANCH  15  18
ENDBRANCH  11  15
ENDBRANCH   5   6
ENDBRANCH   4   5
ENDBRANCH   1   4
TORSDOF 5
