REMARK  7 active torsions:
REMARK  status: ('A' for Active; 'I' for Inactive)
REMARK    1  A    between atoms: C3_3  and  C7_8 
REMARK    2  A    between atoms: C7_8  and  C8_9 
REMARK    3  A    between atoms: C7_8  and  O2_19 
REMARK    4  A    between atoms: C8_9  and  C9_10 
REMARK    5  A    between atoms: C9_10  and  N1_11 
REMARK    6  A    between atoms: C12_14  and  C15_17 
REMARK    7  A    between atoms: C15_17  and  O1_18 
ROOT
ATOM      1  C8  <0> d           4.252   2.222   1.393  0.00  0.00     0.064 C 
ENDROOT
BRANCH   1   2
ATOM      2  C7  <0> d           3.672   2.183  -0.022  0.00  0.00     0.152 C 
BRANCH   2   3
ATOM      3  C3  <0> d           2.378   1.411  -0.013  0.00  0.00    -0.028 A 
ATOM      4  C2  <0> d           1.171   2.086   0.002  0.00  0.00     0.010 A 
ATOM      5  C1  <0> d          -0.017   1.378   0.010  0.00  0.00     0.002 A 
ATOM      6  C6  <0> d           0.002  -0.004   0.002  0.00  0.00     0.019 A 
ATOM      7  C5  <0> d           1.210  -0.679  -0.014  0.00  0.00     0.011 A 
ATOM      8  C4  <0> d           2.397   0.029  -0.022  0.00  0.00     0.028 A 
ATOM      9 Br1  <0> d           1.236  -2.570  -0.025  0.00  0.00    -0.051 Br
ENDBRANCH   2   3
BRANCH   2  10
ATOM     10  O2  <0> d           4.601   1.546  -0.901  0.00  0.00    -0.391 OA
ATOM     11  H22 <0> d           4.814   0.635  -0.655  0.00  0.00     0.210 HD
ENDBRANCH   2  10
ENDBRANCH   1   2
BRANCH   1  12
ATOM     12  C9  <0> d           5.499   3.109   1.409  0.00  0.00     0.237 C 
BRANCH  12  13
ATOM     13  N1  <0> d           6.056   3.146   2.768  0.00  0.00    -0.071 N 
ATOM     14  C14 <0> d           7.179   4.090   2.809  0.00  0.00     0.235 C 
ATOM     15  C13 <0> d           7.712   4.193   4.239  0.00  0.00     0.034 C 
ATOM     16  C12 <0> d           8.186   2.813   4.703  0.00  0.00     0.012 C 
ATOM     17  C11 <0> d           7.026   1.819   4.585  0.00  0.00     0.034 C 
ATOM     18  C10 <0> d           6.519   1.804   3.142  0.00  0.00     0.235 C 
ATOM     19  H23 <0> d           5.342   3.446   3.415  0.00  0.00     0.279 HD
BRANCH  16  20
ATOM     20  C15 <0> d           8.646   2.892   6.160  0.00  0.00     0.168 C 
BRANCH  20  21
ATOM     21  O1  <0> d           9.801   3.729   6.250  0.00  0.00    -0.400 OA
ATOM     22  H21 <0> d          10.148   3.825   7.147  0.00  0.00     0.209 HD
ENDBRANCH  20  21
ENDBRANCH  16  20
ENDBRANCH  12  13
ENDBRANCH   1  12
TORSDOF 7
