REMARK  9 active torsions:
REMARK  status: ('A' for Active; 'I' for Inactive)
REMARK    1  A    between atoms: C2_2  and  O1_3 
REMARK    2  A    between atoms: O1_3  and  C3_4 
REMARK    3  A    between atoms: C5_6  and  C9_11 
REMARK    4  A    between atoms: C8_9  and  O2_10 
REMARK    5  A    between atoms: C11_13  and  C16_24 
REMARK    6  A    between atoms: N3_20  and  C14_21 
REMARK    7  A    between atoms: C14_21  and  C15_22 
REMARK    8  A    between atoms: C15_22  and  O4_23 
REMARK    9  A    between atoms: C21_29  and  O5_30 
ROOT
ATOM      1  C9  <0> d          -0.112  -4.854  -0.682  0.00  0.00     0.159 A 
ATOM      2  C10 <0> d          -1.415  -5.306  -0.083  0.00  0.00     0.034 A 
ATOM      3  C11 <0> d          -2.681  -4.948   0.395  0.00  0.00     0.101 A 
ATOM      4  N1  <0> d          -3.281  -6.054   0.788  0.00  0.00    -0.173 NA
ATOM      5  N2  <0> d          -2.521  -7.074   0.606  0.00  0.00    -0.272 N 
ATOM      6  H2  <0> d          -2.756  -7.990   0.823  0.00  0.00     0.189 HD
ATOM      7  C12 <0> d          -1.332  -6.678   0.062  0.00  0.00     0.129 A 
ATOM      8  C13 <0> d          -0.020  -7.119  -0.424  0.00  0.00     0.273 A 
ATOM      9  O3  <0> d           0.364  -8.273  -0.433  0.00  0.00    -0.266 OA
ATOM     10  N3  <0> d           0.698  -6.067  -0.860  0.00  0.00    -0.332 N 
ENDROOT
BRANCH   1  11
ATOM     11  C5  <0> d           0.585  -3.898   0.252  0.00  0.00    -0.028 A 
ATOM     12  C4  <0> d           0.713  -2.566  -0.095  0.00  0.00     0.049 A 
ATOM     13  C3  <0> d           1.353  -1.686   0.762  0.00  0.00     0.102 A 
ATOM     14  C8  <0> d           1.870  -2.147   1.969  0.00  0.00     0.099 A 
ATOM     15  C7  <0> d           1.732  -3.482   2.313  0.00  0.00     0.040 A 
ATOM     16  C6  <0> d           1.093  -4.355   1.453  0.00  0.00     0.012 A 
BRANCH  13  17
ATOM     17  O1  <0> d           1.481  -0.375   0.422  0.00  0.00    -0.349 OA
BRANCH  17  18
ATOM     18  C2  <0> d           0.926   0.027  -0.832  0.00  0.00     0.171 C 
ATOM     19  C1  <0> d           1.165   1.524  -1.039  0.00  0.00     0.034 C 
ENDBRANCH  17  18
ENDBRANCH  13  17
BRANCH  14  20
ATOM     20  O2  <0> d           2.504  -1.287   2.812  0.00  0.00    -0.358 OA
ATOM     21  H11 <0> d           1.918  -0.861   3.452  0.00  0.00     0.217 HD
ENDBRANCH  14  20
ENDBRANCH   1  11
BRANCH  10  22
ATOM     22  C14 <0> d           2.052  -6.120  -1.416  0.00  0.00     0.153 C 
BRANCH  22  23
ATOM     23  C15 <0> d           3.072  -6.107  -0.275  0.00  0.00     0.184 C 
BRANCH  23  24
ATOM     24  O4  <0> d           2.943  -7.305   0.493  0.00  0.00    -0.399 OA
ATOM     25  H16 <0> d           3.560  -7.365   1.235  0.00  0.00     0.209 HD
ENDBRANCH  23  24
ENDBRANCH  22  23
ENDBRANCH  10  22
BRANCH   3  26
ATOM     26  C16 <0> d          -3.244  -3.576   0.449  0.00  0.00     0.034 A 
ATOM     27  C21 <0> d          -3.189  -2.750  -0.677  0.00  0.00     0.079 A 
ATOM     28  C20 <0> d          -3.723  -1.472  -0.619  0.00  0.00     0.044 A 
ATOM     29  C19 <0> d          -4.295  -1.014   0.552  0.00  0.00    -0.059 A 
ATOM     30  C18 <0> d          -4.346  -1.827   1.670  0.00  0.00     0.014 A 
ATOM     31  C22 <0> d          -4.868   0.379   0.612  0.00  0.00     0.048 C 
ATOM     32  C17 <0> d          -3.823  -3.104   1.624  0.00  0.00    -0.046 A 
ATOM     33  C23 <0> d          -3.881  -3.987   2.844  0.00  0.00     0.049 C 
BRANCH  27  34
ATOM     34  O5  <0> d          -2.620  -3.200  -1.825  0.00  0.00    -0.360 OA
ATOM     35  H19 <0> d          -3.251  -3.572  -2.457  0.00  0.00     0.217 HD
ENDBRANCH  27  34
ENDBRANCH   3  26
TORSDOF 9
