REMARK  6 active torsions:
REMARK  status: ('A' for Active; 'I' for Inactive)
REMARK    1  A    between atoms: C3_3  and  C10_12 
REMARK    2  A    between atoms: C10_12  and  C11_14 
REMARK    3  A    between atoms: C11_14  and  S1_16 
REMARK    4  A    between atoms: S1_16  and  C13_17 
REMARK    5  A    between atoms: C14_19  and  N5_24 
REMARK    6  A    between atoms: C16_21  and  N4_23 
ROOT
ATOM      1  C11 <0> d          -0.144   1.310   2.607  0.00  0.00     0.126 C 
ATOM      2  C12 <0> d           1.192   2.014   2.356  0.00  0.00     0.030 C 
ENDROOT
BRANCH   1   3
ATOM      3  C10 <0> d           0.024  -0.173   2.401  0.00  0.00     0.176 C 
ATOM      4  O1  <0> d           0.277  -0.892   3.347  0.00  0.00    -0.291 OA
BRANCH   3   5
ATOM      5  C3  <0> d          -0.114  -0.729   1.105  0.00  0.00     0.046 A 
ATOM      6  C2  <0> d          -1.287  -1.106   0.486  0.00  0.00     0.020 A 
ATOM      7  C1  <0> d          -2.663  -0.991   1.090  0.00  0.00     0.069 C 
ATOM      8  N1  <0> d          -1.015  -1.597  -0.738  0.00  0.00    -0.358 N 
ATOM      9  C9  <0> d           0.342  -1.560  -0.988  0.00  0.00     0.043 A 
ATOM     10  H1  <0> d          -1.682  -1.930  -1.359  0.00  0.00     0.166 HD
ATOM     11  C4  <0> d           0.969  -1.022   0.146  0.00  0.00     0.006 A 
ATOM     12  C8  <0> d           1.117  -1.940  -2.079  0.00  0.00     0.030 A 
ATOM     13  C5  <0> d           2.353  -0.872   0.175  0.00  0.00     0.015 A 
ATOM     14  C6  <0> d           3.103  -1.254  -0.916  0.00  0.00     0.001 A 
ATOM     15  C7  <0> d           2.485  -1.786  -2.038  0.00  0.00     0.002 A 
ENDBRANCH   3   5
ENDBRANCH   1   3
BRANCH   1  16
ATOM     16  S1  <0> d          -0.682   1.627   4.306  0.00  0.00    -0.077 SA
BRANCH  16  17
ATOM     17  C13 <0> d          -0.940   3.368   4.225  0.00  0.00     0.192 A 
ATOM     18  N3  <0> d          -1.354   4.010   5.308  0.00  0.00    -0.206 NA
ATOM     19  C16 <0> d          -1.559   5.325   5.284  0.00  0.00     0.127 A 
ATOM     20  C15 <0> d          -1.332   6.025   4.102  0.00  0.00     0.100 A 
ATOM     21  C14 <0> d          -0.898   5.316   2.986  0.00  0.00     0.127 A 
ATOM     22  N2  <0> d          -0.709   4.003   3.085  0.00  0.00    -0.206 NA
BRANCH  19  23
ATOM     23  N4  <0> d          -1.993   5.989   6.421  0.00  0.00    -0.384 N 
ATOM     24  H14 <0> d          -2.149   5.495   7.241  0.00  0.00     0.157 HD
ATOM     25  H15 <0> d          -2.140   6.947   6.396  0.00  0.00     0.157 HD
ENDBRANCH  19  23
BRANCH  21  26
ATOM     26  N5  <0> d          -0.659   5.972   1.788  0.00  0.00    -0.384 N 
ATOM     27  H16 <0> d          -0.794   6.930   1.723  0.00  0.00     0.157 HD
ATOM     28  H17 <0> d          -0.356   5.472   1.013  0.00  0.00     0.157 HD
ENDBRANCH  21  26
ENDBRANCH  16  17
ENDBRANCH   1  16
TORSDOF 6
