REMARK  6 active torsions:
REMARK  status: ('A' for Active; 'I' for Inactive)
REMARK    1  A    between atoms: C3_3  and  C4_4 
REMARK    2  A    between atoms: C4_4  and  O2_6 
REMARK    3  A    between atoms: O2_6  and  C5_7 
REMARK    4  A    between atoms: C9_12  and  O5_24 
REMARK    5  A    between atoms: C12_15  and  C15_18 
REMARK    6  A    between atoms: C12_15  and  O4_21 
ROOT
ATOM      1  C5  <0> d          -4.537  -0.944   1.212  0.00  0.00     0.146 C 
ATOM      2  C6  <0> d          -4.953  -1.241   2.652  0.00  0.00     0.068 C 
ATOM      3  C7  <0> d          -4.827  -2.721   3.002  0.00  0.00     0.156 A 
ATOM      4  C8  <0> d          -5.735  -3.736   2.280  0.00  0.00     0.180 A 
ATOM      5  O3  <0> d          -4.340  -3.629   2.026  0.00  0.00    -0.373 OA
ATOM      6  C9  <0> d          -6.771  -3.173   1.305  0.00  0.00     0.158 C 
ATOM      7  C10 <0> d          -6.151  -2.578   0.068  0.00  0.00    -0.003 C 
ATOM      8  C11 <0> d          -5.643  -1.162   0.230  0.00  0.00     0.024 C 
ATOM      9  C12 <0> d          -5.431  -0.645  -1.203  0.00  0.00     0.071 C 
ATOM     10  C13 <0> d          -6.424  -1.466  -2.063  0.00  0.00     0.040 C 
ATOM     11  C14 <0> d          -7.183  -2.400  -1.085  0.00  0.00     0.016 C 
ATOM     12  C18 <0> d          -6.834  -0.291   0.719  0.00  0.00     0.022 C 
ATOM     13  C19 <0> d          -5.090  -3.530  -0.501  0.00  0.00     0.019 C 
ENDROOT
BRANCH   1  14
ATOM     14  O2  <0> d          -3.359  -1.685   0.899  0.00  0.00    -0.312 OA
BRANCH  14  15
ATOM     15  C4  <0> d          -2.208  -1.271   1.465  0.00  0.00     0.282 C 
ATOM     16  O1  <0> d          -2.205  -0.302   2.199  0.00  0.00    -0.260 OA
BRANCH  15  17
ATOM     17  C3  <0> d          -0.956  -1.992   1.195  0.00  0.00     0.077 C 
ATOM     18  C2  <0> d           0.181  -1.583   1.754  0.00  0.00    -0.025 C 
ATOM     19  C1  <0> d           0.184  -0.382   2.664  0.00  0.00     0.036 C 
ENDBRANCH  15  17
ENDBRANCH  14  15
ENDBRANCH   1  14
BRANCH   9  20
ATOM     20  C15 <0> d          -4.006  -0.788  -1.710  0.00  0.00     0.013 C 
ATOM     21  C16 <0> d          -3.975  -0.541  -3.220  0.00  0.00     0.012 C 
ATOM     22  C17 <0> d          -3.110   0.233  -1.008  0.00  0.00     0.012 C 
ENDBRANCH   9  20
BRANCH   9  23
ATOM     23  O4  <0> d          -5.816   0.740  -1.251  0.00  0.00    -0.389 OA
ATOM     24  H23 <0> d          -5.713   1.147  -2.122  0.00  0.00     0.210 HD
ENDBRANCH   9  23
BRANCH   6  25
ATOM     25  O5  <0> d          -7.656  -4.242   0.905  0.00  0.00    -0.392 OA
ATOM     26  H30 <0> d          -8.136  -4.650   1.639  0.00  0.00     0.210 HD
ENDBRANCH   6  25
TORSDOF 6
