REMARK  5 active torsions:
REMARK  status: ('A' for Active; 'I' for Inactive)
REMARK    1  A    between atoms: C4_5  and  C6_7 
REMARK    2  A    between atoms: C6_7  and  O1_8 
REMARK    3  A    between atoms: O1_8  and  C7_9 
REMARK    4  A    between atoms: C10_12  and  C13_15 
REMARK    5  A    between atoms: C13_15  and  N2_16 
ROOT
ATOM      1  C7  <0> d          -0.235  -4.024  -0.019  0.00  0.00     0.069 A 
ATOM      2  C8  <0> d           0.882  -4.846  -0.030  0.00  0.00     0.037 A 
ATOM      3  C9  <0> d           0.728  -6.219  -0.036  0.00  0.00     0.011 A 
ATOM      4  C10 <0> d          -0.538  -6.774  -0.033  0.00  0.00    -0.032 A 
ATOM      5  C11 <0> d          -1.654  -5.956  -0.023  0.00  0.00     0.011 A 
ATOM      6  C12 <0> d          -1.505  -4.583  -0.010  0.00  0.00     0.037 A 
ENDROOT
BRANCH   4   7
ATOM      7  C13 <0> d          -0.704  -8.271  -0.040  0.00  0.00     0.274 C 
BRANCH   7   8
ATOM      8  N2  <0> d          -0.750  -8.766   1.343  0.00  0.00    -0.057 N 
ATOM      9  C17 <0> d          -1.032 -10.217   1.360  0.00  0.00     0.206 C 
ATOM     10  C16 <0> d           0.328 -10.893   1.087  0.00  0.00     0.037 C 
ATOM     11  C18 <0> d          -1.508 -10.618   2.756  0.00  0.00     0.155 C 
ATOM     12  C15 <0> d           1.385  -9.846   1.492  0.00  0.00     0.036 C 
ATOM     13  C14 <0> d           0.574  -8.627   1.982  0.00  0.00     0.198 C 
ATOM     14  C20 <0> d           0.412  -8.711   3.500  0.00  0.00     0.136 C 
ATOM     15  C19 <0> d           0.571 -10.162   3.932  0.00  0.00     0.219 C 
ATOM     16  N3  <0> d          -0.372 -11.065   3.562  0.00  0.00    -0.359 N 
ATOM     17  O2  <0> d           1.524 -10.503   4.600  0.00  0.00    -0.274 OA
ATOM     18  H21 <0> d          -0.294 -11.995   3.829  0.00  0.00     0.162 HD
ATOM     19  H24 <0> d          -1.450  -8.266   1.871  0.00  0.00     0.281 HD
ENDBRANCH   7   8
ENDBRANCH   4   7
BRANCH   1  20
ATOM     20  O1  <0> d          -0.086  -2.673  -0.013  0.00  0.00    -0.345 OA
BRANCH  20  21
ATOM     21  C6  <0> d           1.250  -2.168  -0.023  0.00  0.00     0.234 C 
BRANCH  21  22
ATOM     22  C4  <0> d           1.218  -0.661  -0.014  0.00  0.00     0.058 A 
ATOM     23  N1  <0> d           2.350   0.015  -0.021  0.00  0.00    -0.263 NA
ATOM     24  C3  <0> d           2.370   1.334  -0.013  0.00  0.00     0.117 A 
ATOM     25  C2  <0> d           1.194   2.059   0.002  0.00  0.00     0.019 A 
ATOM     26  C1  <0> d          -0.017   1.382   0.010  0.00  0.00     0.003 A 
ATOM     27  C5  <0> d           0.002  -0.004   0.002  0.00  0.00     0.029 A 
ENDBRANCH  21  22
ENDBRANCH  20  21
ENDBRANCH   1  20
TORSDOF 5
