REMARK  3 active torsions:
REMARK  status: ('A' for Active; 'I' for Inactive)
REMARK    1  A    between atoms: C4_4  and  C10_11 
REMARK    2  A    between atoms: C7_7  and  O1_8 
REMARK    3  A    between atoms: C11_12  and  C15_19 
REMARK       I    between atoms: C15_19  and  N3_21 
ROOT
ATOM      1  C10 <0> d           1.107   3.838   0.024  0.00  0.00     0.158 A 
ATOM      2  C11 <0> d           0.920   2.350  -0.190  0.00  0.00     0.059 A 
ATOM      3  C12 <0> d          -0.343   1.878  -0.253  0.00  0.00     0.021 A 
ATOM      4  N1  <0> d          -1.415   2.716  -0.133  0.00  0.00    -0.337 N 
ATOM      5  C13 <0> d          -1.308   4.036   0.063  0.00  0.00     0.172 A 
ATOM      6  S1  <0> d          -2.735   4.971   0.204  0.00  0.00    -0.041 SA
ATOM      7  N2  <0> d          -0.113   4.654   0.147  0.00  0.00    -0.354 N 
ATOM      8  C14 <0> d          -0.574   0.404  -0.466  0.00  0.00     0.069 C 
ATOM      9  H13 <0> d          -2.437   2.313  -0.196  0.00  0.00     0.168 HD
ATOM     10  H14 <0> d          -0.035   5.739   0.304  0.00  0.00     0.163 HD
ENDROOT
BRANCH   1  11
ATOM     11  C4  <0> d           1.911   4.377  -1.131  0.00  0.00    -0.024 A 
ATOM     12  C3  <0> d           1.266   4.872  -2.249  0.00  0.00     0.019 A 
ATOM     13  C2  <0> d           2.001   5.366  -3.310  0.00  0.00    -0.028 A 
ATOM     14  C1  <0> d           1.297   5.906  -4.528  0.00  0.00     0.051 C 
ATOM     15  C7  <0> d           3.386   5.365  -3.253  0.00  0.00     0.074 A 
ATOM     16  C6  <0> d           4.032   4.867  -2.130  0.00  0.00     0.044 A 
ATOM     17  C5  <0> d           3.292   4.380  -1.069  0.00  0.00    -0.051 A 
ATOM     18  C9  <0> d           3.992   3.844   0.153  0.00  0.00     0.049 C 
BRANCH  15  19
ATOM     19  O1  <0> d           4.111   5.850  -4.295  0.00  0.00    -0.355 OA
ATOM     20  C8  <0> d           5.534   5.817  -4.167  0.00  0.00     0.210 C 
ENDBRANCH  15  19
ENDBRANCH   1  11
BRANCH   2  21
ATOM     21  C15 <0> d           2.033   1.483  -0.320  0.00  0.00     0.249 C 
ATOM     22  O2  <0> d           2.616   1.089   0.674  0.00  0.00    -0.268 OA
ATOM     23  N3  <0> d           2.446   1.095  -1.542  0.00  0.00    -0.366 N 
ATOM     24  H18 <0> d           3.310   0.421  -1.643  0.00  0.00     0.159 HD
ATOM     25  H19 <0> d           1.918   1.451  -2.440  0.00  0.00     0.159 HD
ENDBRANCH   2  21
TORSDOF 3
