REMARK  3 active torsions:
REMARK  status: ('A' for Active; 'I' for Inactive)
REMARK    1  A    between atoms: C4_5  and  C17_22 
REMARK    2  A    between atoms: C7_9  and  C8_10 
REMARK       I    between atoms: C8_10  and  N3_12 
REMARK    3  A    between atoms: N3_12  and  C9_13 
ROOT
ATOM      1  C1  <0> d          -0.012   1.447   0.006  0.00  0.00     0.019 A 
ATOM      2  C2  <0> d           1.123   2.170  -0.004  0.00  0.00     0.032 A 
ATOM      3  C3  <0> d           2.425   1.491   0.039  0.00  0.00     0.056 A 
ATOM      4  N1  <0> d           3.648   1.943   0.040  0.00  0.00    -0.360 N 
ATOM      5  C4  <0> d           4.546   0.783   0.095  0.00  0.00     0.292 A 
ATOM      6  N2  <0> d           3.685  -0.405   0.125  0.00  0.00    -0.360 N 
ATOM      7  C5  <0> d           2.449   0.006   0.092  0.00  0.00     0.057 A 
ATOM      8  C6  <0> d           1.168  -0.714   0.100  0.00  0.00     0.048 A 
ATOM      9  C7  <0> d           0.002  -0.012   0.058  0.00  0.00     0.034 A 
ATOM     10  H12 <0> d           3.915   2.875   0.011  0.00  0.00     0.162 HD
ATOM     11  H13 <0> d           3.982  -1.328   0.162  0.00  0.00     0.162 HD
ENDROOT
BRANCH   9  12
ATOM     12  C8  <0> d          -1.282  -0.745   0.066  0.00  0.00     0.256 C 
ATOM     13  O1  <0> d          -1.287  -1.960   0.110  0.00  0.00    -0.267 OA
ATOM     14  N3  <0> d          -2.445  -0.067   0.026  0.00  0.00    -0.323 N 
ATOM     15  H6  <0> d          -2.443   0.902   0.064  0.00  0.00     0.169 HD
BRANCH  14  16
ATOM     16  C9  <0> d          -3.645  -0.754  -0.070  0.00  0.00     0.035 C 
ATOM     17  C16 <0> d          -4.000  -1.761   0.935  0.00  0.00     0.028 C 
ATOM     18  C15 <0> d          -4.971  -2.656   0.751  0.00  0.00     0.007 C 
ATOM     19  C14 <0> d          -5.694  -2.692  -0.560  0.00  0.00     0.163 C 
ATOM     20  C11 <0> d          -5.665  -1.291  -1.148  0.00  0.00    -0.026 C 
ATOM     21  N4  <0> d          -7.111  -3.019  -0.476  0.00  0.00    -0.288 NA
ATOM     22  C10 <0> d          -4.513  -0.497  -1.123  0.00  0.00     0.039 C 
ATOM     23  C12 <0> d          -6.920  -1.070  -1.590  0.00  0.00     0.028 C 
ATOM     24  C13 <0> d          -7.767  -2.093  -1.121  0.00  0.00     0.112 C 
ENDBRANCH  14  16
ENDBRANCH   9  12
BRANCH   5  25
ATOM     25  C17 <0> d           5.441   0.754  -1.146  0.00  0.00     0.425 C 
ATOM     26  F1  <0> d           6.229   1.909  -1.180  0.00  0.00    -0.167 F 
ATOM     27  F2  <0> d           6.268  -0.374  -1.097  0.00  0.00    -0.167 F 
ATOM     28  F3  <0> d           4.644   0.699  -2.295  0.00  0.00    -0.167 F 
ENDBRANCH   5  25
TORSDOF 3
