REMARK  7 active torsions:
REMARK  status: ('A' for Active; 'I' for Inactive)
REMARK    1  A    between atoms: O1_2  and  C2_3 
REMARK    2  A    between atoms: C7_8  and  S1_9 
REMARK    3  A    between atoms: S1_9  and  C8_11 
REMARK    4  A    between atoms: C8_11  and  C9_12 
REMARK    5  A    between atoms: C9_12  and  C10_13 
REMARK    6  A    between atoms: C10_13  and  N1_14 
REMARK    7  A    between atoms: C12_16  and  N2_21 
ROOT
ATOM      1  C9  <0> d          -2.558  -3.931  -0.715  0.00  0.00     0.033 C 
ENDROOT
BRANCH   1   2
ATOM      2  C8  <0> d          -1.793  -3.106   0.322  0.00  0.00     0.116 C 
BRANCH   2   3
ATOM      3  S1  <0> d          -0.055  -2.968  -0.179  0.00  0.00     0.052 S 
ATOM      4  O2  <0> d           0.042  -2.143  -1.333  0.00  0.00    -0.253 OA
BRANCH   3   5
ATOM      5  C7  <0> d           0.682  -2.003   1.097  0.00  0.00     0.064 A 
ATOM      6  C2  <0> d           0.626  -0.618   1.042  0.00  0.00     0.087 A 
ATOM      7  C3  <0> d           1.202   0.139   2.051  0.00  0.00     0.038 A 
ATOM      8  C4  <0> d           1.835  -0.488   3.107  0.00  0.00     0.003 A 
ATOM      9  C5  <0> d           1.895  -1.869   3.158  0.00  0.00     0.002 A 
ATOM     10  C6  <0> d           1.321  -2.625   2.153  0.00  0.00     0.024 A 
BRANCH   6  11
ATOM     11  O1  <0> d           0.002  -0.004   0.002  0.00  0.00    -0.355 OA
ATOM     12  C1  <0> d          -0.017   1.425   0.010  0.00  0.00     0.210 C 
ENDBRANCH   6  11
ENDBRANCH   3   5
ENDBRANCH   2   3
ENDBRANCH   1   2
BRANCH   1  13
ATOM     13  C10 <0> d          -4.024  -4.047  -0.292  0.00  0.00     0.132 C 
BRANCH  13  14
ATOM     14  N1  <0> d          -4.757  -4.837  -1.284  0.00  0.00    -0.322 N 
ATOM     15  C15 <0> d          -4.842  -6.173  -1.140  0.00  0.00     0.247 A 
ATOM     16  C14 <0> d          -5.546  -6.941  -2.081  0.00  0.00     0.077 A 
ATOM     17  O3  <0> d          -4.308  -6.718  -0.186  0.00  0.00    -0.268 OA
ATOM     18  C13 <0> d          -6.133  -6.323  -3.146  0.00  0.00     0.036 A 
ATOM     19  C12 <0> d          -6.025  -4.927  -3.275  0.00  0.00     0.041 A 
ATOM     20  C11 <0> d          -5.340  -4.213  -2.343  0.00  0.00     0.123 A 
BRANCH  19  21
ATOM     21  N2  <0> d          -6.622  -4.273  -4.363  0.00  0.00    -0.398 N 
ATOM     22  H17 <0> d          -6.547  -3.310  -4.450  0.00  0.00     0.156 HD
ATOM     23  H18 <0> d          -7.111  -4.784  -5.027  0.00  0.00     0.156 HD
ENDBRANCH  19  21
ENDBRANCH  13  14
ENDBRANCH   1  13
TORSDOF 7
