REMARK  3 active torsions:
REMARK  status: ('A' for Active; 'I' for Inactive)
REMARK    1  A    between atoms: C2_2  and  C3_3 
REMARK    2  A    between atoms: C2_2  and  N2_15 
REMARK       I    between atoms: C3_3  and  N1_5 
REMARK    3  A    between atoms: N1_5  and  C4_6 
ROOT
ATOM      1  C3  <0> d           0.707  -0.490  -1.238  0.00  0.00     0.248 C 
ATOM      2  O1  <0> d           1.704  -1.174  -1.140  0.00  0.00    -0.271 OA
ATOM      3  N1  <0> d           0.231  -0.164  -2.456  0.00  0.00    -0.351 N 
ATOM      4  H6  <0> d          -0.566   0.383  -2.534  0.00  0.00     0.163 HD
ENDROOT
BRANCH   3   5
ATOM      5  C4  <0> d           0.917  -0.637  -3.661  0.00  0.00     0.120 C 
ATOM      6  C9  <0> d           0.429  -2.017  -4.014  0.00  0.00    -0.004 A 
ATOM      7  C8  <0> d           0.116  -2.422  -5.263  0.00  0.00     0.061 A 
ATOM      8  C10 <0> d           0.211  -3.110  -3.156  0.00  0.00     0.036 A 
ATOM      9  C7  <0> d           0.217  -1.540  -6.484  0.00  0.00     0.066 C 
ATOM     10  O2  <0> d          -0.282  -3.698  -5.204  0.00  0.00    -0.326 OA
ATOM     11  C6  <0> d           1.097  -0.333  -6.138  0.00  0.00     0.009 C 
ATOM     12  C5  <0> d           0.606   0.302  -4.834  0.00  0.00     0.030 C 
ATOM     13  C11 <0> d          -0.226  -4.126  -3.928  0.00  0.00     0.142 A 
ENDBRANCH   3   5
BRANCH   1  14
ATOM     14  C2  <0> d           0.002  -0.004   0.002  0.00  0.00     0.272 C 
ATOM     15  C1  <0> d          -0.019   1.526   0.010  0.00  0.00     0.050 C 
BRANCH  14  16
ATOM     16  N2  <0> d           0.713  -0.491   1.192  0.00  0.00    -0.067 N 
ATOM     17  C12 <0> d          -0.040  -0.119   2.398  0.00  0.00     0.267 C 
ATOM     18  H15 <0> d           0.798  -1.495   1.145  0.00  0.00     0.277 HD
ATOM     19  H19 <0> d           1.632  -0.076   1.228  0.00  0.00     0.277 HD
ENDBRANCH  14  16
ENDBRANCH   1  14
TORSDOF 3
