REMARK  5 active torsions:
REMARK  status: ('A' for Active; 'I' for Inactive)
REMARK    1  A    between atoms: N2_6  and  C5_7 
REMARK    2  A    between atoms: C5_7  and  C6_8 
REMARK    3  A    between atoms: C6_8  and  C7_9 
REMARK       I    between atoms: C7_9  and  N3_11 
REMARK    4  A    between atoms: N3_11  and  N4_12 
REMARK    5  A    between atoms: C8_13  and  C9_14 
ROOT
ATOM      1  C7  <0> d           2.350   1.143   4.153  0.00  0.00     0.238 C 
ATOM      2  O1  <0> d           2.180   2.292   3.806  0.00  0.00    -0.272 OA
ATOM      3  N3  <0> d           2.966   0.876   5.322  0.00  0.00    -0.247 N 
ATOM      4  H11 <0> d           3.103  -0.043   5.600  0.00  0.00     0.192 HD
ENDROOT
BRANCH   3   5
ATOM      5  N4  <0> d           3.410   1.927   6.136  0.00  0.00    -0.184 NA
ATOM      6  C8  <0> d           4.008   1.668   7.271  0.00  0.00     0.148 C 
BRANCH   6   7
ATOM      7  C9  <0> d           4.452   2.719   8.086  0.00  0.00    -0.009 A 
ATOM      8  C16 <0> d           4.327   4.202   7.814  0.00  0.00     0.161 A 
ATOM      9  N5  <0> d           4.938   4.877   8.963  0.00  0.00    -0.385 N 
ATOM     10  C15 <0> d           5.384   3.975   9.811  0.00  0.00     0.039 A 
ATOM     11  H22 <0> d           5.007   5.838   9.078  0.00  0.00     0.160 HD
ATOM     12  C10 <0> d           5.106   2.617   9.311  0.00  0.00    -0.000 A 
ATOM     13  C14 <0> d           6.052   4.105  11.058  0.00  0.00     0.030 A 
ATOM     14  C11 <0> d           5.512   1.508  10.087  0.00  0.00     0.014 A 
ATOM     15  C12 <0> d           6.145   1.710  11.270  0.00  0.00     0.001 A 
ATOM     16  C13 <0> d           6.411   2.996  11.748  0.00  0.00     0.002 A 
ENDBRANCH   6   7
ENDBRANCH   3   5
BRANCH   1  17
ATOM     17  C6  <0> d           1.873   0.013   3.278  0.00  0.00     0.121 C 
BRANCH  17  18
ATOM     18  C5  <0> d           1.214   0.585   2.021  0.00  0.00     0.123 C 
BRANCH  18  19
ATOM     19  N2  <0> d           0.749  -0.517   1.168  0.00  0.00    -0.223 NA
ATOM     20  C2  <0> d           0.002  -0.004   0.002  0.00  0.00     0.100 A 
ATOM     21  C1  <0> d          -0.019   1.526   0.010  0.00  0.00     0.032 C 
ATOM     22  C3  <0> d           0.774  -0.516  -1.194  0.00  0.00     0.020 A 
ATOM     23  C4  <0> d           1.794  -1.206  -0.723  0.00  0.00     0.015 A 
ATOM     24  N1  <0> d           1.805  -1.223   0.657  0.00  0.00    -0.323 N 
ATOM     25  C17 <0> d           2.821  -1.893  -1.586  0.00  0.00     0.069 C 
ATOM     26  H6  <0> d           2.473  -1.676   1.195  0.00  0.00     0.180 HD
ENDBRANCH  18  19
ENDBRANCH  17  18
ENDBRANCH   1  17
TORSDOF 5
