REMARK  5 active torsions:
REMARK  status: ('A' for Active; 'I' for Inactive)
REMARK    1  A    between atoms: N2_7  and  C7_10 
REMARK    2  A    between atoms: C7_10  and  C8_11 
REMARK    3  A    between atoms: C13_18  and  C14_19 
REMARK       I    between atoms: C14_19  and  N4_21 
REMARK    4  A    between atoms: N4_21  and  C15_22 
REMARK    5  A    between atoms: C20_27  and  O3_28 
ROOT
ATOM      1  C1  <0> d          -0.043   1.504   0.012  0.00  0.00     0.051 C 
ATOM      2  C2  <0> d          -0.025  -0.003   0.003  0.00  0.00    -0.021 A 
ATOM      3  C3  <0> d          -0.032  -0.696  -1.210  0.00  0.00     0.075 A 
ATOM      4  C4  <0> d          -0.014  -2.106  -1.113  0.00  0.00     0.116 A 
ATOM      5  N1  <0> d          -0.019  -2.882  -2.190  0.00  0.00    -0.235 NA
ATOM      6  C5  <0> d          -0.042  -2.380  -3.394  0.00  0.00     0.214 A 
ATOM      7  N2  <0> d          -0.060  -1.042  -3.614  0.00  0.00    -0.304 N 
ATOM      8  C6  <0> d          -0.058  -0.164  -2.591  0.00  0.00     0.262 A 
ATOM      9  O1  <0> d          -0.075   1.036  -2.799  0.00  0.00    -0.267 OA
ATOM     10  S1  <0> d           0.013  -2.394   0.638  0.00  0.00    -0.063 SA
ATOM     11  C13 <0> d           0.004  -0.693   1.179  0.00  0.00     0.082 A 
ENDROOT
BRANCH  11  12
ATOM     12  C14 <0> d           0.022  -0.168   2.548  0.00  0.00     0.263 C 
ATOM     13  O2  <0> d           0.011   1.034   2.739  0.00  0.00    -0.267 OA
ATOM     14  N4  <0> d           0.051  -1.017   3.595  0.00  0.00    -0.320 N 
ATOM     15  H11 <0> d          -0.005  -1.974   3.445  0.00  0.00     0.169 HD
BRANCH  14  16
ATOM     16  C15 <0> d           0.163  -0.517   4.898  0.00  0.00     0.068 A 
ATOM     17  C20 <0> d           0.875  -1.229   5.860  0.00  0.00     0.095 A 
ATOM     18  C19 <0> d           0.988  -0.727   7.147  0.00  0.00     0.039 A 
ATOM     19  C18 <0> d           0.383   0.472   7.476  0.00  0.00     0.003 A 
ATOM     20  C17 <0> d          -0.330   1.176   6.523  0.00  0.00     0.002 A 
ATOM     21  C16 <0> d          -0.442   0.685   5.236  0.00  0.00     0.032 A 
BRANCH  17  22
ATOM     22  O3  <0> d           1.465  -2.411   5.537  0.00  0.00    -0.354 OA
ATOM     23  C21 <0> d           2.180  -3.085   6.574  0.00  0.00     0.210 C 
ENDBRANCH  17  22
ENDBRANCH  14  16
ENDBRANCH  11  12
BRANCH   7  24
ATOM     24  C7  <0> d          -0.084  -0.541  -4.990  0.00  0.00     0.171 C 
BRANCH  24  25
ATOM     25  C8  <0> d          -1.513  -0.386  -5.443  0.00  0.00    -0.037 A 
ATOM     26  C12 <0> d          -2.194   0.806  -5.249  0.00  0.00     0.028 A 
ATOM     27  C11 <0> d          -3.502   0.913  -5.684  0.00  0.00     0.116 A 
ATOM     28  N3  <0> d          -4.104  -0.105  -6.266  0.00  0.00    -0.273 NA
ATOM     29  C10 <0> d          -3.490  -1.255  -6.462  0.00  0.00     0.116 A 
ATOM     30  C9  <0> d          -2.180  -1.434  -6.060  0.00  0.00     0.028 A 
ENDBRANCH  24  25
ENDBRANCH   7  24
TORSDOF 5
