REMARK  10 active torsions:
REMARK  status: ('A' for Active; 'I' for Inactive)
REMARK    1  A    between atoms: C3_3  and  C8_11 
REMARK    2  A    between atoms: N1_5  and  C5_7 
REMARK    3  A    between atoms: C5_7  and  C6_8 
REMARK    4  A    between atoms: C6_8  and  O1_9 
REMARK    5  A    between atoms: C8_11  and  N3_12 
REMARK    6  A    between atoms: N3_12  and  C9_13 
REMARK    7  A    between atoms: C9_13  and  C10_14 
REMARK    8  A    between atoms: C13_17  and  N4_20 
REMARK    9  A    between atoms: C18_23  and  C21_26 
REMARK   10  A    between atoms: C21_26  and  O2_27 
ROOT
ATOM      1  C9  <0> d           1.360   0.294  -4.432  0.00  0.00     0.271 C 
ENDROOT
BRANCH   1   2
ATOM      2  N3  <0> d           1.374  -0.187  -3.044  0.00  0.00    -0.067 N 
ATOM      3  H14 <0> d           1.847   0.486  -2.459  0.00  0.00     0.277 HD
ATOM      4  H33 <0> d           1.859  -1.071  -2.999  0.00  0.00     0.277 HD
BRANCH   2   5
ATOM      5  C8  <0> d          -0.006  -0.361  -2.572  0.00  0.00     0.275 C 
BRANCH   5   6
ATOM      6  C3  <0> d           0.008  -0.854  -1.148  0.00  0.00     0.017 A 
ATOM      7  C2  <0> d           0.008  -0.055   0.000  0.00  0.00     0.061 A 
ATOM      8  C1  <0> d          -0.006   1.452   0.028  0.00  0.00     0.073 C 
ATOM      9  N2  <0> d           0.027  -0.841   1.046  0.00  0.00    -0.177 NA
ATOM     10  N1  <0> d           0.032  -2.168   0.596  0.00  0.00    -0.272 N 
ATOM     11  C4  <0> d           0.023  -2.149  -0.754  0.00  0.00     0.036 A 
ATOM     12  C7  <0> d           0.029  -3.353  -1.660  0.00  0.00     0.070 C 
BRANCH  10  13
ATOM     13  C5  <0> d           0.048  -3.365   1.440  0.00  0.00     0.177 C 
BRANCH  13  14
ATOM     14  C6  <0> d           1.497  -3.767   1.726  0.00  0.00     0.185 C 
BRANCH  14  15
ATOM     15  O1  <0> d           1.513  -4.935   2.550  0.00  0.00    -0.399 OA
ATOM     16  H8  <0> d           2.401  -5.247   2.771  0.00  0.00     0.209 HD
ENDBRANCH  14  15
ENDBRANCH  13  14
ENDBRANCH  10  13
ENDBRANCH   5   6
ENDBRANCH   2   5
ENDBRANCH   1   2
BRANCH   1  17
ATOM     17  C10 <0> d           2.776   0.472  -4.916  0.00  0.00    -0.033 A 
ATOM     18  C15 <0> d           3.433  -0.579  -5.530  0.00  0.00     0.011 A 
ATOM     19  C14 <0> d           4.729  -0.417  -5.980  0.00  0.00     0.030 A 
ATOM     20  C13 <0> d           5.376   0.799  -5.805  0.00  0.00     0.030 A 
ATOM     21  C12 <0> d           4.716   1.851  -5.182  0.00  0.00     0.030 A 
ATOM     22  C11 <0> d           3.418   1.684  -4.740  0.00  0.00     0.011 A 
BRANCH  20  23
ATOM     23  N4  <0> d           6.688   0.964  -6.254  0.00  0.00    -0.381 N 
ATOM     24  C20 <0> d           7.341   2.279  -6.191  0.00  0.00     0.123 C 
ATOM     25  C19 <0> d           7.878   2.636  -7.575  0.00  0.00     0.026 C 
ATOM     26  C18 <0> d           8.783   1.508  -8.075  0.00  0.00     0.012 C 
ATOM     27  C17 <0> d           7.974   0.213  -8.187  0.00  0.00     0.026 C 
ATOM     28  C16 <0> d           7.440  -0.172  -6.804  0.00  0.00     0.123 C 
BRANCH  26  29
ATOM     29  C21 <0> d           9.347   1.877  -9.449  0.00  0.00     0.168 C 
BRANCH  29  30
ATOM     30  O2  <0> d          10.197   3.018  -9.323  0.00  0.00    -0.400 OA
ATOM     31  H32 <0> d          10.590   3.309 -10.158  0.00  0.00     0.209 HD
ENDBRANCH  29  30
ENDBRANCH  26  29
ENDBRANCH  20  23
ENDBRANCH   1  17
TORSDOF 10
