REMARK  2 active torsions:
REMARK  status: ('A' for Active; 'I' for Inactive)
REMARK    1  A    between atoms: C9_9  and  C10_11 
REMARK       I    between atoms: C10_11  and  N2_13 
REMARK    2  A    between atoms: N2_13  and  C11_14 
ROOT
ATOM      1  C1  <0> d           2.401   0.039  -0.027  0.00  0.00     0.001 A 
ATOM      2  C2  <0> d           2.383   1.421  -0.017  0.00  0.00     0.002 A 
ATOM      3  C3  <0> d           1.178   2.094   0.002  0.00  0.00     0.029 A 
ATOM      4  C4  <0> d          -0.017   1.382   0.010  0.00  0.00     0.035 A 
ATOM      5  C5  <0> d           0.002  -0.004   0.002  0.00  0.00    -0.032 A 
ATOM      6  C6  <0> d           1.216  -0.671  -0.018  0.00  0.00     0.009 A 
ATOM      7  C7  <0> d          -1.271  -0.808   0.021  0.00  0.00     0.043 C 
ATOM      8  C8  <0> d          -2.447   0.040  -0.462  0.00  0.00     0.039 C 
ATOM      9  C9  <0> d          -2.467   1.355   0.328  0.00  0.00     0.174 C 
ATOM     10  N1  <0> d          -1.228   2.083   0.019  0.00  0.00    -0.376 N 
ATOM     11  H11 <0> d          -1.262   3.160  -0.200  0.00  0.00     0.160 HD
ENDROOT
BRANCH   9  12
ATOM     12  C10 <0> d          -3.659   2.181  -0.084  0.00  0.00     0.240 C 
ATOM     13  O1  <0> d          -3.521   3.094  -0.869  0.00  0.00    -0.271 OA
ATOM     14  N2  <0> d          -4.877   1.903   0.421  0.00  0.00    -0.354 N 
ATOM     15  H12 <0> d          -5.002   1.075   1.134  0.00  0.00     0.162 HD
BRANCH  14  16
ATOM     16  C11 <0> d          -6.036   2.705   0.021  0.00  0.00     0.099 C 
ATOM     17  C14 <0> d          -6.610   2.152  -1.306  0.00  0.00     0.165 C 
ATOM     18  S1  <0> d          -8.408   2.508  -1.147  0.00  0.00     0.146 S 
ATOM     19  C13 <0> d          -8.428   3.228   0.549  0.00  0.00     0.142 C 
ATOM     20  O2  <0> d          -9.123   1.280  -1.137  0.00  0.00    -0.228 OA
ATOM     21  O3  <0> d          -8.764   3.517  -2.082  0.00  0.00    -0.228 OA
ATOM     22  C12 <0> d          -7.106   2.642   1.123  0.00  0.00     0.041 C 
ENDBRANCH  14  16
ENDBRANCH   9  12
TORSDOF 2
