REMARK  3 active torsions:
REMARK  status: ('A' for Active; 'I' for Inactive)
REMARK    1  A    between atoms: C6_6  and  C11_13 
REMARK    2  A    between atoms: C11_13  and  N1_14 
REMARK    3  A    between atoms: C14_17  and  O3_20 
ROOT
ATOM      1  C1  <0> d          -0.018   1.503   0.010  0.00  0.00     0.048 C 
ATOM      2  C2  <0> d           0.002  -0.004   0.002  0.00  0.00    -0.059 A 
ATOM      3  C3  <0> d           0.006  -0.684  -1.207  0.00  0.00     0.007 A 
ATOM      4  C4  <0> d           0.025  -2.050  -1.235  0.00  0.00     0.015 A 
ATOM      5  C5  <0> d           0.040  -2.768  -0.035  0.00  0.00     0.006 A 
ATOM      6  C6  <0> d           0.061  -4.234  -0.030  0.00  0.00    -0.014 A 
ATOM      7  C7  <0> d           0.077  -4.870   1.169  0.00  0.00     0.092 A 
ATOM      8  C8  <0> d           0.072  -4.118   2.363  0.00  0.00     0.288 A 
ATOM      9  O1  <0> d           0.086  -4.701   3.432  0.00  0.00    -0.260 OA
ATOM     10  O2  <0> d           0.053  -2.776   2.350  0.00  0.00    -0.275 OA
ATOM     11  C9  <0> d           0.037  -2.082   1.193  0.00  0.00     0.090 A 
ATOM     12  C10 <0> d           0.023  -0.693   1.196  0.00  0.00     0.045 A 
ENDROOT
BRANCH   6  13
ATOM     13  C11 <0> d           0.066  -5.012  -1.320  0.00  0.00     0.274 C 
BRANCH  13  14
ATOM     14  N1  <0> d          -1.315  -5.181  -1.794  0.00  0.00    -0.067 N 
ATOM     15  C16 <0> d          -1.319  -6.040  -2.985  0.00  0.00     0.237 C 
ATOM     16  C15 <0> d          -2.761  -6.286  -3.435  0.00  0.00     0.059 C 
ATOM     17  C14 <0> d          -3.422  -4.945  -3.768  0.00  0.00     0.121 C 
ATOM     18  C13 <0> d          -3.345  -4.031  -2.542  0.00  0.00     0.059 C 
ATOM     19  C12 <0> d          -1.881  -3.868  -2.125  0.00  0.00     0.237 C 
ATOM     20  H20 <0> d          -1.868  -5.611  -1.069  0.00  0.00     0.280 HD
BRANCH  17  21
ATOM     21  O3  <0> d          -4.790  -5.160  -4.118  0.00  0.00    -0.395 OA
ATOM     22  H19 <0> d          -4.914  -5.732  -4.888  0.00  0.00     0.210 HD
ENDBRANCH  17  21
ENDBRANCH  13  14
ENDBRANCH   6  13
TORSDOF 3
