REMARK  4 active torsions:
REMARK  status: ('A' for Active; 'I' for Inactive)
REMARK    1  A    between atoms: C2_2  and  C4_4 
REMARK    2  A    between atoms: C5_7  and  N3_9 
REMARK       I    between atoms: N3_9  and  C6_10 
REMARK    3  A    between atoms: C6_10  and  C7_12 
REMARK    4  A    between atoms: C7_12  and  N4_13 
ROOT
ATOM      1  N4  <0> d          -8.296  -2.682   0.682  0.00  0.00    -0.279 N 
ATOM      2  C8  <0> d          -8.393  -3.531   1.722  0.00  0.00     0.231 C 
ATOM      3  O2  <0> d          -7.610  -4.450   1.835  0.00  0.00    -0.272 OA
ATOM      4  C9  <0> d          -9.489  -3.331   2.754  0.00  0.00     0.087 C 
ATOM      5  C10 <0> d          -9.065  -2.129   3.633  0.00  0.00     0.016 C 
ATOM      6  C11 <0> d          -9.521  -0.868   2.876  0.00  0.00     0.020 C 
ATOM      7  C12 <0> d         -10.197  -1.371   1.577  0.00  0.00     0.045 C 
ATOM      8  C13 <0> d          -9.110  -1.619   0.546  0.00  0.00     0.236 C 
ATOM      9  O3  <0> d          -8.960  -0.850  -0.379  0.00  0.00    -0.272 OA
ATOM     10  C14 <0> d         -10.723  -2.804   1.969  0.00  0.00    -0.020 C 
ATOM     11  C15 <0> d         -11.007  -3.670   0.740  0.00  0.00     0.017 C 
ATOM     12  C16 <0> d         -11.954  -2.711   2.873  0.00  0.00     0.017 C 
ATOM     13  C17 <0> d         -11.290  -0.430   1.066  0.00  0.00     0.026 C 
ENDROOT
BRANCH   1  14
ATOM     14  C7  <0> d          -7.267  -2.920  -0.332  0.00  0.00     0.238 C 
BRANCH  14  15
ATOM     15  C6  <0> d          -5.999  -2.206   0.061  0.00  0.00     0.242 C 
ATOM     16  N3  <0> d          -4.909  -2.283  -0.728  0.00  0.00    -0.303 N 
ATOM     17  H9  <0> d          -4.941  -2.798  -1.549  0.00  0.00     0.171 HD
ATOM     18  O1  <0> d          -5.960  -1.562   1.089  0.00  0.00    -0.271 OA
BRANCH  16  19
ATOM     19  C5  <0> d          -3.740  -1.625  -0.364  0.00  0.00     0.196 A 
ATOM     20  N2  <0> d          -3.498  -0.884   0.699  0.00  0.00    -0.123 NA
ATOM     21  N1  <0> d          -2.373  -0.344   0.896  0.00  0.00    -0.144 NA
ATOM     22  C4  <0> d          -1.412  -0.526   0.013  0.00  0.00     0.104 A 
ATOM     23  S1  <0> d          -2.261  -1.559  -1.172  0.00  0.00    -0.033 SA
BRANCH  22  24
ATOM     24  C2  <0> d           0.002  -0.004   0.002  0.00  0.00     0.039 C 
ATOM     25  C1  <0> d          -0.019   1.526   0.010  0.00  0.00     0.016 C 
ATOM     26  C3  <0> d           0.742  -0.511   1.242  0.00  0.00     0.016 C 
ENDBRANCH  22  24
ENDBRANCH  16  19
ENDBRANCH  14  15
ENDBRANCH   1  14
TORSDOF 4
