REMARK  4 active torsions:
REMARK  status: ('A' for Active; 'I' for Inactive)
REMARK    1  A    between atoms: C2_2  and  C3_3 
REMARK    2  A    between atoms: C2_2  and  N1_10 
REMARK    3  A    between atoms: N1_10  and  C9_11 
REMARK    4  A    between atoms: C9_11  and  C11_13 
ROOT
ATOM      1  N1  <0> d          -1.460  -0.532   0.092  0.00  0.00    -0.063 N 
ATOM      2  H10 <0> d          -0.673   0.082  -0.057  0.00  0.00     0.278 HD
ATOM      3  H27 <0> d          -2.148  -0.377  -0.629  0.00  0.00     0.278 HD
ENDROOT
BRANCH   1   4
ATOM      4  C2  <0> d          -1.007  -1.929   0.045  0.00  0.00     0.216 C 
ATOM      5  C1  <0> d           0.142  -2.126   1.036  0.00  0.00     0.045 C 
BRANCH   4   6
ATOM      6  C3  <0> d          -0.532  -2.257  -1.347  0.00  0.00    -0.011 A 
ATOM      7  C8  <0> d          -0.548  -3.566  -1.792  0.00  0.00     0.019 A 
ATOM      8  C7  <0> d          -0.117  -3.866  -3.072  0.00  0.00     0.019 A 
ATOM      9 Br1  <0> d          -1.167  -4.944  -0.655  0.00  0.00    -0.051 Br
ATOM     10  C6  <0> d           0.340  -2.859  -3.901  0.00  0.00     0.001 A 
ATOM     11  C5  <0> d           0.361  -1.551  -3.453  0.00  0.00     0.001 A 
ATOM     12  C4  <0> d          -0.075  -1.250  -2.176  0.00  0.00     0.011 A 
ENDBRANCH   4   6
ENDBRANCH   1   4
BRANCH   1  13
ATOM     13  C9  <0> d          -2.056  -0.254   1.405  0.00  0.00     0.186 C 
ATOM     14  C10 <0> d          -2.393   1.235   1.507  0.00  0.00     0.040 C 
BRANCH  13  15
ATOM     15  C11 <0> d          -3.333  -1.079   1.571  0.00  0.00     0.019 C 
ATOM     16  C15 <0> d          -3.956  -0.790   2.940  0.00  0.00     0.034 C 
ATOM     17  C14 <0> d          -5.274  -1.557   3.067  0.00  0.00     0.234 C 
ATOM     18  N2  <0> d          -6.197  -1.130   2.008  0.00  0.00    -0.075 N 
ATOM     19  C13 <0> d          -5.638  -1.469   0.694  0.00  0.00     0.234 C 
ATOM     20  C16 <0> d          -7.487  -1.811   2.181  0.00  0.00     0.269 C 
ATOM     21  H26 <0> d          -6.335  -0.132   2.066  0.00  0.00     0.279 HD
ATOM     22  C12 <0> d          -4.334  -0.699   0.476  0.00  0.00     0.034 C 
ENDBRANCH  13  15
ENDBRANCH   1  13
TORSDOF 4
