REMARK  4 active torsions:
REMARK  status: ('A' for Active; 'I' for Inactive)
REMARK    1  A    between atoms: C2_2  and  C4_4 
REMARK    2  A    between atoms: C4_4  and  C5_5 
REMARK       I    between atoms: C5_5  and  N1_7 
REMARK    3  A    between atoms: N1_7  and  C6_8 
REMARK    4  A    between atoms: C10_13  and  N3_14 
ROOT
ATOM      1  C6  <0> d          -0.845  -0.651   4.652  0.00  0.00     0.083 A 
ATOM      2  C7  <0> d          -0.813   0.674   5.073  0.00  0.00     0.035 A 
ATOM      3  C8  <0> d          -1.446   1.005   6.261  0.00  0.00     0.022 A 
ATOM      4  C9  <0> d          -2.085   0.018   6.986  0.00  0.00     0.119 A 
ATOM      5  N2  <0> d          -2.101  -1.232   6.564  0.00  0.00    -0.239 NA
ATOM      6  C10 <0> d          -1.514  -1.592   5.435  0.00  0.00     0.178 A 
ENDROOT
BRANCH   1   7
ATOM      7  N1  <0> d          -0.220  -1.034   3.460  0.00  0.00    -0.323 N 
ATOM      8  C5  <0> d          -0.025  -0.128   2.480  0.00  0.00     0.237 C 
ATOM      9  O1  <0> d          -0.479   0.991   2.590  0.00  0.00    -0.272 OA
ATOM     10  H9  <0> d           0.073  -1.950   3.338  0.00  0.00     0.169 HD
BRANCH   8  11
ATOM     11  C4  <0> d           0.757  -0.507   1.249  0.00  0.00     0.153 C 
ATOM     12 Br1  <0> d           2.545   0.306   1.333  0.00  0.00    -0.081 Br
BRANCH  11  13
ATOM     13  C2  <0> d           0.025  -0.001   0.004  0.00  0.00     0.001 C 
ATOM     14  C1  <0> d          -0.001   1.529   0.014  0.00  0.00     0.011 C 
ATOM     15  C3  <0> d           0.751  -0.491  -1.249  0.00  0.00     0.011 C 
ENDBRANCH  11  13
ENDBRANCH   8  11
ENDBRANCH   1   7
BRANCH   6  16
ATOM     16  N3  <0> d          -1.561  -2.929   5.024  0.00  0.00    -0.206 N 
ATOM     17  N5  <0> d          -1.448  -3.410   3.710  0.00  0.00    -0.158 NA
ATOM     18  C12 <0> d          -1.542  -4.713   3.775  0.00  0.00     0.257 A 
ATOM     19  N4  <0> d          -1.716  -5.072   5.046  0.00  0.00    -0.233 NA
ATOM     20  C11 <0> d          -1.730  -4.010   5.810  0.00  0.00     0.238 A 
ENDBRANCH   6  16
TORSDOF 4
