REMARK  6 active torsions:
REMARK  status: ('A' for Active; 'I' for Inactive)
REMARK    1  A    between atoms: C2_2  and  N1_3 
REMARK    2  A    between atoms: N1_3  and  C3_4 
REMARK       I    between atoms: N1_3  and  C5_6 
REMARK    3  A    between atoms: C5_6  and  C6_8 
REMARK    4  A    between atoms: C11_13  and  N2_14 
REMARK       I    between atoms: N2_14  and  C12_15 
REMARK    5  A    between atoms: C12_15  and  C13_17 
REMARK    6  A    between atoms: N3_20  and  C18_23 
ROOT
ATOM      1  N2  <0> d          -1.846  -1.336  -4.697  0.00  0.00    -0.322 N 
ATOM      2  C12 <0> d          -2.684  -1.731  -5.676  0.00  0.00     0.258 C 
ATOM      3  O2  <0> d          -3.841  -1.357  -5.674  0.00  0.00    -0.267 OA
ATOM      4  H15 <0> d          -0.908  -1.578  -4.734  0.00  0.00     0.169 HD
ENDROOT
BRANCH   1   5
ATOM      5  C11 <0> d          -2.328  -0.579  -3.632  0.00  0.00     0.050 A 
ATOM      6  C6  <0> d          -1.793  -0.750  -2.346  0.00  0.00     0.059 A 
ATOM      7  C7  <0> d          -2.281   0.019  -1.288  0.00  0.00     0.019 A 
ATOM      8  C8  <0> d          -3.286   0.935  -1.510  0.00  0.00     0.001 A 
ATOM      9  C9  <0> d          -3.817   1.098  -2.780  0.00  0.00     0.002 A 
ATOM     10  C10 <0> d          -3.345   0.345  -3.836  0.00  0.00     0.030 A 
BRANCH   6  11
ATOM     11  C5  <0> d          -0.717  -1.732  -2.115  0.00  0.00     0.256 C 
ATOM     12  N1  <0> d           0.463  -1.331  -1.603  0.00  0.00    -0.349 N 
ATOM     13  O1  <0> d          -0.894  -2.904  -2.388  0.00  0.00    -0.267 OA
BRANCH  12  14
ATOM     14  C2  <0> d           0.643   0.061  -1.181  0.00  0.00     0.121 C 
ATOM     15  C1  <0> d           1.268   0.863  -2.325  0.00  0.00     0.026 C 
ENDBRANCH  12  14
BRANCH  12  16
ATOM     16  C3  <0> d           1.566  -2.286  -1.466  0.00  0.00     0.121 C 
ATOM     17  C4  <0> d           1.490  -2.960  -0.095  0.00  0.00     0.026 C 
ENDBRANCH  12  16
ENDBRANCH   6  11
ENDBRANCH   1   5
BRANCH   2  18
ATOM     18  C13 <0> d          -2.198  -2.616  -6.747  0.00  0.00     0.056 A 
ATOM     19  C16 <0> d          -2.919  -3.102  -7.803  0.00  0.00     0.024 A 
ATOM     20  N3  <0> d          -2.108  -3.870  -8.554  0.00  0.00    -0.350 N 
ATOM     21  C17 <0> d          -4.374  -2.821  -8.080  0.00  0.00     0.069 C 
ATOM     22  C15 <0> d          -0.858  -3.912  -8.010  0.00  0.00     0.009 A 
ATOM     23  C14 <0> d          -0.844  -3.161  -6.894  0.00  0.00     0.043 A 
ATOM     24  C21 <0> d           0.316  -4.675  -8.568  0.00  0.00     0.068 C 
BRANCH  20  25
ATOM     25  C18 <0> d          -2.512  -4.567  -9.778  0.00  0.00     0.081 C 
ATOM     26  C19 <0> d          -1.779  -3.960 -10.976  0.00  0.00     0.032 C 
ATOM     27  C20 <0> d          -2.157  -6.051  -9.661  0.00  0.00     0.032 C 
ENDBRANCH  20  25
ENDBRANCH   2  18
TORSDOF 6
