REMARK  2 active torsions:
REMARK  status: ('A' for Active; 'I' for Inactive)
REMARK    1  A    between atoms: S1_2  and  N1_5 
REMARK    2  A    between atoms: N1_5  and  C2_6 
ROOT
ATOM      1  C2  <0> d           2.241   0.024  -1.415  0.00  0.00     0.043 A 
ATOM      2  C3  <0> d           2.690   1.208  -0.836  0.00  0.00     0.033 A 
ATOM      3  C4  <0> d           4.027   1.546  -0.875  0.00  0.00     0.040 A 
ATOM      4  C5  <0> d           4.942   0.706  -1.495  0.00  0.00     0.084 A 
ATOM      5  C6  <0> d           4.493  -0.492  -2.074  0.00  0.00     0.045 A 
ATOM      6  C7  <0> d           3.139  -0.831  -2.030  0.00  0.00     0.048 A 
ATOM      7  C8  <0> d           5.469  -1.390  -2.716  0.00  0.00     0.165 C 
ATOM      8  O3  <0> d           5.179  -2.524  -3.034  0.00  0.00    -0.292 OA
ATOM      9  C9  <0> d           6.858  -0.824  -2.958  0.00  0.00     0.124 C 
ATOM     10  C10 <0> d           7.220   0.026  -1.738  0.00  0.00     0.100 C 
ATOM     11  O4  <0> d           6.253   1.048  -1.536  0.00  0.00    -0.337 OA
ATOM     12  C11 <0> d           7.314  -0.872  -0.489  0.00  0.00     0.068 C 
ATOM     13  C12 <0> d           8.834  -1.156  -0.382  0.00  0.00     0.235 C 
ATOM     14  N2  <0> d           9.451   0.130  -0.800  0.00  0.00    -0.072 N 
ATOM     15  C13 <0> d           8.618   0.634  -1.915  0.00  0.00     0.271 C 
ATOM     16  H14 <0> d           9.441   0.786  -0.034  0.00  0.00     0.277 HD
ATOM     17  H17 <0> d          10.397  -0.025  -1.115  0.00  0.00     0.277 HD
ENDROOT
BRANCH   1  18
ATOM     18  N1  <0> d           0.881  -0.304  -1.369  0.00  0.00    -0.285 N 
ATOM     19  H4  <0> d           0.334  -0.216  -2.165  0.00  0.00     0.178 HD
BRANCH  18  20
ATOM     20  S1  <0> d           0.207  -0.844   0.044  0.00  0.00     0.227 S 
ATOM     21  C1  <0> d           1.059  -2.405   0.401  0.00  0.00     0.186 C 
ATOM     22  O1  <0> d          -1.155  -1.092  -0.276  0.00  0.00    -0.206 OA
ATOM     23  O2  <0> d           0.556   0.137   1.011  0.00  0.00    -0.206 OA
ENDBRANCH  18  20
ENDBRANCH   1  18
TORSDOF 2
