REMARK  5 active torsions:
REMARK  status: ('A' for Active; 'I' for Inactive)
REMARK    1  A    between atoms: C6_6  and  N1_8 
REMARK    2  A    between atoms: C10_12  and  C11_13 
REMARK    3  A    between atoms: N2_17  and  C15_18 
REMARK    4  A    between atoms: C18_21  and  S1_24 
REMARK    5  A    between atoms: S1_24  and  N3_27 
ROOT
ATOM      1  C11 <0> d          -0.005  -5.786   5.943  0.00  0.00     0.040 A 
ATOM      2  C12 <0> d           0.199  -6.933   6.700  0.00  0.00     0.031 A 
ATOM      3  C13 <0> d           0.493  -6.519   7.999  0.00  0.00     0.020 A 
ATOM      4  C14 <0> d           0.468  -5.161   8.023  0.00  0.00     0.097 A 
ATOM      5  N2  <0> d           0.173  -4.702   6.781  0.00  0.00    -0.322 N 
ENDROOT
BRANCH   1   6
ATOM      6  C10 <0> d          -0.326  -5.738   4.575  0.00  0.00     0.053 C 
ATOM      7  C9  <0> d          -1.445  -5.035   4.150  0.00  0.00     0.105 A 
ATOM      8  C8  <0> d          -1.859  -4.767   2.763  0.00  0.00     0.282 A 
ATOM      9  C21 <0> d          -2.473  -4.396   4.989  0.00  0.00     0.276 A 
ATOM     10  N1  <0> d          -2.999  -4.053   2.826  0.00  0.00    -0.217 N 
ATOM     11  O1  <0> d          -1.281  -5.123   1.753  0.00  0.00    -0.265 OA
ATOM     12  N4  <0> d          -3.362  -3.827   4.153  0.00  0.00    -0.256 N 
ATOM     13  H18 <0> d          -4.147  -3.331   4.435  0.00  0.00     0.191 HD
ATOM     14  O4  <0> d          -2.509  -4.380   6.205  0.00  0.00    -0.266 OA
BRANCH  10  15
ATOM     15  C6  <0> d          -3.716  -3.598   1.715  0.00  0.00     0.060 A 
ATOM     16  C5  <0> d          -3.265  -3.880   0.432  0.00  0.00     0.031 A 
ATOM     17  C4  <0> d          -3.976  -3.428  -0.663  0.00  0.00     0.003 A 
ATOM     18  C3  <0> d          -5.135  -2.697  -0.483  0.00  0.00     0.007 A 
ATOM     19  C2  <0> d          -5.587  -2.414   0.793  0.00  0.00    -0.060 A 
ATOM     20  C1  <0> d          -6.851  -1.616   0.984  0.00  0.00     0.048 C 
ATOM     21  C7  <0> d          -4.878  -2.857   1.892  0.00  0.00     0.038 A 
ENDBRANCH  10  15
ENDBRANCH   1   6
BRANCH   5  22
ATOM     22  C15 <0> d           0.064  -3.356   6.411  0.00  0.00     0.039 A 
ATOM     23  C20 <0> d          -0.804  -2.514   7.095  0.00  0.00     0.031 A 
ATOM     24  C19 <0> d          -0.905  -1.186   6.731  0.00  0.00     0.027 A 
ATOM     25  C18 <0> d          -0.152  -0.696   5.680  0.00  0.00     0.079 A 
ATOM     26  C17 <0> d           0.709  -1.532   4.994  0.00  0.00     0.027 A 
ATOM     27  C16 <0> d           0.819  -2.861   5.356  0.00  0.00     0.031 A 
BRANCH  25  28
ATOM     28  S1  <0> d          -0.289   0.998   5.215  0.00  0.00     0.256 S 
ATOM     29  O2  <0> d          -0.755   1.697   6.361  0.00  0.00    -0.201 OA
ATOM     30  O3  <0> d           0.923   1.337   4.556  0.00  0.00    -0.201 OA
BRANCH  28  31
ATOM     31  N3  <0> d          -1.490   1.099   4.079  0.00  0.00    -0.324 N 
ATOM     32  H16 <0> d          -2.020   1.907   4.004  0.00  0.00     0.169 HD
ATOM     33  H17 <0> d          -1.663   0.349   3.489  0.00  0.00     0.169 HD
ENDBRANCH  28  31
ENDBRANCH  25  28
ENDBRANCH   5  22
TORSDOF 5
