REMARK  5 active torsions:
REMARK  status: ('A' for Active; 'I' for Inactive)
REMARK    1  A    between atoms: C5_6  and  S1_10 
REMARK    2  A    between atoms: S1_10  and  C8_11 
REMARK    3  A    between atoms: C8_11  and  C9_12 
REMARK       I    between atoms: C9_12  and  N3_14 
REMARK    4  A    between atoms: N3_14  and  C10_15 
REMARK    5  A    between atoms: C11_16  and  C18_24 
REMARK       I    between atoms: C18_24  and  N4_26 
ROOT
ATOM      1  C1  <0> d          -4.574   7.760   0.065  0.00  0.00     0.050 C 
ATOM      2  C2  <0> d          -4.255   6.287   0.056  0.00  0.00    -0.030 A 
ATOM      3  C3  <0> d          -5.270   5.344   0.055  0.00  0.00    -0.026 A 
ATOM      4  C4  <0> d          -4.953   3.997   0.047  0.00  0.00     0.042 A 
ATOM      5  N1  <0> d          -3.690   3.601   0.034  0.00  0.00    -0.244 NA
ATOM      6  C5  <0> d          -2.683   4.458   0.039  0.00  0.00     0.115 A 
ATOM      7  C6  <0> d          -2.929   5.843   0.048  0.00  0.00     0.086 A 
ATOM      8  C7  <0> d          -1.845   6.779   0.049  0.00  0.00     0.103 C 
ATOM      9  N2  <0> d          -0.985   7.521   0.049  0.00  0.00    -0.191 NA
ATOM     10  C19 <0> d          -6.227   3.176   0.050  0.00  0.00     0.060 C 
ATOM     11  C20 <0> d          -7.340   4.154  -0.383  0.00  0.00     0.011 C 
ATOM     12  C21 <0> d          -6.772   5.519   0.062  0.00  0.00     0.041 C 
ENDROOT
BRANCH   6  13
ATOM     13  S1  <0> d          -1.025   3.863   0.028  0.00  0.00    -0.100 SA
BRANCH  13  14
ATOM     14  C8  <0> d          -1.331   2.079   0.020  0.00  0.00     0.184 C 
BRANCH  14  15
ATOM     15  C9  <0> d          -0.016   1.344   0.009  0.00  0.00     0.232 C 
ATOM     16  O1  <0> d           1.026   1.964   0.003  0.00  0.00    -0.272 OA
ATOM     17  N3  <0> d           0.002  -0.004   0.002  0.00  0.00    -0.320 N 
ATOM     18  H6  <0> d          -0.831  -0.500   0.007  0.00  0.00     0.169 HD
BRANCH  17  19
ATOM     19  C10 <0> d           1.212  -0.681  -0.013  0.00  0.00     0.093 A 
ATOM     20  S2  <0> d           2.814  -0.022  -0.024  0.00  0.00    -0.075 SA
ATOM     21  C13 <0> d           3.743  -1.529  -0.041  0.00  0.00    -0.008 A 
ATOM     22  C12 <0> d           2.813  -2.508  -0.037  0.00  0.00    -0.026 A 
ATOM     23  C14 <0> d           5.231  -1.697  -0.054  0.00  0.00     0.047 C 
ATOM     24  C11 <0> d           1.434  -2.051  -0.017  0.00  0.00     0.072 A 
ATOM     25  C17 <0> d           3.219  -3.976  -0.049  0.00  0.00     0.041 C 
ATOM     26  C16 <0> d           4.671  -4.082  -0.519  0.00  0.00     0.005 C 
ATOM     27  C15 <0> d           5.557  -3.152   0.314  0.00  0.00     0.005 C 
BRANCH  24  28
ATOM     28  C18 <0> d           0.318  -3.002  -0.005  0.00  0.00     0.252 C 
ATOM     29  O2  <0> d          -0.157  -3.396  -1.054  0.00  0.00    -0.268 OA
ATOM     30  N4  <0> d          -0.182  -3.439   1.168  0.00  0.00    -0.366 N 
ATOM     31  H15 <0> d           0.197  -3.125   2.004  0.00  0.00     0.159 HD
ATOM     32  H16 <0> d          -0.920  -4.069   1.176  0.00  0.00     0.159 HD
ENDBRANCH  24  28
ENDBRANCH  17  19
ENDBRANCH  14  15
ENDBRANCH  13  14
ENDBRANCH   6  13
TORSDOF 5
