REMARK  5 active torsions:
REMARK  status: ('A' for Active; 'I' for Inactive)
REMARK    1  A    between atoms: C8_8  and  C11_13 
REMARK    2  A    between atoms: C13_15  and  C18_25 
REMARK       I    between atoms: N3_17  and  C14_18 
REMARK    3  A    between atoms: C14_18  and  C15_20 
REMARK    4  A    between atoms: C15_20  and  C16_21 
REMARK    5  A    between atoms: C16_21  and  C17_22 
ROOT
ATOM      1  C11 <0> d          -1.175  -2.598   4.425  0.00  0.00     0.136 A 
ATOM      2  C12 <0> d          -1.203  -1.913   5.806  0.00  0.00     0.090 A 
ATOM      3  C13 <0> d          -2.487  -1.115   5.790  0.00  0.00     0.067 A 
ATOM      4  N2  <0> d          -3.085  -1.285   4.662  0.00  0.00    -0.173 NA
ATOM      5  N3  <0> d          -2.413  -2.135   3.781  0.00  0.00    -0.232 N 
ATOM      6  C14 <0> d          -2.829  -2.474   2.544  0.00  0.00     0.240 C 
ATOM      7  O2  <0> d          -2.209  -3.294   1.900  0.00  0.00    -0.272 OA
ENDROOT
BRANCH   1   8
ATOM      8  C8  <0> d           0.050  -2.147   3.626  0.00  0.00     0.127 A 
ATOM      9  C7  <0> d           0.036  -0.632   3.569  0.00  0.00     0.003 A 
ATOM     10  C6  <0> d           1.123   0.021   4.067  0.00  0.00    -0.012 A 
ATOM     11  C5  <0> d           1.193   1.483   4.052  0.00  0.00     0.013 A 
ATOM     12  C10 <0> d           2.257  -0.733   4.629  0.00  0.00     0.050 A 
ATOM     13  C4  <0> d           2.296   2.092   4.560  0.00  0.00     0.002 A 
ATOM     14  C3  <0> d           3.353   1.353   5.091  0.00  0.00     0.009 A 
ATOM     15  C2  <0> d           3.350  -0.005   5.134  0.00  0.00    -0.034 A 
ATOM     16  C1  <0> d           4.529  -0.737   5.722  0.00  0.00     0.050 C 
ATOM     17  N1  <0> d           2.262  -2.065   4.682  0.00  0.00    -0.325 N 
ATOM     18  C9  <0> d           1.267  -2.809   4.231  0.00  0.00     0.232 A 
ATOM     19  H21 <0> d           3.034  -2.509   5.066  0.00  0.00     0.169 HD
ATOM     20  O1  <0> d           1.331  -4.022   4.301  0.00  0.00    -0.272 OA
ENDBRANCH   1   8
BRANCH   6  21
ATOM     21  C15 <0> d          -4.062  -1.835   1.961  0.00  0.00     0.115 C 
BRANCH  21  22
ATOM     22  C16 <0> d          -4.311  -2.391   0.558  0.00  0.00     0.122 C 
BRANCH  22  23
ATOM     23  C17 <0> d          -5.545  -1.752  -0.025  0.00  0.00     0.172 C 
ATOM     24  O3  <0> d          -6.168  -0.927   0.622  0.00  0.00    -0.648 OA
ATOM     25  O4  <0> d          -5.920  -2.059  -1.143  0.00  0.00    -0.648 OA
ENDBRANCH  22  23
ENDBRANCH  21  22
ENDBRANCH   6  21
BRANCH   3  26
ATOM     26  C18 <0> d          -2.979  -0.273   6.896  0.00  0.00    -0.010 A 
ATOM     27  C23 <0> d          -4.184   0.421   6.767  0.00  0.00     0.013 A 
ATOM     28  C22 <0> d          -4.641   1.202   7.808  0.00  0.00     0.001 A 
ATOM     29  C21 <0> d          -3.903   1.309   8.974  0.00  0.00     0.000 A 
ATOM     30  C20 <0> d          -2.705   0.629   9.106  0.00  0.00     0.001 A 
ATOM     31  C19 <0> d          -2.239  -0.161   8.076  0.00  0.00     0.013 A 
ENDBRANCH   3  26
TORSDOF 5
