REMARK  3 active torsions:
REMARK  status: ('A' for Active; 'I' for Inactive)
REMARK    1  A    between atoms: C3_3  and  N4_19 
REMARK    2  A    between atoms: C5_6  and  C6_7 
REMARK       I    between atoms: C6_7  and  N2_9 
REMARK    3  A    between atoms: N2_9  and  C7_10 
ROOT
ATOM      1  C6  <0> d          -1.260  -0.771   0.010  0.00  0.00     0.253 C 
ATOM      2  O1  <0> d          -2.326  -0.186   0.024  0.00  0.00    -0.268 OA
ATOM      3  N2  <0> d          -1.230  -2.118   0.003  0.00  0.00    -0.350 N 
ATOM      4  H4  <0> d          -0.379  -2.584  -0.008  0.00  0.00     0.163 HD
ENDROOT
BRANCH   1   5
ATOM      5  C5  <0> d           0.002  -0.004   0.002  0.00  0.00     0.049 A 
ATOM      6  C1  <0> d          -0.017   1.398   0.010  0.00  0.00     0.022 A 
ATOM      7  C2  <0> d           1.189   2.070   0.002  0.00  0.00     0.052 A 
ATOM      8  C3  <0> d           2.374   1.341  -0.013  0.00  0.00     0.134 A 
ATOM      9  N1  <0> d           2.358   0.016  -0.020  0.00  0.00    -0.242 NA
ATOM     10  C4  <0> d           1.232  -0.664  -0.013  0.00  0.00     0.136 A 
BRANCH   8  11
ATOM     11  N4  <0> d           3.595   2.014  -0.022  0.00  0.00    -0.300 N 
ATOM     12  C17 <0> d           3.779   3.358   0.078  0.00  0.00     0.215 A 
ATOM     13  N5  <0> d           5.059   3.606   0.035  0.00  0.00    -0.254 NA
ATOM     14  C16 <0> d           5.732   2.454  -0.100  0.00  0.00     0.135 A 
ATOM     15  C15 <0> d           4.839   1.447  -0.139  0.00  0.00     0.118 A 
ENDBRANCH   8  11
ENDBRANCH   1   5
BRANCH   3  16
ATOM     16  C7  <0> d          -2.482  -2.879   0.011  0.00  0.00     0.117 C 
ATOM     17  C10 <0> d          -2.270  -4.280   0.609  0.00  0.00     0.210 C 
ATOM     18  N3  <0> d          -3.422  -5.038   0.052  0.00  0.00    -0.065 N 
ATOM     19  C11 <0> d          -2.388  -4.321   2.126  0.00  0.00     0.035 C 
ATOM     20  C9  <0> d          -3.486  -4.658  -1.360  0.00  0.00     0.237 C 
ATOM     21  C14 <0> d          -3.214  -6.452   0.323  0.00  0.00     0.235 C 
ATOM     22  H22 <0> d          -4.263  -4.730   0.517  0.00  0.00     0.280 HD
ATOM     23  C8  <0> d          -2.939  -3.211  -1.436  0.00  0.00     0.055 C 
ATOM     24  C13 <0> d          -3.291  -6.657   1.844  0.00  0.00     0.028 C 
ATOM     25  C12 <0> d          -2.256  -5.790   2.560  0.00  0.00     0.004 C 
ENDBRANCH   3  16
TORSDOF 3
