REMARK  6 active torsions:
REMARK  status: ('A' for Active; 'I' for Inactive)
REMARK    1  A    between atoms: O1_2  and  C2_3 
REMARK    2  A    between atoms: C4_5  and  C10_14 
REMARK    3  A    between atoms: C6_7  and  O3_11 
REMARK    4  A    between atoms: C7_8  and  O2_9 
REMARK       I    between atoms: C10_14  and  N1_16 
REMARK    5  A    between atoms: N1_16  and  C11_17 
REMARK    6  A    between atoms: C12_18  and  C19_26 
REMARK       I    between atoms: C19_26  and  N2_28 
ROOT
ATOM      1  C10 <0> d          -1.199   1.681   0.453  0.00  0.00     0.258 C 
ATOM      2  O4  <0> d          -1.221   2.893   0.546  0.00  0.00    -0.267 OA
ATOM      3  N1  <0> d          -0.030   1.018   0.553  0.00  0.00    -0.316 N 
ATOM      4  H11 <0> d          -0.013   0.051   0.479  0.00  0.00     0.169 HD
ENDROOT
BRANCH   3   5
ATOM      5  C11 <0> d           1.148   1.718   0.755  0.00  0.00     0.093 A 
ATOM      6  S1  <0> d           1.369   3.429   0.918  0.00  0.00    -0.075 SA
ATOM      7  C14 <0> d           3.125   3.471   1.141  0.00  0.00    -0.008 A 
ATOM      8  C13 <0> d           3.511   2.177   1.087  0.00  0.00    -0.026 A 
ATOM      9  C15 <0> d           4.002   4.667   1.347  0.00  0.00     0.047 C 
ATOM     10  C12 <0> d           2.437   1.220   0.883  0.00  0.00     0.073 A 
ATOM     11  C18 <0> d           4.976   1.788   1.239  0.00  0.00     0.041 C 
ATOM     12  C17 <0> d           5.842   3.023   0.984  0.00  0.00     0.005 C 
ATOM     13  C16 <0> d           5.366   4.184   1.862  0.00  0.00     0.005 C 
BRANCH  10  14
ATOM     14  C19 <0> d           2.706  -0.220   0.810  0.00  0.00     0.252 C 
ATOM     15  O5  <0> d           2.951  -0.740  -0.262  0.00  0.00    -0.268 OA
ATOM     16  N2  <0> d           2.682  -0.967   1.932  0.00  0.00    -0.366 N 
ATOM     17  H20 <0> d           2.486  -0.553   2.787  0.00  0.00     0.159 HD
ATOM     18  H21 <0> d           2.860  -1.919   1.884  0.00  0.00     0.159 HD
ENDBRANCH  10  14
ENDBRANCH   3   5
BRANCH   1  19
ATOM     19  C4  <0> d          -2.453   0.935   0.232  0.00  0.00     0.055 A 
ATOM     20  C3  <0> d          -2.429  -0.458   0.119  0.00  0.00     0.058 A 
ATOM     21  C2  <0> d          -3.605  -1.154  -0.083  0.00  0.00     0.105 A 
ATOM     22  C7  <0> d          -4.813  -0.468  -0.185  0.00  0.00     0.136 A 
ATOM     23  C6  <0> d          -4.840   0.919  -0.080  0.00  0.00     0.122 A 
ATOM     24  C5  <0> d          -3.667   1.621   0.128  0.00  0.00     0.063 A 
ATOM     25 Br1  <0> d          -3.704   3.506   0.273  0.00  0.00    -0.047 Br
BRANCH  21  26
ATOM     26  O1  <0> d          -3.583  -2.510  -0.187  0.00  0.00    -0.353 OA
ATOM     27  C1  <0> d          -2.309  -3.148  -0.073  0.00  0.00     0.210 C 
ENDBRANCH  21  26
BRANCH  22  28
ATOM     28  O2  <0> d          -5.968  -1.156  -0.389  0.00  0.00    -0.351 OA
ATOM     29  C8  <0> d          -6.678  -1.589   0.773  0.00  0.00     0.210 C 
ENDBRANCH  22  28
BRANCH  23  30
ATOM     30  O3  <0> d          -6.022   1.585  -0.180  0.00  0.00    -0.352 OA
ATOM     31  C9  <0> d          -6.472   1.913  -1.497  0.00  0.00     0.210 C 
ENDBRANCH  23  30
ENDBRANCH   1  19
TORSDOF 6
