REMARK  5 active torsions:
REMARK  status: ('A' for Active; 'I' for Inactive)
REMARK    1  A    between atoms: C5_5  and  C14_17 
REMARK    2  A    between atoms: C7_7  and  N1_8 
REMARK       I    between atoms: C14_17  and  N4_19 
REMARK    3  A    between atoms: N4_19  and  C15_20 
REMARK    4  A    between atoms: C15_20  and  C16_21 
REMARK    5  A    between atoms: C16_21  and  C17_22 
ROOT
ATOM      1  C1  <0> d          -0.018   1.503   0.010  0.00  0.00     0.050 C 
ATOM      2  C2  <0> d           0.002  -0.004   0.002  0.00  0.00    -0.035 A 
ATOM      3  C3  <0> d           0.006  -0.686  -1.200  0.00  0.00     0.010 A 
ATOM      4  C4  <0> d           0.024  -2.066  -1.216  0.00  0.00     0.017 A 
ATOM      5  C5  <0> d           0.040  -2.778  -0.015  0.00  0.00     0.034 A 
ATOM      6  C6  <0> d           0.036  -2.090   1.198  0.00  0.00     0.047 A 
ATOM      7  C7  <0> d           0.023  -0.703   1.203  0.00  0.00     0.044 A 
ENDROOT
BRANCH   5   8
ATOM      8  C14 <0> d           0.059  -4.256  -0.029  0.00  0.00     0.251 C 
ATOM      9  O1  <0> d           0.072  -4.874   1.018  0.00  0.00    -0.268 OA
ATOM     10  N4  <0> d           0.061  -4.919  -1.203  0.00  0.00    -0.357 N 
ATOM     11  H13 <0> d           0.051  -4.426  -2.038  0.00  0.00     0.162 HD
BRANCH  10  12
ATOM     12  C15 <0> d           0.080  -6.384  -1.217  0.00  0.00     0.127 C 
BRANCH  12  13
ATOM     13  C16 <0> d           0.079  -6.880  -2.664  0.00  0.00     0.056 C 
BRANCH  13  14
ATOM     14  C17 <0> d           0.099  -8.387  -2.679  0.00  0.00    -0.048 A 
ATOM     15  C24 <0> d           1.315  -9.281  -2.589  0.00  0.00     0.155 A 
ATOM     16  N5  <0> d           0.807 -10.657  -2.642  0.00  0.00    -0.385 N 
ATOM     17  C23 <0> d          -0.498 -10.617  -2.755  0.00  0.00     0.038 A 
ATOM     18  H24 <0> d           1.348 -11.461  -2.604  0.00  0.00     0.160 HD
ATOM     19  C18 <0> d          -0.967  -9.213  -2.781  0.00  0.00    -0.006 A 
ATOM     20  C22 <0> d          -1.473 -11.648  -2.850  0.00  0.00     0.030 A 
ATOM     21  C19 <0> d          -2.409  -8.965  -2.903  0.00  0.00     0.014 A 
ATOM     22  C20 <0> d          -3.251 -10.020  -2.987  0.00  0.00     0.001 A 
ATOM     23  C21 <0> d          -2.783 -11.341  -2.961  0.00  0.00     0.002 A 
ENDBRANCH  13  14
ENDBRANCH  12  13
ENDBRANCH  10  12
ENDBRANCH   5   8
BRANCH   7  24
ATOM     24  N1  <0> d           0.025  -0.009   2.416  0.00  0.00    -0.314 N 
ATOM     25  C10 <0> d           1.152   0.417   3.122  0.00  0.00     0.136 A 
ATOM     26  C9  <0> d           0.756   1.079   4.283  0.00  0.00     0.074 A 
ATOM     27  N3  <0> d           2.442   0.281   2.840  0.00  0.00    -0.350 N 
ATOM     28  N2  <0> d          -0.641   1.094   4.371  0.00  0.00    -0.370 N 
ATOM     29  C13 <0> d           1.726   1.592   5.136  0.00  0.00     0.034 A 
ATOM     30  C8  <0> d          -1.157   0.401   3.184  0.00  0.00     0.254 A 
ATOM     31  H9  <0> d          -1.170   1.488   5.083  0.00  0.00     0.161 HD
ATOM     32  C12 <0> d           3.062   1.416   4.802  0.00  0.00     0.019 A 
ATOM     33  C11 <0> d           3.382   0.754   3.634  0.00  0.00     0.090 A 
ATOM     34  H25 <0> d           2.700  -0.180   2.027  0.00  0.00     0.166 HD
ENDBRANCH   7  24
TORSDOF 5
