REMARK  2 active torsions:
REMARK  status: ('A' for Active; 'I' for Inactive)
REMARK    1  A    between atoms: C7_7  and  C8_8 
REMARK    2  A    between atoms: N1_9  and  C9_10 
ROOT
ATOM      1  C1  <0> d           0.299   0.833   2.076  0.00  0.00     0.001 A 
ATOM      2  C2  <0> d           1.480   1.560   2.074  0.00  0.00     0.001 A 
ATOM      3  C3  <0> d           2.595   1.091   1.413  0.00  0.00     0.018 A 
ATOM      4  C4  <0> d           2.534  -0.129   0.738  0.00  0.00     0.043 A 
ATOM      5  C5  <0> d           1.332  -0.865   0.742  0.00  0.00    -0.003 A 
ATOM      6  C6  <0> d           0.218  -0.375   1.415  0.00  0.00     0.013 A 
ATOM      7  C7  <0> d           1.299  -2.153   0.018  0.00  0.00     0.058 A 
ATOM      8  C13 <0> d           2.522  -2.592  -0.664  0.00  0.00     0.260 A 
ATOM      9  O3  <0> d           2.528  -3.648  -1.270  0.00  0.00    -0.267 OA
ATOM     10  N2  <0> d           3.634  -1.839  -0.628  0.00  0.00    -0.289 N 
ATOM     11  C14 <0> d           3.699  -0.665   0.021  0.00  0.00     0.259 A 
ATOM     12  O4  <0> d           4.739  -0.035   0.013  0.00  0.00    -0.267 OA
ATOM     13  H14 <0> d           4.425  -2.159  -1.090  0.00  0.00     0.172 HD
ENDROOT
BRANCH   7  14
ATOM     14  C8  <0> d           0.154  -2.919  -0.016  0.00  0.00     0.101 C 
ATOM     15  N1  <0> d          -1.063  -2.327   0.101  0.00  0.00    -0.392 N 
ATOM     16  H7  <0> d          -1.133  -1.359   0.108  0.00  0.00     0.159 HD
BRANCH  15  17
ATOM     17  C9  <0> d          -2.269  -3.149   0.218  0.00  0.00     0.095 C 
ATOM     18  C12 <0> d          -3.488  -2.352  -0.305  0.00  0.00     0.165 C 
ATOM     19  S1  <0> d          -4.864  -2.986   0.735  0.00  0.00     0.146 S 
ATOM     20  C11 <0> d          -3.918  -4.123   1.833  0.00  0.00     0.142 C 
ATOM     21  O1  <0> d          -5.384  -1.917   1.515  0.00  0.00    -0.228 OA
ATOM     22  O2  <0> d          -5.744  -3.752  -0.076  0.00  0.00    -0.228 OA
ATOM     23  C10 <0> d          -2.487  -3.530   1.692  0.00  0.00     0.041 C 
ENDBRANCH  15  17
ENDBRANCH   7  14
TORSDOF 2
