REMARK  6 active torsions:
REMARK  status: ('A' for Active; 'I' for Inactive)
REMARK    1  A    between atoms: C2_2  and  C3_3 
REMARK    2  A    between atoms: C2_2  and  O3_25 
REMARK    3  A    between atoms: C3_3  and  N1_4 
REMARK       I    between atoms: N1_4  and  C4_5 
REMARK    4  A    between atoms: C4_5  and  C5_7 
REMARK       I    between atoms: N2_9  and  C13_17 
REMARK    5  A    between atoms: C13_17  and  C14_19 
REMARK    6  A    between atoms: O3_25  and  C18_26 
ROOT
ATOM      1  C5  <0> d           1.548  -4.569   2.362  0.00  0.00     0.106 C 
ATOM      2  C6  <0> d           0.062  -4.981   2.261  0.00  0.00     0.141 C 
ATOM      3  N2  <0> d          -0.103  -6.041   3.283  0.00  0.00    -0.345 N 
ATOM      4  C7  <0> d           0.711  -5.576   4.431  0.00  0.00     0.136 C 
ATOM      5  C8  <0> d           1.970  -4.960   3.789  0.00  0.00    -0.007 C 
ATOM      6  C9  <0> d           2.409  -3.724   4.568  0.00  0.00     0.039 C 
ATOM      7  C10 <0> d           2.878  -4.145   5.963  0.00  0.00     0.233 C 
ATOM      8  N3  <0> d           3.993  -5.092   5.840  0.00  0.00    -0.075 N 
ATOM      9  C11 <0> d           3.538  -6.317   5.172  0.00  0.00     0.233 C 
ATOM     10  C12 <0> d           3.096  -5.988   3.743  0.00  0.00     0.039 C 
ATOM     11  C13 <0> d          -0.829  -7.173   3.190  0.00  0.00     0.272 C 
ATOM     12  O2  <0> d          -0.853  -7.958   4.119  0.00  0.00    -0.266 OA
ATOM     13  H17 <0> d           4.733  -4.671   5.300  0.00  0.00     0.277 HD
ATOM     14  H31 <0> d           4.341  -5.322   6.760  0.00  0.00     0.277 HD
ENDROOT
BRANCH   1  15
ATOM     15  C4  <0> d           1.695  -3.083   2.161  0.00  0.00     0.224 C 
ATOM     16  N1  <0> d           2.821  -2.585   1.612  0.00  0.00    -0.358 N 
ATOM     17  H8  <0> d           3.537  -3.184   1.346  0.00  0.00     0.162 HD
ATOM     18  O1  <0> d           0.800  -2.334   2.493  0.00  0.00    -0.273 OA
BRANCH  16  19
ATOM     19  C3  <0> d           2.964  -1.140   1.416  0.00  0.00     0.154 C 
BRANCH  19  20
ATOM     20  C2  <0> d           4.324  -0.844   0.780  0.00  0.00     0.142 C 
ATOM     21  C1  <0> d           4.474   0.665   0.575  0.00  0.00     0.042 C 
BRANCH  20  22
ATOM     22  O3  <0> d           5.364  -1.314   1.640  0.00  0.00    -0.345 OA
BRANCH  22  23
ATOM     23  C18 <0> d           6.489  -1.790   1.045  0.00  0.00     0.069 A 
ATOM     24  C23 <0> d           6.644  -1.689  -0.330  0.00  0.00     0.040 A 
ATOM     25  C22 <0> d           7.791  -2.168  -0.933  0.00  0.00     0.045 A 
ATOM     26  C21 <0> d           8.780  -2.760  -0.167  0.00  0.00     0.116 A 
ATOM     27  C20 <0> d           8.625  -2.868   1.204  0.00  0.00     0.045 A 
ATOM     28  F1  <0> d           9.899  -3.234  -0.759  0.00  0.00    -0.206 F 
ATOM     29  C19 <0> d           7.482  -2.384   1.811  0.00  0.00     0.040 A 
ENDBRANCH  22  23
ENDBRANCH  20  22
ENDBRANCH  19  20
ENDBRANCH  16  19
ENDBRANCH   1  15
BRANCH  11  30
ATOM     30  C14 <0> d          -1.590  -7.457   1.968  0.00  0.00     0.121 A 
ATOM     31  N5  <0> d          -2.192  -8.653   1.626  0.00  0.00    -0.340 N 
ATOM     32  C16 <0> d          -2.779  -8.472   0.430  0.00  0.00     0.209 A 
ATOM     33  C17 <0> d          -2.193  -9.885   2.419  0.00  0.00     0.157 C 
ATOM     34  N4  <0> d          -2.562  -7.246   0.026  0.00  0.00    -0.253 NA
ATOM     35  C15 <0> d          -1.839  -6.595   0.938  0.00  0.00     0.153 A 
ENDBRANCH  11  30
TORSDOF 6
