REMARK  2 active torsions:
REMARK  status: ('A' for Active; 'I' for Inactive)
REMARK    1  A    between atoms: C3_3  and  C6_8 
REMARK    2  A    between atoms: N4_16  and  C11_19 
ROOT
ATOM      1  C6  <0> d           0.214  -0.372  -2.514  0.00  0.00     0.083 C 
ATOM      2  N3  <0> d           0.155  -1.194  -3.630  0.00  0.00    -0.264 N 
ATOM      3  O1  <0> d          -0.251  -0.348  -4.724  0.00  0.00    -0.260 OA
ATOM      4  C7  <0> d           0.545   0.816  -4.455  0.00  0.00     0.285 C 
ATOM      5  C8  <0> d           0.385   0.922  -2.929  0.00  0.00     0.080 C 
ATOM      6  H2  <0> d           0.347  -2.144  -3.666  0.00  0.00     0.194 HD
ATOM      7  C9  <0> d           0.399   2.302  -2.720  0.00  0.00     0.266 C 
ATOM      8  O2  <0> d           0.761   2.855  -1.697  0.00  0.00    -0.267 OA
ATOM      9  N4  <0> d          -0.051   2.926  -3.826  0.00  0.00    -0.246 N 
ATOM     10  C10 <0> d          -0.054   2.114  -4.921  0.00  0.00     0.268 C 
ATOM     11  O3  <0> d          -0.465   2.372  -6.032  0.00  0.00    -0.269 OA
ENDROOT
BRANCH   9  12
ATOM     12  C11 <0> d          -0.454   4.268  -3.854  0.00  0.00     0.046 A 
ATOM     13  C20 <0> d          -0.400   5.019  -2.702  0.00  0.00     0.042 A 
ATOM     14  C19 <0> d          -0.799   6.365  -2.734  0.00  0.00    -0.024 A 
ATOM     15  C14 <0> d          -1.263   6.925  -3.951  0.00  0.00    -0.026 A 
ATOM     16  C18 <0> d          -0.753   7.166  -1.580  0.00  0.00     0.012 A 
ATOM     17  C13 <0> d          -1.311   6.127  -5.107  0.00  0.00     0.014 A 
ATOM     18  C15 <0> d          -1.668   8.270  -3.979  0.00  0.00     0.012 A 
ATOM     19  C12 <0> d          -0.913   4.828  -5.051  0.00  0.00     0.031 A 
ATOM     20  C16 <0> d          -1.610   9.016  -2.842  0.00  0.00     0.001 A 
ATOM     21  C17 <0> d          -1.153   8.465  -1.645  0.00  0.00     0.001 A 
ENDBRANCH   9  12
BRANCH   1  22
ATOM     22  C3  <0> d           0.105  -0.816  -1.112  0.00  0.00     0.036 A 
ATOM     23  C2  <0> d           0.061  -2.123  -0.668  0.00  0.00     0.040 A 
ATOM     24  C1  <0> d           0.114  -3.359  -1.527  0.00  0.00     0.071 C 
ATOM     25  N2  <0> d          -0.044  -2.088   0.672  0.00  0.00    -0.278 N 
ATOM     26  N1  <0> d          -0.058  -0.750   1.081  0.00  0.00    -0.184 NA
ATOM     27  C5  <0> d          -0.128  -3.255   1.554  0.00  0.00     0.179 C 
ATOM     28  C4  <0> d           0.027   0.015   0.028  0.00  0.00     0.154 A 
ENDBRANCH   1  22
TORSDOF 2
