REMARK  4 active torsions:
REMARK  status: ('A' for Active; 'I' for Inactive)
REMARK    1  A    between atoms: C4_4  and  C7_7 
REMARK    2  A    between atoms: C9_9  and  C10_13 
REMARK       I    between atoms: C10_13  and  N3_15 
REMARK    3  A    between atoms: N3_15  and  N4_16 
REMARK       I    between atoms: N4_16  and  C11_17 
REMARK    4  A    between atoms: C11_17  and  C12_19 
ROOT
ATOM      1  C10 <0> d           2.495   1.546  -0.013  0.00  0.00     0.288 C 
ATOM      2  O1  <0> d           2.808   0.370  -0.023  0.00  0.00    -0.264 OA
ATOM      3  N3  <0> d           3.450   2.497  -0.018  0.00  0.00    -0.262 N 
ATOM      4  H8  <0> d           3.167   3.560  -0.009  0.00  0.00     0.190 HD
ENDROOT
BRANCH   1   5
ATOM      5  C9  <0> d           1.074   1.929   0.002  0.00  0.00     0.121 A 
ATOM      6  C8  <0> d          -0.013   1.076   0.008  0.00  0.00     0.071 A 
ATOM      7  C7  <0> d          -1.142   1.914   0.017  0.00  0.00     0.089 A 
ATOM      8  N2  <0> d          -0.714   3.159   0.026  0.00  0.00    -0.174 NA
ATOM      9  N1  <0> d           0.570   3.199   0.014  0.00  0.00    -0.272 N 
ATOM     10  H1  <0> d           1.252   4.062   0.012  0.00  0.00     0.189 HD
BRANCH   7  11
ATOM     11  C4  <0> d          -2.560   1.475   0.020  0.00  0.00    -0.006 A 
ATOM     12  C3  <0> d          -3.585   2.419   0.030  0.00  0.00     0.014 A 
ATOM     13  C2  <0> d          -4.901   2.005   0.032  0.00  0.00     0.001 A 
ATOM     14  C1  <0> d          -5.205   0.655   0.025  0.00  0.00     0.000 A 
ATOM     15  C6  <0> d          -4.191  -0.286   0.016  0.00  0.00     0.001 A 
ATOM     16  C5  <0> d          -2.872   0.117   0.008  0.00  0.00     0.014 A 
ENDBRANCH   7  11
ENDBRANCH   1   5
BRANCH   3  17
ATOM     17  N4  <0> d           4.803   2.132  -0.032  0.00  0.00    -0.263 N 
ATOM     18  C11 <0> d           5.757   3.083  -0.036  0.00  0.00     0.271 C 
ATOM     19  O2  <0> d           5.445   4.258  -0.027  0.00  0.00    -0.266 OA
ATOM     20  H9  <0> d           5.085   1.069  -0.041  0.00  0.00     0.190 HD
BRANCH  18  21
ATOM     21  C12 <0> d           7.185   2.698  -0.052  0.00  0.00     0.051 A 
ATOM     22  C16 <0> d           8.182   3.674  -0.056  0.00  0.00     0.142 A 
ATOM     23  N5  <0> d           9.455   3.330  -0.071  0.00  0.00    -0.210 N 
ATOM     24  C15 <0> d           9.835   2.066  -0.081  0.00  0.00     0.125 A 
ATOM     25  O3  <0> d          10.441   4.346  -0.075  0.00  0.00    -0.082 OA
ATOM     26  C14 <0> d           8.906   1.041  -0.078  0.00  0.00     0.021 A 
ATOM     27  C13 <0> d           7.558   1.349  -0.057  0.00  0.00     0.020 A 
ENDBRANCH  18  21
ENDBRANCH   3  17
TORSDOF 4
