REMARK  4 active torsions:
REMARK  status: ('A' for Active; 'I' for Inactive)
REMARK    1  A    between atoms: C2_2  and  C3_3 
REMARK    2  A    between atoms: C3_3  and  C4_4 
REMARK    3  A    between atoms: C7_11  and  N4_26 
REMARK    4  A    between atoms: C9_13  and  C10_14 
ROOT
ATOM      1  C4  <0> d           0.739  -2.004  -1.265  0.00  0.00     0.066 A 
ATOM      2  C5  <0> d           1.726  -2.809  -0.712  0.00  0.00     0.035 A 
ATOM      3  C6  <0> d           1.378  -4.114  -0.927  0.00  0.00     0.175 A 
ATOM      4  N1  <0> d           0.212  -4.119  -1.594  0.00  0.00    -0.256 N 
ATOM      5  H1  <0> d          -0.276  -4.905  -1.884  0.00  0.00     0.191 HD
ATOM      6  N2  <0> d          -0.176  -2.784  -1.791  0.00  0.00    -0.177 NA
ATOM      7  O1  <0> d           2.138  -5.154  -0.503  0.00  0.00    -0.274 OA
ATOM      8  C7  <0> d           3.120  -4.889   0.383  0.00  0.00     0.161 C 
ATOM      9  C8  <0> d           3.559  -3.643   0.670  0.00  0.00     0.086 C 
ATOM     10  C9  <0> d           2.986  -2.412   0.012  0.00  0.00     0.107 C 
ATOM     11  C17 <0> d           4.606  -3.486   1.633  0.00  0.00     0.100 C 
ATOM     12  N3  <0> d           5.437  -3.361   2.398  0.00  0.00    -0.191 NA
ENDROOT
BRANCH   8  13
ATOM     13  N4  <0> d           3.708  -5.946   1.031  0.00  0.00    -0.379 N 
ATOM     14  H14 <0> d           3.415  -6.852   0.847  0.00  0.00     0.158 HD
ATOM     15  H15 <0> d           4.417  -5.788   1.674  0.00  0.00     0.158 HD
ENDBRANCH   8  13
BRANCH  10  16
ATOM     16  C10 <0> d           3.981  -1.851  -0.970  0.00  0.00    -0.024 A 
ATOM     17  C15 <0> d           4.441  -0.555  -0.822  0.00  0.00     0.021 A 
ATOM     18  C14 <0> d           5.359  -0.037  -1.718  0.00  0.00     0.059 A 
ATOM     19 Br1  <0> d           3.819   0.509   0.612  0.00  0.00    -0.050 Br
ATOM     20  C13 <0> d           5.811  -0.813  -2.773  0.00  0.00     0.106 A 
ATOM     21  C12 <0> d           5.344  -2.116  -2.925  0.00  0.00     0.105 A 
ATOM     22  O2  <0> d           6.694  -0.546  -3.780  0.00  0.00    -0.323 OA
ATOM     23  C11 <0> d           4.429  -2.630  -2.021  0.00  0.00     0.049 A 
ATOM     24  O3  <0> d           5.934  -2.665  -4.027  0.00  0.00    -0.323 OA
ATOM     25  C16 <0> d           7.072  -1.830  -4.311  0.00  0.00     0.352 C 
ENDBRANCH  10  16
BRANCH   1  26
ATOM     26  C3  <0> d           0.718  -0.497  -1.257  0.00  0.00     0.061 C 
BRANCH  26  27
ATOM     27  C2  <0> d           0.002  -0.004   0.002  0.00  0.00     0.002 C 
ATOM     28  C1  <0> d          -0.019   1.526   0.010  0.00  0.00     0.005 C 
ENDBRANCH  26  27
ENDBRANCH   1  26
TORSDOF 4
