REMARK  6 active torsions:
REMARK  status: ('A' for Active; 'I' for Inactive)
REMARK    1  A    between atoms: N4_6  and  C3_7 
REMARK    2  A    between atoms: C3_7  and  C11_16 
REMARK    3  A    between atoms: C4_8  and  C5_9 
REMARK       I    between atoms: C11_16  and  N5_18 
REMARK    4  A    between atoms: N5_18  and  C12_19 
REMARK    5  A    between atoms: C12_19  and  C13_20 
REMARK    6  A    between atoms: C13_20  and  N6_25 
ROOT
ATOM      1  C3  <0> d          -0.044  -0.128   2.421  0.00  0.00     0.130 C 
ATOM      2  C4  <0> d          -0.036  -1.186   3.264  0.00  0.00     0.049 C 
ENDROOT
BRANCH   1   3
ATOM      3  N4  <0> d           0.106  -0.329   1.042  0.00  0.00    -0.193 N 
ATOM      4  C2  <0> d          -0.667  -1.089   0.235  0.00  0.00     0.150 A 
ATOM      5  C1  <0> d          -1.872  -1.893   0.650  0.00  0.00     0.095 C 
ATOM      6  N1  <0> d          -0.178  -0.992  -0.974  0.00  0.00    -0.114 NA
ATOM      7  N2  <0> d           0.854  -0.227  -0.986  0.00  0.00    -0.023 NA
ATOM      8  N3  <0> d           1.095   0.213   0.202  0.00  0.00    -0.039 NA
ENDBRANCH   1   3
BRANCH   1   9
ATOM      9  C11 <0> d          -0.211   1.232   2.950  0.00  0.00     0.270 C 
ATOM     10  O1  <0> d          -0.420   1.401   4.136  0.00  0.00    -0.266 OA
ATOM     11  N5  <0> d          -0.131   2.292   2.121  0.00  0.00    -0.353 N 
ATOM     12  H9  <0> d          -0.027   2.155   1.167  0.00  0.00     0.162 HD
BRANCH  11  13
ATOM     13  C12 <0> d          -0.201   3.651   2.663  0.00  0.00     0.162 C 
BRANCH  13  14
ATOM     14  C13 <0> d          -0.211   4.659   1.511  0.00  0.00     0.142 C 
ATOM     15  C17 <0> d           1.014   4.438   0.607  0.00  0.00     0.041 C 
ATOM     16  C16 <0> d           0.471   4.092  -0.795  0.00  0.00     0.003 C 
ATOM     17  C15 <0> d          -0.951   4.705  -0.813  0.00  0.00     0.003 C 
ATOM     18  C14 <0> d          -1.456   4.439   0.627  0.00  0.00     0.041 C 
BRANCH  14  19
ATOM     19  N6  <0> d          -0.204   6.029   2.042  0.00  0.00    -0.068 N 
ATOM     20  C18 <0> d          -1.349   6.210   2.945  0.00  0.00     0.270 C 
ATOM     21  C19 <0> d           1.044   6.262   2.780  0.00  0.00     0.270 C 
ATOM     22  H26 <0> d          -0.271   6.685   1.278  0.00  0.00     0.280 HD
ENDBRANCH  14  19
ENDBRANCH  13  14
ENDBRANCH  11  13
ENDBRANCH   1   9
BRANCH   2  23
ATOM     23  C5  <0> d           0.286  -2.528   2.757  0.00  0.00    -0.034 A 
ATOM     24  C10 <0> d           1.110  -2.676   1.636  0.00  0.00     0.014 A 
ATOM     25  C9  <0> d           1.413  -3.937   1.170  0.00  0.00     0.043 A 
ATOM     26  C8  <0> d           0.894  -5.057   1.802  0.00  0.00     0.116 A 
ATOM     27  C7  <0> d           0.071  -4.917   2.910  0.00  0.00     0.043 A 
ATOM     28  F1  <0> d           1.190  -6.290   1.336  0.00  0.00    -0.206 F 
ATOM     29  C6  <0> d          -0.235  -3.662   3.390  0.00  0.00     0.014 A 
ENDBRANCH   2  23
TORSDOF 6
