REMARK  3 active torsions:
REMARK  status: ('A' for Active; 'I' for Inactive)
REMARK    1  A    between atoms: C5_6  and  C12_15 
REMARK    2  A    between atoms: N2_8  and  C6_9 
REMARK       I    between atoms: C12_15  and  N3_17 
REMARK    3  A    between atoms: N3_17  and  C13_18 
ROOT
ATOM      1  C1  <0> d           4.788   4.270  -0.285  0.00  0.00     0.070 C 
ATOM      2  C2  <0> d           3.569   3.396  -0.141  0.00  0.00     0.036 A 
ATOM      3  C3  <0> d           3.676   2.061  -0.340  0.00  0.00     0.084 A 
ATOM      4  C4  <0> d           2.505   1.273  -0.189  0.00  0.00     0.209 A 
ATOM      5  O1  <0> d           2.529   0.062  -0.348  0.00  0.00    -0.286 OA
ATOM      6  C5  <0> d           1.262   1.976   0.162  0.00  0.00     0.194 A 
ATOM      7  N1  <0> d           1.298   3.282   0.326  0.00  0.00    -0.158 NA
ATOM      8  N2  <0> d           2.378   3.957   0.186  0.00  0.00    -0.238 N 
ENDROOT
BRANCH   6   9
ATOM      9  C12 <0> d          -0.002   1.231   0.333  0.00  0.00     0.276 C 
ATOM     10  O2  <0> d          -0.022   0.025   0.178  0.00  0.00    -0.266 OA
ATOM     11  N3  <0> d          -1.133   1.888   0.655  0.00  0.00    -0.350 N 
ATOM     12  H11 <0> d          -1.117   2.850   0.778  0.00  0.00     0.163 HD
BRANCH  11  13
ATOM     13  C13 <0> d          -2.388   1.149   0.819  0.00  0.00     0.099 C 
ATOM     14  C16 <0> d          -3.581   2.099   0.556  0.00  0.00     0.165 C 
ATOM     15  S1  <0> d          -4.880   1.433   1.675  0.00  0.00     0.146 S 
ATOM     16  C15 <0> d          -3.920   0.090   2.493  0.00  0.00     0.142 C 
ATOM     17  O3  <0> d          -5.208   2.421   2.643  0.00  0.00    -0.228 OA
ATOM     18  O4  <0> d          -5.913   0.853   0.891  0.00  0.00    -0.228 OA
ATOM     19  C14 <0> d          -2.468   0.589   2.248  0.00  0.00     0.041 C 
ENDBRANCH  11  13
ENDBRANCH   6   9
BRANCH   8  20
ATOM     20  C6  <0> d           2.327   5.341   0.379  0.00  0.00     0.058 A 
ATOM     21  C11 <0> d           1.308   6.088  -0.200  0.00  0.00     0.031 A 
ATOM     22  C10 <0> d           1.260   7.454  -0.007  0.00  0.00     0.002 A 
ATOM     23  C9  <0> d           2.225   8.080   0.762  0.00  0.00     0.000 A 
ATOM     24  C8  <0> d           3.240   7.340   1.340  0.00  0.00     0.002 A 
ATOM     25  C7  <0> d           3.291   5.972   1.155  0.00  0.00     0.031 A 
ENDBRANCH   8  20
TORSDOF 3
