REMARK  4 active torsions:
REMARK  status: ('A' for Active; 'I' for Inactive)
REMARK    1  A    between atoms: C7_13  and  C8_14 
REMARK    2  A    between atoms: C11_17  and  O2_20 
REMARK    3  A    between atoms: O2_20  and  C14_21 
REMARK    4  A    between atoms: C14_21  and  C15_22 
ROOT
ATOM      1  C1  <0> d          -2.611   1.631   0.046  0.00  0.00     0.073 C 
ATOM      2  C2  <0> d          -1.225   2.223   0.032  0.00  0.00     0.062 A 
ATOM      3  C3  <0> d          -0.018   1.492   0.010  0.00  0.00     0.032 A 
ATOM      4  C4  <0> d           1.001   2.379   0.005  0.00  0.00     0.134 A 
ATOM      5  N1  <0> d           0.445   3.631   0.022  0.00  0.00    -0.262 N 
ATOM      6  H1  <0> d           0.949   4.495   0.026  0.00  0.00     0.191 HD
ATOM      7  N2  <0> d          -0.943   3.494   0.032  0.00  0.00    -0.178 NA
ATOM      8  N3  <0> d           2.365   2.209  -0.014  0.00  0.00    -0.310 N 
ATOM      9  C5  <0> d           3.162   1.184   0.015  0.00  0.00     0.236 C 
ATOM     10  O1  <0> d           4.341   1.457   0.088  0.00  0.00    -0.272 OA
ATOM     11  C6  <0> d           2.860  -0.262  -0.027  0.00  0.00     0.136 C 
ATOM     12  S1  <0> d           1.387  -0.700   0.907  0.00  0.00    -0.141 SA
ATOM     13  C7  <0> d           0.002  -0.004   0.002  0.00  0.00     0.119 C 
ATOM     14  C21 <0> d           4.053  -1.031   0.546  0.00  0.00     0.031 C 
ATOM     15  H7  <0> d           2.844   3.052  -0.060  0.00  0.00     0.170 HD
ENDROOT
BRANCH  13  16
ATOM     16  C8  <0> d          -1.277  -0.509   0.618  0.00  0.00    -0.040 A 
ATOM     17  C13 <0> d          -2.132  -1.305  -0.121  0.00  0.00     0.011 A 
ATOM     18  C12 <0> d          -3.306  -1.769   0.441  0.00  0.00     0.037 A 
ATOM     19  C11 <0> d          -3.626  -1.435   1.749  0.00  0.00     0.069 A 
ATOM     20  C10 <0> d          -2.767  -0.635   2.489  0.00  0.00     0.037 A 
ATOM     21  C9  <0> d          -1.592  -0.179   1.923  0.00  0.00     0.011 A 
BRANCH  19  22
ATOM     22  O2  <0> d          -4.780  -1.889   2.304  0.00  0.00    -0.347 OA
BRANCH  22  23
ATOM     23  C14 <0> d          -5.045  -1.506   3.655  0.00  0.00     0.216 C 
BRANCH  23  24
ATOM     24  C15 <0> d          -6.358  -2.098   4.097  0.00  0.00    -0.012 A 
ATOM     25  C20 <0> d          -6.825  -1.867   5.379  0.00  0.00     0.042 A 
ATOM     26  C19 <0> d          -8.033  -2.408   5.782  0.00  0.00     0.024 A 
ATOM     27 Cl1  <0> d          -5.898  -0.895   6.478  0.00  0.00    -0.084 Cl
ATOM     28  C18 <0> d          -8.768  -3.187   4.908  0.00  0.00     0.002 A 
ATOM     29  C17 <0> d          -8.298  -3.421   3.629  0.00  0.00     0.001 A 
ATOM     30  C16 <0> d          -7.094  -2.878   3.224  0.00  0.00     0.011 A 
ENDBRANCH  23  24
ENDBRANCH  22  23
ENDBRANCH  19  22
ENDBRANCH  13  16
TORSDOF 4
