REMARK  6 active torsions:
REMARK  status: ('A' for Active; 'I' for Inactive)
REMARK    1  A    between atoms: C3_3  and  O7_28 
REMARK    2  A    between atoms: C4_4  and  O6_27 
REMARK    3  A    between atoms: C6_6  and  C7_8 
REMARK    4  A    between atoms: C13_15  and  C14_17 
REMARK    5  A    between atoms: C20_23  and  O5_26 
REMARK    6  A    between atoms: C21_24  and  O4_25 
ROOT
ATOM      1  C7  <0> d           1.560  -2.284   2.478  0.00  0.00     0.009 A 
ATOM      2  C8  <0> d           1.585  -1.424   3.558  0.00  0.00     0.051 A 
ATOM      3  C9  <0> d           2.288  -1.766   4.704  0.00  0.00     0.093 A 
ATOM      4  C10 <0> d           2.971  -2.993   4.755  0.00  0.00     0.084 A 
ATOM      5  C11 <0> d           3.711  -3.336   5.983  0.00  0.00     0.190 A 
ATOM      6  O2  <0> d           4.322  -4.387   6.083  0.00  0.00    -0.287 OA
ATOM      7  C12 <0> d           3.684  -2.397   7.042  0.00  0.00     0.094 A 
ATOM      8  C13 <0> d           2.992  -1.236   6.891  0.00  0.00     0.090 A 
ATOM      9  O3  <0> d           2.322  -0.936   5.768  0.00  0.00    -0.309 OA
ATOM     10  C20 <0> d           2.942  -3.860   3.659  0.00  0.00     0.116 A 
ATOM     11  C21 <0> d           2.228  -3.499   2.523  0.00  0.00     0.108 A 
ENDROOT
BRANCH   1  12
ATOM     12  C6  <0> d           0.793  -1.901   1.238  0.00  0.00     0.160 C 
ATOM     13  C5  <0> d          -0.612  -2.507   1.299  0.00  0.00     0.071 C 
ATOM     14  C4  <0> d          -1.405  -2.065   0.066  0.00  0.00     0.152 C 
ATOM     15  C3  <0> d          -1.434  -0.534   0.013  0.00  0.00     0.175 C 
ATOM     16  C2  <0> d           0.002  -0.004   0.002  0.00  0.00     0.149 C 
ATOM     17  C1  <0> d          -0.019   1.526   0.010  0.00  0.00     0.042 C 
ATOM     18  O1  <0> d           0.693  -0.478   1.160  0.00  0.00    -0.373 OA
BRANCH  14  19
ATOM     19  O6  <0> d          -2.740  -2.566   0.149  0.00  0.00    -0.393 OA
ATOM     20  H19 <0> d          -2.797  -3.531   0.185  0.00  0.00     0.210 HD
ENDBRANCH  14  19
BRANCH  15  21
ATOM     21  O7  <0> d          -2.110  -0.109  -1.172  0.00  0.00    -0.390 OA
ATOM     22  H20 <0> d          -2.161   0.852  -1.272  0.00  0.00     0.210 HD
ENDBRANCH  15  21
ENDBRANCH   1  12
BRANCH  11  23
ATOM     23  O4  <0> d           2.188  -4.337   1.452  0.00  0.00    -0.357 OA
ATOM     24  H17 <0> d           2.899  -4.194   0.813  0.00  0.00     0.217 HD
ENDBRANCH  11  23
BRANCH  10  25
ATOM     25  O5  <0> d           3.602  -5.046   3.705  0.00  0.00    -0.357 OA
ATOM     26  H18 <0> d           3.071  -5.779   4.045  0.00  0.00     0.217 HD
ENDBRANCH  10  25
BRANCH   8  27
ATOM     27  C14 <0> d           2.976  -0.269   8.007  0.00  0.00    -0.002 A 
ATOM     28  C19 <0> d           2.274   0.932   7.885  0.00  0.00     0.014 A 
ATOM     29  C18 <0> d           2.259   1.828   8.933  0.00  0.00     0.001 A 
ATOM     30  C17 <0> d           2.947   1.545  10.100  0.00  0.00     0.000 A 
ATOM     31  C16 <0> d           3.649   0.359  10.226  0.00  0.00     0.001 A 
ATOM     32  C15 <0> d           3.668  -0.549   9.188  0.00  0.00     0.014 A 
ENDBRANCH   8  27
TORSDOF 6
