REMARK  2 active torsions:
REMARK  status: ('A' for Active; 'I' for Inactive)
REMARK    1  A    between atoms: C8_9  and  C10_12 
REMARK    2  A    between atoms: C8_9  and  O3_23 
ROOT
ATOM      1  C1  <0> d          -0.018   1.461   0.010  0.00  0.00     0.159 C 
ATOM      2  N1  <0> d           0.002  -0.004   0.002  0.00  0.00    -0.319 N 
ATOM      3  C2  <0> d          -1.146  -0.797   0.003  0.00  0.00     0.046 A 
ATOM      4  C3  <0> d          -2.495  -0.448   0.012  0.00  0.00     0.030 A 
ATOM      5  C4  <0> d          -3.464  -1.429   0.011  0.00  0.00     0.002 A 
ATOM      6  C5  <0> d          -3.107  -2.765   0.002  0.00  0.00     0.001 A 
ATOM      7  C6  <0> d          -1.769  -3.120  -0.007  0.00  0.00     0.013 A 
ATOM      8  C7  <0> d          -0.800  -2.143  -0.007  0.00  0.00     0.013 A 
ATOM      9  C8  <0> d           0.711  -2.193  -0.015  0.00  0.00     0.184 A 
ATOM     10  C9  <0> d           1.128  -0.738  -0.013  0.00  0.00     0.264 A 
ATOM     11  O1  <0> d           2.264  -0.314  -0.022  0.00  0.00    -0.269 OA
ENDROOT
BRANCH   9  12
ATOM     12  C10 <0> d           1.217  -2.890  -1.279  0.00  0.00     0.162 A 
ATOM     13  C17 <0> d           0.826  -2.103  -2.512  0.00  0.00     0.234 A 
ATOM     14  N2  <0> d           1.968  -1.735  -3.122  0.00  0.00    -0.326 N 
ATOM     15  O2  <0> d          -0.303  -1.851  -2.877  0.00  0.00    -0.272 OA
ATOM     16  C16 <0> d           3.101  -2.188  -2.443  0.00  0.00     0.042 A 
ATOM     17  H12 <0> d           2.001  -1.216  -3.941  0.00  0.00     0.169 HD
ATOM     18  C11 <0> d           2.728  -2.900  -1.310  0.00  0.00    -0.013 A 
ATOM     19  C15 <0> d           4.456  -2.032  -2.727  0.00  0.00     0.031 A 
ATOM     20  C12 <0> d           3.678  -3.446  -0.476  0.00  0.00     0.029 A 
ATOM     21  C13 <0> d           5.023  -3.288  -0.765  0.00  0.00     0.011 A 
ATOM     22  C14 <0> d           5.406  -2.581  -1.891  0.00  0.00     0.021 A 
ATOM     23 Br1  <0> d           6.332  -4.035   0.377  0.00  0.00    -0.051 Br
ENDBRANCH   9  12
BRANCH   9  24
ATOM     24  O3  <0> d           1.196  -2.858   1.153  0.00  0.00    -0.374 OA
ATOM     25  H13 <0> d           0.929  -2.440   1.984  0.00  0.00     0.211 HD
ENDBRANCH   9  24
TORSDOF 2
