REMARK  3 active torsions:
REMARK  status: ('A' for Active; 'I' for Inactive)
REMARK    1  A    between atoms: C2_2  and  C3_3 
REMARK    2  A    between atoms: C4_6  and  N3_8 
REMARK       I    between atoms: N3_8  and  C5_9 
REMARK    3  A    between atoms: C5_9  and  C6_11 
ROOT
ATOM      1  C6  <0> d           1.255   2.101   0.001  0.00  0.00     0.033 A 
ATOM      2  C7  <0> d           2.475   1.421  -0.014  0.00  0.00     0.018 A 
ATOM      3  C8  <0> d           3.656   2.127  -0.022  0.00  0.00     0.018 A 
ATOM      4  C9  <0> d           3.643   3.528  -0.016  0.00  0.00     0.037 A 
ATOM      5  C10 <0> d           2.423   4.203   0.000  0.00  0.00     0.079 A 
ATOM      6  C11 <0> d           1.239   3.496   0.003  0.00  0.00     0.041 A 
ATOM      7  S2  <0> d           2.382   5.964   0.012  0.00  0.00     0.208 S 
ATOM      8  O2  <0> d           2.181   6.375  -1.333  0.00  0.00    -0.217 OA
ATOM      9  O3  <0> d           1.504   6.343   1.064  0.00  0.00    -0.217 OA
ATOM     10  C12 <0> d           3.989   6.517   0.473  0.00  0.00     0.078 A 
ATOM     11  C13 <0> d           4.169   7.820   0.893  0.00  0.00     0.025 A 
ATOM     12  C14 <0> d           5.425   8.268   1.259  0.00  0.00     0.002 A 
ATOM     13  C15 <0> d           6.510   7.410   1.207  0.00  0.00     0.001 A 
ATOM     14  C16 <0> d           6.345   6.108   0.790  0.00  0.00     0.017 A 
ATOM     15  C17 <0> d           5.076   5.645   0.416  0.00  0.00     0.037 A 
ATOM     16  C18 <0> d           4.924   4.254  -0.031  0.00  0.00     0.195 C 
ATOM     17  O4  <0> d           5.910   3.669  -0.435  0.00  0.00    -0.287 OA
ENDROOT
BRANCH   1  18
ATOM     18  C5  <0> d          -0.016   1.344   0.009  0.00  0.00     0.257 C 
ATOM     19  N3  <0> d           0.002  -0.004   0.002  0.00  0.00    -0.300 N 
ATOM     20  H6  <0> d           0.849  -0.478  -0.009  0.00  0.00     0.171 HD
ATOM     21  O1  <0> d          -1.077   1.937   0.018  0.00  0.00    -0.267 OA
BRANCH  19  22
ATOM     22  C4  <0> d          -1.192  -0.715   0.010  0.00  0.00     0.196 A 
ATOM     23  N2  <0> d          -2.444  -0.280   0.024  0.00  0.00    -0.123 NA
ATOM     24  N1  <0> d          -3.424  -1.073   0.029  0.00  0.00    -0.145 NA
ATOM     25  C3  <0> d          -3.268  -2.382   0.021  0.00  0.00     0.100 A 
ATOM     26  S1  <0> d          -1.480  -2.482  -0.004  0.00  0.00    -0.033 SA
BRANCH  25  27
ATOM     27  C2  <0> d          -4.299  -3.481   0.024  0.00  0.00     0.064 C 
ATOM     28  C1  <0> d          -4.661  -3.845  -1.417  0.00  0.00     0.012 C 
ENDBRANCH  25  27
ENDBRANCH  19  22
ENDBRANCH   1  18
TORSDOF 3
