REMARK  2 active torsions:
REMARK  status: ('A' for Active; 'I' for Inactive)
REMARK    1  A    between atoms: C11_13  and  O2_16 
REMARK    2  A    between atoms: C12_14  and  O1_15 
ROOT
ATOM      1  C1  <0> d          -0.018   1.503   0.010  0.00  0.00     0.049 C 
ATOM      2  C2  <0> d           0.002  -0.004   0.002  0.00  0.00    -0.054 A 
ATOM      3  C3  <0> d           0.006  -0.685  -1.206  0.00  0.00     0.010 A 
ATOM      4  C4  <0> d           0.025  -2.064  -1.232  0.00  0.00     0.034 A 
ATOM      5  C5  <0> d           0.041  -2.783  -0.036  0.00  0.00     0.087 A 
ATOM      6  C6  <0> d           0.037  -2.091   1.193  0.00  0.00     0.092 A 
ATOM      7  C7  <0> d           0.023  -0.694   1.196  0.00  0.00    -0.025 A 
ATOM      8  C8  <0> d           0.025   0.058   2.502  0.00  0.00     0.051 C 
ATOM      9  N1  <0> d           0.052  -2.778   2.367  0.00  0.00    -0.241 NA
ATOM     10  C9  <0> d           0.070  -4.090   2.357  0.00  0.00     0.125 A 
ATOM     11  C10 <0> d           0.074  -4.808   1.073  0.00  0.00     0.125 A 
ATOM     12  N2  <0> d           0.059  -4.144  -0.053  0.00  0.00    -0.241 NA
ATOM     13  C11 <0> d           0.095  -6.050   1.886  0.00  0.00     0.133 A 
ATOM     14  C12 <0> d           0.091  -5.394   3.077  0.00  0.00     0.133 A 
ENDROOT
BRANCH  13  15
ATOM     15  O2  <0> d           0.112  -7.366   1.559  0.00  0.00    -0.356 OA
ATOM     16  H10 <0> d           0.123  -7.960   2.322  0.00  0.00     0.218 HD
ENDBRANCH  13  15
BRANCH  14  17
ATOM     17  O1  <0> d           0.102  -5.770   4.379  0.00  0.00    -0.356 OA
ATOM     18  H9  <0> d           0.116  -6.727   4.512  0.00  0.00     0.218 HD
ENDBRANCH  14  17
TORSDOF 2
