REMARK  5 active torsions:
REMARK  status: ('A' for Active; 'I' for Inactive)
REMARK    1  A    between atoms: C5_5  and  C7_7 
REMARK    2  A    between atoms: C7_7  and  C8_8 
REMARK    3  A    between atoms: C7_7  and  N2_19 
REMARK    4  A    between atoms: C16_17  and  O1_18 
REMARK    5  A    between atoms: N2_19  and  C17_20 
ROOT
ATOM      1  C7  <0> d          -2.558   3.860   0.045  0.00  0.00     0.154 C 
ENDROOT
BRANCH   1   2
ATOM      2  C5  <0> d          -1.276   3.081   0.189  0.00  0.00    -0.009 A 
ATOM      3  C4  <0> d          -0.072   3.748   0.329  0.00  0.00     0.042 A 
ATOM      4  C3  <0> d           1.104   3.032   0.461  0.00  0.00     0.024 A 
ATOM      5 Cl1  <0> d          -0.038   5.484   0.338  0.00  0.00    -0.084 Cl
ATOM      6  C2  <0> d           1.076   1.651   0.453  0.00  0.00     0.002 A 
ATOM      7  C1  <0> d          -0.127   0.984   0.314  0.00  0.00     0.001 A 
ATOM      8  C6  <0> d          -1.302   1.699   0.177  0.00  0.00     0.011 A 
ENDBRANCH   1   2
BRANCH   1   9
ATOM      9  C8  <0> d          -2.756   4.240  -1.399  0.00  0.00     0.005 A 
ATOM     10  C16 <0> d          -3.653   5.219  -1.720  0.00  0.00     0.103 A 
ATOM     11  C15 <0> d          -3.837   5.580  -3.072  0.00  0.00     0.100 A 
ATOM     12  C11 <0> d          -3.090   4.909  -4.071  0.00  0.00    -0.004 A 
ATOM     13  N1  <0> d          -4.703   6.537  -3.418  0.00  0.00    -0.257 NA
ATOM     14  C10 <0> d          -2.180   3.905  -3.701  0.00  0.00     0.014 A 
ATOM     15  C12 <0> d          -3.278   5.268  -5.419  0.00  0.00     0.015 A 
ATOM     16  C9  <0> d          -2.025   3.585  -2.387  0.00  0.00     0.013 A 
ATOM     17  C13 <0> d          -4.179   6.253  -5.704  0.00  0.00     0.020 A 
ATOM     18  C14 <0> d          -4.881   6.873  -4.672  0.00  0.00     0.117 A 
BRANCH  10  19
ATOM     19  O1  <0> d          -4.361   5.843  -0.744  0.00  0.00    -0.358 OA
ATOM     20  H11 <0> d          -3.897   6.588  -0.337  0.00  0.00     0.217 HD
ENDBRANCH  10  19
ENDBRANCH   1   9
BRANCH   1  21
ATOM     21  N2  <0> d          -3.683   3.035   0.492  0.00  0.00    -0.363 N 
ATOM     22  H12 <0> d          -4.208   2.540  -0.156  0.00  0.00     0.162 HD
BRANCH  21  23
ATOM     23  C17 <0> d          -3.999   2.963   1.844  0.00  0.00     0.101 A 
ATOM     24  C18 <0> d          -3.242   3.677   2.768  0.00  0.00     0.048 A 
ATOM     25  C19 <0> d          -3.567   3.596   4.109  0.00  0.00     0.005 A 
ATOM     26  C20 <0> d          -4.643   2.802   4.484  0.00  0.00     0.017 A 
ATOM     27  C21 <0> d          -5.351   2.121   3.514  0.00  0.00     0.089 A 
ATOM     28  N3  <0> d          -5.063   2.181   2.186  0.00  0.00    -0.353 N 
ATOM     29  H17 <0> d          -5.612   1.670   1.485  0.00  0.00     0.166 HD
ENDBRANCH  21  23
ENDBRANCH   1  21
TORSDOF 5
