REMARK  7 active torsions:
REMARK  status: ('A' for Active; 'I' for Inactive)
REMARK    1  A    between atoms: S1_2  and  C2_4 
REMARK    2  A    between atoms: C2_4  and  C3_5 
REMARK    3  A    between atoms: C7_9  and  C9_11 
REMARK       I    between atoms: C9_11  and  N1_13 
REMARK    4  A    between atoms: N1_13  and  C10_14 
REMARK    5  A    between atoms: C15_19  and  C16_20 
REMARK       I    between atoms: C16_20  and  N2_22 
REMARK    6  A    between atoms: N2_22  and  C17_23 
REMARK    7  A    between atoms: C17_23  and  C18_24 
ROOT
ATOM      1  C9  <0> d          -4.740   3.617   0.438  0.00  0.00     0.256 C 
ATOM      2  O2  <0> d          -5.780   3.017   0.629  0.00  0.00    -0.267 OA
ATOM      3  N1  <0> d          -3.598   2.933   0.227  0.00  0.00    -0.322 N 
ATOM      4  H10 <0> d          -2.642   3.472   0.142  0.00  0.00     0.169 HD
ENDROOT
BRANCH   3   5
ATOM      5  C10 <0> d          -3.627   1.546   0.115  0.00  0.00     0.050 A 
ATOM      6  C15 <0> d          -2.874   0.903  -0.879  0.00  0.00     0.058 A 
ATOM      7  C14 <0> d          -2.908  -0.490  -0.977  0.00  0.00     0.019 A 
ATOM      8  C13 <0> d          -3.681  -1.222  -0.102  0.00  0.00     0.001 A 
ATOM      9  C12 <0> d          -4.427  -0.583   0.875  0.00  0.00     0.002 A 
ATOM     10  C11 <0> d          -4.404   0.792   0.985  0.00  0.00     0.030 A 
BRANCH   6  11
ATOM     11  C16 <0> d          -2.048   1.693  -1.812  0.00  0.00     0.254 C 
ATOM     12  O3  <0> d          -2.045   2.907  -1.743  0.00  0.00    -0.268 OA
ATOM     13  N2  <0> d          -1.295   1.069  -2.739  0.00  0.00    -0.353 N 
ATOM     14  H15 <0> d          -1.294  -0.030  -2.798  0.00  0.00     0.163 HD
BRANCH  13  15
ATOM     15  C17 <0> d          -0.479   1.853  -3.669  0.00  0.00     0.149 C 
BRANCH  15  16
ATOM     16  C18 <0> d           0.254   0.923  -4.601  0.00  0.00    -0.018 C 
ATOM     17  C19 <0> d           0.133   1.065  -5.898  0.00  0.00     0.008 C 
ENDBRANCH  15  16
ENDBRANCH  13  15
ENDBRANCH   6  11
ENDBRANCH   3   5
BRANCH   1  18
ATOM     18  C7  <0> d          -4.728   5.095   0.437  0.00  0.00     0.032 A 
ATOM     19  C6  <0> d          -3.534   5.786   0.224  0.00  0.00     0.017 A 
ATOM     20  C5  <0> d          -3.531   7.166   0.220  0.00  0.00     0.002 A 
ATOM     21  C4  <0> d          -4.706   7.864   0.437  0.00  0.00     0.008 A 
ATOM     22  C3  <0> d          -5.891   7.185   0.655  0.00  0.00    -0.046 A 
ATOM     23  C8  <0> d          -5.910   5.806   0.656  0.00  0.00     0.025 A 
BRANCH  22  24
ATOM     24  C2  <0> d          -7.166   7.954   0.891  0.00  0.00     0.146 C 
BRANCH  24  25
ATOM     25  S1  <0> d          -7.367   8.260   2.668  0.00  0.00     0.015 S 
ATOM     26  C1  <0> d          -8.925   9.181   2.781  0.00  0.00     0.127 C 
ATOM     27  O1  <0> d          -7.499   7.020   3.350  0.00  0.00    -0.258 OA
ENDBRANCH  24  25
ENDBRANCH  22  24
ENDBRANCH   1  18
TORSDOF 7
