REMARK  5 active torsions:
REMARK  status: ('A' for Active; 'I' for Inactive)
REMARK    1  A    between atoms: C2_2  and  C3_3 
REMARK    2  A    between atoms: C3_3  and  C5_5 
REMARK       I    between atoms: C5_5  and  N1_7 
REMARK    3  A    between atoms: C7_9  and  C14_17 
REMARK       I    between atoms: C14_17  and  N3_19 
REMARK    4  A    between atoms: N3_19  and  C15_20 
REMARK    5  A    between atoms: C15_20  and  C17_22 
ROOT
ATOM      1  C5  <0> d          -1.554  -1.766   0.030  0.00  0.00     0.223 C 
ATOM      2  O1  <0> d          -0.449  -2.264  -0.020  0.00  0.00    -0.273 OA
ATOM      3  N1  <0> d          -2.649  -2.549  -0.037  0.00  0.00    -0.350 N 
ATOM      4  C6  <0> d          -4.069  -2.128   0.001  0.00  0.00     0.140 C 
ATOM      5  C7  <0> d          -4.774  -3.040  -1.029  0.00  0.00     0.106 C 
ATOM      6  C8  <0> d          -3.875  -4.283  -1.132  0.00  0.00    -0.007 C 
ATOM      7  C9  <0> d          -2.705  -4.024  -0.172  0.00  0.00     0.136 C 
ATOM      8  C10 <0> d          -3.354  -4.442  -2.558  0.00  0.00     0.039 C 
ATOM      9  C11 <0> d          -2.509  -5.715  -2.649  0.00  0.00     0.233 C 
ATOM     10  N2  <0> d          -3.327  -6.875  -2.273  0.00  0.00    -0.075 N 
ATOM     11  C12 <0> d          -3.747  -6.759  -0.871  0.00  0.00     0.233 C 
ATOM     12  C13 <0> d          -4.644  -5.529  -0.705  0.00  0.00     0.039 C 
ATOM     13  H20 <0> d          -4.143  -6.915  -2.865  0.00  0.00     0.277 HD
ATOM     14  H38 <0> d          -2.787  -7.719  -2.392  0.00  0.00     0.277 HD
ENDROOT
BRANCH   5  15
ATOM     15  C14 <0> d          -4.871  -2.347  -2.364  0.00  0.00     0.224 C 
ATOM     16  O2  <0> d          -4.021  -1.548  -2.695  0.00  0.00    -0.273 OA
ATOM     17  N3  <0> d          -5.902  -2.615  -3.189  0.00  0.00    -0.356 N 
ATOM     18  H25 <0> d          -6.582  -3.254  -2.924  0.00  0.00     0.162 HD
BRANCH  17  19
ATOM     19  C15 <0> d          -5.996  -1.942  -4.487  0.00  0.00     0.087 C 
ATOM     20  C16 <0> d          -5.162  -2.704  -5.519  0.00  0.00     0.033 C 
BRANCH  19  21
ATOM     21  C17 <0> d          -7.457  -1.905  -4.938  0.00  0.00    -0.031 C 
ATOM     22  C18 <0> d          -8.291  -1.143  -3.906  0.00  0.00     0.016 C 
ATOM     23  C19 <0> d          -7.556  -1.202  -6.293  0.00  0.00     0.016 C 
ATOM     24  C20 <0> d          -7.987  -3.335  -5.066  0.00  0.00     0.016 C 
ENDBRANCH  19  21
ENDBRANCH  17  19
ENDBRANCH   5  15
BRANCH   1  25
ATOM     25  C3  <0> d          -1.702  -0.273   0.168  0.00  0.00     0.073 C 
ATOM     26  C4  <0> d          -2.465   0.048   1.455  0.00  0.00     0.020 C 
BRANCH  25  27
ATOM     27  C2  <0> d          -0.317   0.375   0.222  0.00  0.00     0.009 C 
ATOM     28  C1  <0> d          -0.466   1.897   0.236  0.00  0.00     0.006 C 
ENDBRANCH  25  27
ENDBRANCH   1  25
TORSDOF 5
