REMARK  4 active torsions:
REMARK  status: ('A' for Active; 'I' for Inactive)
REMARK    1  A    between atoms: C3_3  and  N3_9 
REMARK       I    between atoms: N3_9  and  C7_10 
REMARK    2  A    between atoms: C7_10  and  C8_12 
REMARK    3  A    between atoms: C10_15  and  C12_19 
REMARK    4  A    between atoms: C12_19  and  C13_20 
ROOT
ATOM      1  C8  <0> d           0.959   4.388  -1.825  0.00  0.00     0.186 C 
ATOM      2  C9  <0> d           1.041   3.271  -0.784  0.00  0.00     0.109 C 
ATOM      3  S1  <0> d           0.147   1.824  -1.434  0.00  0.00    -0.152 SA
ATOM      4  C10 <0> d          -1.536   2.482  -1.647  0.00  0.00     0.143 C 
ATOM      5  C11 <0> d          -1.450   3.850  -2.261  0.00  0.00     0.232 C 
ATOM      6  O2  <0> d          -2.447   4.268  -2.809  0.00  0.00    -0.272 OA
ATOM      7  N4  <0> d          -0.396   4.640  -2.261  0.00  0.00    -0.346 N 
ATOM      8  H15 <0> d          -0.667   5.624  -2.670  0.00  0.00     0.163 HD
ENDROOT
BRANCH   1   9
ATOM      9  C7  <0> d           1.790   4.000  -3.021  0.00  0.00     0.245 C 
ATOM     10  N3  <0> d           3.128   4.161  -2.993  0.00  0.00    -0.322 N 
ATOM     11  H12 <0> d           3.605   4.651  -2.131  0.00  0.00     0.169 HD
ATOM     12  O1  <0> d           1.254   3.544  -4.009  0.00  0.00    -0.271 OA
BRANCH  10  13
ATOM     13  C3  <0> d           3.914   3.701  -4.066  0.00  0.00     0.085 A 
ATOM     14  C2  <0> d           3.986   2.380  -4.531  0.00  0.00     0.079 A 
ATOM     15  C1  <0> d           3.230   1.204  -3.967  0.00  0.00     0.075 C 
ATOM     16  N2  <0> d           4.816   2.344  -5.541  0.00  0.00    -0.175 NA
ATOM     17  N1  <0> d           5.313   3.636  -5.751  0.00  0.00    -0.276 N 
ATOM     18  C4  <0> d           4.744   4.456  -4.830  0.00  0.00     0.055 A 
ATOM     19  C5  <0> d           6.277   4.033  -6.780  0.00  0.00     0.179 C 
ATOM     20  C6  <0> d           4.989   5.936  -4.683  0.00  0.00     0.072 C 
ENDBRANCH  10  13
ENDBRANCH   1   9
BRANCH   4  21
ATOM     21  C12 <0> d          -2.335   1.557  -2.567  0.00  0.00     0.063 C 
BRANCH  21  22
ATOM     22  C13 <0> d          -2.513   0.217  -1.901  0.00  0.00    -0.056 A 
ATOM     23  C18 <0> d          -3.614  -0.014  -1.096  0.00  0.00     0.010 A 
ATOM     24  C17 <0> d          -3.778  -1.242  -0.484  0.00  0.00     0.043 A 
ATOM     25  C16 <0> d          -2.840  -2.242  -0.677  0.00  0.00     0.116 A 
ATOM     26  C15 <0> d          -1.738  -2.010  -1.484  0.00  0.00     0.043 A 
ATOM     27  F1  <0> d          -2.999  -3.443  -0.080  0.00  0.00    -0.206 F 
ATOM     28  C14 <0> d          -1.579  -0.783  -2.099  0.00  0.00     0.010 A 
ENDBRANCH  21  22
ENDBRANCH   4  21
TORSDOF 4
