REMARK  6 active torsions:
REMARK  status: ('A' for Active; 'I' for Inactive)
REMARK    1  A    between atoms: C2_2  and  O1_3 
REMARK    2  A    between atoms: O1_3  and  C3_4 
REMARK    3  A    between atoms: C8_9  and  N1_10 
REMARK       I    between atoms: N1_10  and  C9_11 
REMARK    4  A    between atoms: C9_11  and  C10_13 
REMARK    5  A    between atoms: C10_13  and  S1_14 
REMARK    6  A    between atoms: S1_14  and  C11_15 
ROOT
ATOM      1  C3  <0> d          -1.500  -1.858  -0.006  0.00  0.00     0.096 A 
ATOM      2  C4  <0> d          -0.395  -2.695  -0.025  0.00  0.00     0.049 A 
ATOM      3  C5  <0> d          -0.566  -4.062  -0.038  0.00  0.00    -0.019 A 
ATOM      4  C6  <0> d          -1.836  -4.623  -0.025  0.00  0.00     0.078 A 
ATOM      5  C7  <0> d          -2.946  -3.783  -0.010  0.00  0.00     0.069 A 
ATOM      6  C8  <0> d          -2.779  -2.408   0.006  0.00  0.00     0.071 A 
ATOM      7  O5  <0> d          -1.774  -5.984  -0.018  0.00  0.00    -0.345 OA
ATOM      8  C15 <0> d          -0.475  -6.401  -0.472  0.00  0.00     0.129 C 
ATOM      9  C16 <0> d           0.426  -5.209  -0.071  0.00  0.00     0.073 C 
ATOM     10  C17 <0> d          -0.037  -7.681   0.240  0.00  0.00     0.040 C 
ENDROOT
BRANCH   6  11
ATOM     11  N1  <0> d          -3.901  -1.568   0.027  0.00  0.00    -0.324 N 
ATOM     12  C9  <0> d          -5.070  -2.018   0.523  0.00  0.00     0.231 C 
ATOM     13  O2  <0> d          -5.127  -3.112   1.043  0.00  0.00    -0.272 OA
ATOM     14  H10 <0> d          -3.835  -0.663  -0.316  0.00  0.00     0.169 HD
BRANCH  12  15
ATOM     15  C10 <0> d          -6.306  -1.161   0.433  0.00  0.00     0.177 C 
BRANCH  15  16
ATOM     16  S1  <0> d          -7.706  -2.038   1.184  0.00  0.00    -0.154 SA
BRANCH  16  17
ATOM     17  C11 <0> d          -9.096  -0.888   0.996  0.00  0.00     0.062 C 
ATOM     18  C14 <0> d         -10.407  -1.565   1.488  0.00  0.00     0.155 C 
ATOM     19  S2  <0> d         -11.465  -0.083   1.773  0.00  0.00     0.145 S 
ATOM     20  C13 <0> d         -10.155   1.195   1.956  0.00  0.00     0.141 C 
ATOM     21  O3  <0> d         -12.143  -0.231   3.013  0.00  0.00    -0.228 OA
ATOM     22  O4  <0> d         -12.212   0.186   0.595  0.00  0.00    -0.228 OA
ATOM     23  C12 <0> d          -8.853   0.365   1.855  0.00  0.00     0.031 C 
ENDBRANCH  16  17
ENDBRANCH  15  16
ENDBRANCH  12  15
ENDBRANCH   6  11
BRANCH   1  24
ATOM     24  O1  <0> d          -1.335  -0.507   0.007  0.00  0.00    -0.349 OA
BRANCH  24  25
ATOM     25  C2  <0> d           0.007  -0.017  -0.006  0.00  0.00     0.171 C 
ATOM     26  C1  <0> d          -0.008   1.513   0.012  0.00  0.00     0.034 C 
ENDBRANCH  24  25
ENDBRANCH   1  24
TORSDOF 6
