REMARK  5 active torsions:
REMARK  status: ('A' for Active; 'I' for Inactive)
REMARK    1  A    between atoms: C2_2  and  N1_3 
REMARK    2  A    between atoms: C3_4  and  C5_10 
REMARK    3  A    between atoms: N4_13  and  C10_16 
REMARK    4  A    between atoms: C10_16  and  C11_17 
REMARK    5  A    between atoms: C17_23  and  O3_27 
ROOT
ATOM      1  C5  <0> d           3.058  -0.548   0.163  0.00  0.00     0.060 C 
ATOM      2  C6  <0> d           3.532   0.908   0.139  0.00  0.00     0.040 C 
ATOM      3  C7  <0> d           4.604   1.072  -0.941  0.00  0.00     0.236 C 
ATOM      4  N4  <0> d           5.740   0.191  -0.645  0.00  0.00    -0.067 N 
ATOM      5  C8  <0> d           5.308  -1.211  -0.691  0.00  0.00     0.236 C 
ATOM      6  C9  <0> d           4.264  -1.463   0.398  0.00  0.00     0.040 C 
ATOM      7  H27 <0> d           6.098   0.402   0.275  0.00  0.00     0.280 HD
ENDROOT
BRANCH   4   8
ATOM      8  C10 <0> d           6.798   0.409  -1.640  0.00  0.00     0.271 C 
BRANCH   8   9
ATOM      9  C11 <0> d           8.012  -0.403  -1.268  0.00  0.00    -0.029 C 
ATOM     10  C19 <0> d           9.015   0.151  -0.291  0.00  0.00     0.211 C 
ATOM     11  O2  <0> d           9.634  -0.905   0.449  0.00  0.00    -0.343 OA
ATOM     12  C18 <0> d          10.085  -1.976  -0.255  0.00  0.00     0.112 A 
ATOM     13  C13 <0> d           9.379  -2.387  -1.392  0.00  0.00     0.000 A 
ATOM     14  C17 <0> d          11.211  -2.680   0.147  0.00  0.00     0.102 A 
ATOM     15  C12 <0> d           8.197  -1.604  -1.808  0.00  0.00     0.021 C 
ATOM     16  C14 <0> d           9.796  -3.507  -2.105  0.00  0.00     0.014 A 
ATOM     17  C15 <0> d          10.915  -4.203  -1.691  0.00  0.00     0.004 A 
ATOM     18  C16 <0> d          11.621  -3.792  -0.574  0.00  0.00     0.040 A 
BRANCH  14  19
ATOM     19  O3  <0> d          11.910  -2.282   1.244  0.00  0.00    -0.353 OA
ATOM     20  C20 <0> d          13.058  -3.055   1.598  0.00  0.00     0.210 C 
ENDBRANCH  14  19
ENDBRANCH   8   9
ENDBRANCH   4   8
BRANCH   1  21
ATOM     21  C3  <0> d           2.059  -0.734   1.276  0.00  0.00     0.135 A 
ATOM     22  N1  <0> d           0.711  -0.489   1.189  0.00  0.00    -0.285 N 
ATOM     23  C4  <0> d           0.151  -0.766   2.384  0.00  0.00     0.344 A 
ATOM     24  N3  <0> d           1.137  -1.188   3.203  0.00  0.00    -0.227 N 
ATOM     25  O1  <0> d          -1.028  -0.658   2.671  0.00  0.00    -0.245 OA
ATOM     26  H1  <0> d           1.039  -1.461   4.128  0.00  0.00     0.194 HD
ATOM     27  N2  <0> d           2.332  -1.152   2.470  0.00  0.00    -0.156 NA
BRANCH  22  28
ATOM     28  C2  <0> d           0.002  -0.004   0.002  0.00  0.00     0.131 C 
ATOM     29  C1  <0> d          -0.019   1.526   0.010  0.00  0.00     0.027 C 
ENDBRANCH  22  28
ENDBRANCH   1  21
TORSDOF 5
