REMARK  1 active torsions:
REMARK  status: ('A' for Active; 'I' for Inactive)
REMARK    1  A    between atoms: N1_11  and  N2_12 
ROOT
ATOM      1  C1  <0> d          -0.059   1.558   0.051  0.00  0.00     0.038 C 
ATOM      2  C2  <0> d          -0.008   0.029   0.011  0.00  0.00     0.028 C 
ATOM      3  C3  <0> d          -1.430  -0.530   0.029  0.00  0.00     0.069 C 
ATOM      4  C4  <0> d          -2.071  -0.331   1.376  0.00  0.00    -0.042 A 
ATOM      5  C5  <0> d          -3.450  -0.320   1.475  0.00  0.00     0.008 A 
ATOM      6  C6  <0> d          -4.059  -0.145   2.704  0.00  0.00     0.001 A 
ATOM      7  C7  <0> d          -3.298   0.022   3.848  0.00  0.00     0.001 A 
ATOM      8  C8  <0> d          -1.921   0.017   3.765  0.00  0.00     0.016 A 
ATOM      9  C9  <0> d          -1.302  -0.157   2.527  0.00  0.00     0.015 A 
ATOM     10  C10 <0> d           0.176  -0.144   2.428  0.00  0.00     0.129 C 
ATOM     11  N1  <0> d           0.935   0.160   3.457  0.00  0.00    -0.262 N 
ATOM     12  N3  <0> d           0.718  -0.471   1.190  0.00  0.00    -0.366 N 
ATOM     13  C17 <0> d           0.707  -0.425  -1.263  0.00  0.00     0.038 C 
ATOM     14  H20 <0> d           1.528  -0.999   1.108  0.00  0.00     0.162 HD
ATOM     15  H24 <0> d           1.898   0.051   3.399  0.00  0.00     0.191 HD
ENDROOT
BRANCH  11  16
ATOM     16  N2  <0> d           0.355   0.642   4.638  0.00  0.00    -0.182 NA
ATOM     17  C11 <0> d           1.107   1.039   5.614  0.00  0.00     0.032 C 
ATOM     18  C16 <0> d           0.507   1.435   6.944  0.00  0.00     0.056 C 
ATOM     19  C12 <0> d           2.609   1.125   5.450  0.00  0.00     0.056 C 
ATOM     20  C15 <0> d           1.043   2.812   7.335  0.00  0.00     0.006 C 
ATOM     21  C14 <0> d           2.572   2.789   7.315  0.00  0.00     0.001 C 
ATOM     22  C13 <0> d           3.068   2.518   5.893  0.00  0.00     0.006 C 
ENDBRANCH  11  16
TORSDOF 1
