REMARK  5 active torsions:
REMARK  status: ('A' for Active; 'I' for Inactive)
REMARK    1  A    between atoms: C2_2  and  C3_3 
REMARK    2  A    between atoms: C3_3  and  N1_4 
REMARK       I    between atoms: N1_4  and  C4_5 
REMARK    3  A    between atoms: C4_5  and  C5_7 
REMARK    4  A    between atoms: C5_7  and  N2_9 
REMARK    5  A    between atoms: N2_9  and  C7_10 
ROOT
ATOM      1  N2  <0> d          -3.925  -4.702   0.014  0.00  0.00    -0.356 N 
ATOM      2  H13 <0> d          -4.647  -4.154  -0.331  0.00  0.00     0.162 HD
ENDROOT
BRANCH   1   3
ATOM      3  C5  <0> d          -2.551  -4.195   0.004  0.00  0.00     0.171 C 
ATOM      4  C6  <0> d          -1.835  -4.688  -1.255  0.00  0.00     0.042 C 
BRANCH   3   5
ATOM      5  C4  <0> d          -2.571  -2.688   0.012  0.00  0.00     0.240 C 
ATOM      6  N1  <0> d          -1.413  -1.998   0.005  0.00  0.00    -0.359 N 
ATOM      7  H9  <0> d          -0.567  -2.472  -0.006  0.00  0.00     0.162 HD
ATOM      8  O1  <0> d          -3.630  -2.096   0.025  0.00  0.00    -0.271 OA
BRANCH   6   9
ATOM      9  C3  <0> d          -1.433  -0.534   0.013  0.00  0.00     0.122 C 
BRANCH   9  10
ATOM     10  C2  <0> d           0.002  -0.004   0.002  0.00  0.00     0.015 C 
ATOM     11  C1  <0> d          -0.019   1.526   0.010  0.00  0.00     0.006 C 
ENDBRANCH   9  10
ENDBRANCH   6   9
ENDBRANCH   3   5
ENDBRANCH   1   3
BRANCH   1  12
ATOM     12  C7  <0> d          -4.196  -5.974   0.521  0.00  0.00     0.213 A 
ATOM     13  N5  <0> d          -3.231  -6.722   0.989  0.00  0.00    -0.145 NA
ATOM     14  N4  <0> d          -3.520  -7.993   1.497  0.00  0.00    -0.222 N 
ATOM     15  C9  <0> d          -4.779  -8.466   1.504  0.00  0.00     0.347 A 
ATOM     16  C10 <0> d          -2.434  -8.823   2.026  0.00  0.00     0.185 C 
ATOM     17  N3  <0> d          -5.800  -7.731   1.027  0.00  0.00    -0.266 N 
ATOM     18  O3  <0> d          -4.998  -9.576   1.950  0.00  0.00    -0.245 OA
ATOM     19  C8  <0> d          -5.572  -6.497   0.531  0.00  0.00     0.298 A 
ATOM     20  C11 <0> d          -7.162  -8.271   1.047  0.00  0.00     0.165 C 
ATOM     21  O2  <0> d          -6.490  -5.827   0.098  0.00  0.00    -0.264 OA
ENDBRANCH   1  12
TORSDOF 5
