REMARK  4 active torsions:
REMARK  status: ('A' for Active; 'I' for Inactive)
REMARK    1  A    between atoms: C2_2  and  C3_3 
REMARK    2  A    between atoms: N1_6  and  C13_17 
REMARK    3  A    between atoms: C7_9  and  C11_14 
REMARK    4  A    between atoms: C11_14  and  N2_16 
ROOT
ATOM      1  C3  <0> d           3.661  -1.905   0.505  0.00  0.00     0.221 C 
ATOM      2  C4  <0> d           2.438  -2.704   0.133  0.00  0.00     0.254 C 
ATOM      3  O1  <0> d           2.520  -3.902  -0.035  0.00  0.00    -0.270 OA
ATOM      4  N1  <0> d           1.250  -2.079  -0.011  0.00  0.00    -0.309 N 
ATOM      5  C5  <0> d           1.199  -0.680   0.068  0.00  0.00     0.071 A 
ATOM      6  C6  <0> d          -0.016  -0.022   0.156  0.00  0.00     0.041 A 
ATOM      7  C7  <0> d          -0.048   1.358   0.239  0.00  0.00    -0.026 A 
ATOM      8  C8  <0> d           1.130   2.082   0.230  0.00  0.00     0.012 A 
ATOM      9  C9  <0> d           2.346   1.431   0.132  0.00  0.00     0.040 A 
ATOM     10  C10 <0> d           2.386   0.050   0.045  0.00  0.00     0.097 A 
ATOM     11  O2  <0> d           3.575  -0.599  -0.071  0.00  0.00    -0.334 OA
ENDROOT
BRANCH   7  12
ATOM     12  C11 <0> d          -1.370   2.075   0.333  0.00  0.00     0.212 C 
ATOM     13  C12 <0> d          -1.753   2.621  -1.044  0.00  0.00     0.045 C 
BRANCH  12  14
ATOM     14  N2  <0> d          -1.257   3.187   1.287  0.00  0.00    -0.071 N 
ATOM     15  H14 <0> d          -2.222   3.710   1.356  0.00  0.00     0.275 HD
ATOM     16  H15 <0> d          -0.483   3.888   0.943  0.00  0.00     0.275 HD
ATOM     17  H23 <0> d          -0.982   2.794   2.277  0.00  0.00     0.275 HD
ENDBRANCH  12  14
ENDBRANCH   7  12
BRANCH   4  18
ATOM     18  C13 <0> d           0.029  -2.853  -0.248  0.00  0.00     0.085 C 
ATOM     19  C14 <0> d           0.164  -3.632  -1.558  0.00  0.00     0.032 C 
ATOM     20  C15 <0> d          -0.185  -3.833   0.908  0.00  0.00     0.032 C 
ENDBRANCH   4  18
BRANCH   1  21
ATOM     21  C2  <0> d           3.747  -1.785   2.028  0.00  0.00     0.038 C 
ATOM     22  C1  <0> d           5.052  -1.083   2.411  0.00  0.00     0.008 C 
ENDBRANCH   1  21
TORSDOF 4
