REMARK  6 active torsions:
REMARK  status: ('A' for Active; 'I' for Inactive)
REMARK    1  A    between atoms: C2_2  and  N1_3 
REMARK    2  A    between atoms: N2_6  and  C7_9 
REMARK    3  A    between atoms: C12_14  and  N3_15 
REMARK       I    between atoms: N3_15  and  C13_16 
REMARK    4  A    between atoms: C13_16  and  C14_18 
REMARK    5  A    between atoms: C16_20  and  C19_25 
REMARK    6  A    between atoms: C19_25  and  O3_27 
ROOT
ATOM      1  N3  <0> d          -6.241  -2.492  -0.204  0.00  0.00    -0.320 N 
ATOM      2  C13 <0> d          -7.535  -2.116  -0.219  0.00  0.00     0.273 C 
ATOM      3  O1  <0> d          -8.237  -2.387  -1.176  0.00  0.00    -0.266 OA
ATOM      4  H19 <0> d          -5.699  -2.334   0.585  0.00  0.00     0.169 HD
ENDROOT
BRANCH   1   5
ATOM      5  C12 <0> d          -5.679  -3.111  -1.328  0.00  0.00     0.061 A 
ATOM      6  C7  <0> d          -4.348  -2.869  -1.667  0.00  0.00     0.057 A 
ATOM      7  C8  <0> d          -3.796  -3.490  -2.778  0.00  0.00     0.031 A 
ATOM      8  C9  <0> d          -4.566  -4.342  -3.547  0.00  0.00     0.002 A 
ATOM      9  C10 <0> d          -5.887  -4.578  -3.213  0.00  0.00     0.002 A 
ATOM     10  C11 <0> d          -6.446  -3.963  -2.109  0.00  0.00     0.032 A 
BRANCH   6  11
ATOM     11  N2  <0> d          -3.571  -2.006  -0.887  0.00  0.00    -0.376 N 
ATOM     12  C4  <0> d          -3.512  -0.566  -1.183  0.00  0.00     0.150 C 
ATOM     13  C3  <0> d          -2.040  -0.143  -1.245  0.00  0.00     0.254 C 
ATOM     14  N1  <0> d          -1.367  -0.534  -0.001  0.00  0.00    -0.068 N 
ATOM     15  C6  <0> d          -1.353  -1.998   0.122  0.00  0.00     0.254 C 
ATOM     16  H29 <0> d          -1.860  -0.137   0.785  0.00  0.00     0.280 HD
ATOM     17  C5  <0> d          -2.790  -2.512   0.251  0.00  0.00     0.150 C 
BRANCH  14  18
ATOM     18  C2  <0> d           0.014  -0.033  -0.014  0.00  0.00     0.230 C 
ATOM     19  C1  <0> d           0.001   1.497  -0.016  0.00  0.00     0.034 C 
ENDBRANCH  14  18
ENDBRANCH   6  11
ENDBRANCH   1   5
BRANCH   2  20
ATOM     20  C14 <0> d          -8.099  -1.380   0.919  0.00  0.00     0.108 A 
ATOM     21  N4  <0> d          -7.418  -1.012   2.059  0.00  0.00    -0.354 N 
ATOM     22  C17 <0> d          -8.251  -0.351   2.878  0.00  0.00     0.022 A 
ATOM     23  H1  <0> d          -6.483  -1.199   2.240  0.00  0.00     0.166 HD
ATOM     24  C16 <0> d          -9.495  -0.290   2.279  0.00  0.00     0.070 A 
ATOM     25  C18 <0> d          -7.892   0.223   4.225  0.00  0.00     0.069 C 
ATOM     26  C15 <0> d          -9.387  -0.948   1.032  0.00  0.00    -0.011 A 
ATOM     27  C21 <0> d         -10.488  -1.137   0.020  0.00  0.00     0.052 C 
BRANCH  24  28
ATOM     28  C19 <0> d         -10.704   0.341   2.833  0.00  0.00     0.295 C 
ATOM     29  O2  <0> d         -11.468  -0.308   3.520  0.00  0.00    -0.259 OA
BRANCH  28  30
ATOM     30  O3  <0> d         -10.964   1.639   2.580  0.00  0.00    -0.322 OA
ATOM     31  C20 <0> d         -12.155   2.186   3.150  0.00  0.00     0.213 C 
ENDBRANCH  28  30
ENDBRANCH  24  28
ENDBRANCH   2  20
TORSDOF 6
