REMARK  4 active torsions:
REMARK  status: ('A' for Active; 'I' for Inactive)
REMARK    1  A    between atoms: C8_10  and  C10_15 
REMARK    2  A    between atoms: C14_19  and  O1_21 
REMARK    3  A    between atoms: O1_21  and  C16_22 
REMARK    4  A    between atoms: C16_22  and  C17_23 
ROOT
ATOM      1  C17 <0> d           6.754   4.691  -4.629  0.00  0.00    -0.033 A 
ATOM      2  C18 <0> d           5.698   5.521  -4.961  0.00  0.00     0.009 A 
ATOM      3  C19 <0> d           5.884   6.890  -5.039  0.00  0.00     0.002 A 
ATOM      4  C20 <0> d           7.125   7.437  -4.786  0.00  0.00     0.022 A 
ATOM      5  C21 <0> d           8.195   6.605  -4.450  0.00  0.00     0.045 A 
ATOM      6  C22 <0> d           7.999   5.225  -4.368  0.00  0.00     0.032 A 
ATOM      7  C23 <0> d           9.486   7.165  -4.185  0.00  0.00     0.099 C 
ATOM      8  N6  <0> d          10.510   7.610  -3.975  0.00  0.00    -0.191 NA
ENDROOT
BRANCH   1   9
ATOM      9  C16 <0> d           6.543   3.202  -4.547  0.00  0.00     0.214 C 
BRANCH   9  10
ATOM     10  O1  <0> d           6.152   2.849  -3.218  0.00  0.00    -0.347 OA
BRANCH  10  11
ATOM     11  C14 <0> d           5.919   1.533  -2.972  0.00  0.00     0.069 A 
ATOM     12  C13 <0> d           6.065   0.600  -3.989  0.00  0.00     0.037 A 
ATOM     13  C12 <0> d           5.828  -0.738  -3.736  0.00  0.00     0.003 A 
ATOM     14  C11 <0> d           5.447  -1.147  -2.472  0.00  0.00     0.011 A 
ATOM     15  C10 <0> d           5.301  -0.219  -1.457  0.00  0.00    -0.012 A 
ATOM     16  C15 <0> d           5.531   1.120  -1.706  0.00  0.00     0.047 A 
BRANCH  15  17
ATOM     17  C8  <0> d           4.886  -0.668  -0.080  0.00  0.00     0.259 C 
ATOM     18  N2  <0> d           3.436  -0.883  -0.043  0.00  0.00    -0.152 N 
ATOM     19  C4  <0> d           2.424   0.050  -0.023  0.00  0.00     0.083 A 
ATOM     20  C7  <0> d           2.850  -2.125  -0.032  0.00  0.00     0.724 A 
ATOM     21  C3  <0> d           2.384   1.437  -0.015  0.00  0.00     0.033 A 
ATOM     22  C5  <0> d           1.223  -0.683  -0.013  0.00  0.00     0.103 A 
ATOM     23  C2  <0> d           1.170   2.091   0.002  0.00  0.00     0.002 A 
ATOM     24  C1  <0> d          -0.017   1.372   0.010  0.00  0.00     0.002 A 
ATOM     25  C6  <0> d           0.002  -0.004   0.002  0.00  0.00     0.034 A 
ATOM     26  N1  <0> d           1.555  -2.003  -0.020  0.00  0.00    -0.062 NA
ATOM     27  N4  <0> d           3.609  -3.293  -0.032  0.00  0.00    -0.021 N 
ATOM     28  C9  <0> d           4.974  -3.112  -0.261  0.00  0.00     0.688 C 
ATOM     29  H18 <0> d           3.218  -4.169   0.117  0.00  0.00     0.203 HD
ATOM     30  N3  <0> d           5.538  -1.950   0.247  0.00  0.00    -0.200 N 
ATOM     31  N5  <0> d           5.681  -3.988  -0.917  0.00  0.00    -0.234 N 
ATOM     32  H6  <0> d           6.335  -1.981   0.799  0.00  0.00     0.180 HD
ATOM     33  H7  <0> d           6.628  -3.836  -1.061  0.00  0.00     0.174 HD
ATOM     34  H19 <0> d           5.261  -4.791  -1.261  0.00  0.00     0.174 HD
ENDBRANCH  15  17
ENDBRANCH  10  11
ENDBRANCH   9  10
ENDBRANCH   1   9
TORSDOF 4
