REMARK  3 active torsions:
REMARK  status: ('A' for Active; 'I' for Inactive)
REMARK       I    between atoms: N1_2  and  C3_4 
REMARK    1  A    between atoms: C3_4  and  C4_6 
REMARK    2  A    between atoms: C4_6  and  N2_7 
REMARK       I    between atoms: N2_7  and  C5_8 
REMARK    3  A    between atoms: C5_8  and  C6_10 
ROOT
ATOM      1  C6  <0> d           0.023  -4.464  -4.199  0.00  0.00     0.146 A 
ATOM      2  C7  <0> d           0.032  -5.775  -4.582  0.00  0.00     0.063 A 
ATOM      3  C8  <0> d           0.020  -5.776  -5.979  0.00  0.00     0.077 A 
ATOM      4  C9  <0> d           0.031  -6.864  -6.968  0.00  0.00     0.200 C 
ATOM      5  O3  <0> d          -0.123  -8.036  -6.671  0.00  0.00    -0.286 OA
ATOM      6  C10 <0> d           0.248  -6.400  -8.363  0.00  0.00     0.049 A 
ATOM      7  C11 <0> d           0.485  -7.327  -9.378  0.00  0.00     0.018 A 
ATOM      8  C12 <0> d           0.689  -6.889 -10.668  0.00  0.00     0.001 A 
ATOM      9  C13 <0> d           0.657  -5.532 -10.953  0.00  0.00     0.003 A 
ATOM     10  C14 <0> d           0.423  -4.609  -9.959  0.00  0.00     0.038 A 
ATOM     11  C15 <0> d           0.212  -5.027  -8.645  0.00  0.00     0.092 A 
ATOM     12  O4  <0> d          -0.024  -4.090  -7.696  0.00  0.00    -0.286 OA
ATOM     13  C16 <0> d          -0.001  -4.436  -6.398  0.00  0.00     0.206 A 
ATOM     14  O5  <0> d           0.001  -3.679  -5.303  0.00  0.00    -0.281 OA
ENDROOT
BRANCH   1  15
ATOM     15  C5  <0> d           0.030  -3.983  -2.814  0.00  0.00     0.275 C 
ATOM     16  N2  <0> d           0.014  -2.659  -2.561  0.00  0.00    -0.346 N 
ATOM     17  H9  <0> d          -0.002  -2.025  -3.295  0.00  0.00     0.163 HD
ATOM     18  O2  <0> d           0.049  -4.779  -1.894  0.00  0.00    -0.265 OA
BRANCH  16  19
ATOM     19  C4  <0> d           0.021  -2.178  -1.177  0.00  0.00     0.225 C 
BRANCH  19  20
ATOM     20  C3  <0> d           0.000  -0.672  -1.169  0.00  0.00     0.236 C 
ATOM     21  N1  <0> d           0.002  -0.004   0.002  0.00  0.00    -0.359 N 
ATOM     22  C1  <0> d          -0.018   1.461   0.010  0.00  0.00     0.152 C 
ATOM     23  C2  <0> d           0.024  -0.743   1.267  0.00  0.00     0.152 C 
ATOM     24  O1  <0> d          -0.018  -0.060  -2.216  0.00  0.00    -0.272 OA
ENDBRANCH  19  20
ENDBRANCH  16  19
ENDBRANCH   1  15
TORSDOF 3
