REMARK  7 active torsions:
REMARK  status: ('A' for Active; 'I' for Inactive)
REMARK    1  A    between atoms: C7_7  and  N1_8 
REMARK    2  A    between atoms: N1_8  and  S1_9 
REMARK    3  A    between atoms: S1_9  and  C8_12 
REMARK    4  A    between atoms: C12_16  and  C14_18 
REMARK       I    between atoms: C14_18  and  N2_20 
REMARK    5  A    between atoms: N2_20  and  C15_21 
REMARK    6  A    between atoms: C15_21  and  C17_23 
REMARK    7  A    between atoms: C17_23  and  N3_24 
ROOT
ATOM      1  C8  <0> d           3.188  -0.972   3.758  0.00  0.00     0.080 A 
ATOM      2  C9  <0> d           3.953  -1.991   3.217  0.00  0.00     0.026 A 
ATOM      3  C10 <0> d           5.295  -1.790   2.949  0.00  0.00     0.009 A 
ATOM      4  C11 <0> d           5.880  -0.570   3.220  0.00  0.00    -0.046 A 
ATOM      5  C12 <0> d           5.115   0.462   3.766  0.00  0.00     0.039 A 
ATOM      6  C13 <0> d           3.760   0.254   4.028  0.00  0.00     0.042 A 
ATOM      7  C25 <0> d           7.343  -0.352   2.929  0.00  0.00     0.049 C 
ENDROOT
BRANCH   5   8
ATOM      8  C14 <0> d           5.735   1.771   4.059  0.00  0.00     0.252 C 
ATOM      9  O3  <0> d           6.927   1.933   3.882  0.00  0.00    -0.268 OA
ATOM     10  N2  <0> d           4.979   2.786   4.523  0.00  0.00    -0.351 N 
ATOM     11  H15 <0> d           4.029   2.658   4.665  0.00  0.00     0.163 HD
BRANCH  10  12
ATOM     12  C15 <0> d           5.594   4.084   4.814  0.00  0.00     0.106 C 
ATOM     13  C16 <0> d           5.582   4.948   3.551  0.00  0.00     0.034 C 
BRANCH  12  14
ATOM     14  C17 <0> d           4.804   4.786   5.920  0.00  0.00     0.259 C 
BRANCH  14  15
ATOM     15  N3  <0> d           4.735   3.915   7.101  0.00  0.00    -0.069 N 
ATOM     16  C22 <0> d           6.084   3.731   7.651  0.00  0.00     0.239 C 
ATOM     17  C21 <0> d           6.029   2.760   8.832  0.00  0.00     0.008 C 
ATOM     18  C20 <0> d           5.109   3.333   9.914  0.00  0.00     0.011 C 
ATOM     19  C23 <0> d           7.435   2.571   9.405  0.00  0.00     0.011 C 
ATOM     20  C19 <0> d           3.725   3.590   9.310  0.00  0.00     0.008 C 
ATOM     21  C18 <0> d           3.866   4.530   8.111  0.00  0.00     0.239 C 
ATOM     22  C24 <0> d           3.112   2.265   8.851  0.00  0.00     0.011 C 
ATOM     23  H36 <0> d           4.357   3.019   6.835  0.00  0.00     0.280 HD
ENDBRANCH  14  15
ENDBRANCH  12  14
ENDBRANCH  10  12
ENDBRANCH   5   8
BRANCH   1  24
ATOM     24  S1  <0> d           1.480  -1.240   4.095  0.00  0.00     0.263 S 
ATOM     25  O1  <0> d           1.113  -0.304   5.099  0.00  0.00    -0.200 OA
ATOM     26  O2  <0> d           1.313  -2.641   4.261  0.00  0.00    -0.200 OA
BRANCH  24  27
ATOM     27  N1  <0> d           0.640  -0.822   2.729  0.00  0.00    -0.280 N 
ATOM     28  H11 <0> d          -0.026  -0.119   2.766  0.00  0.00     0.179 HD
BRANCH  27  29
ATOM     29  C7  <0> d           0.893  -1.483   1.525  0.00  0.00     0.048 A 
ATOM     30  C2  <0> d           0.836  -0.788   0.324  0.00  0.00    -0.035 A 
ATOM     31  C1  <0> d           0.502   0.682   0.318  0.00  0.00     0.050 C 
ATOM     32  C3  <0> d           1.092  -1.443  -0.865  0.00  0.00     0.009 A 
ATOM     33  C4  <0> d           1.398  -2.792  -0.860  0.00  0.00     0.001 A 
ATOM     34  C5  <0> d           1.450  -3.488   0.333  0.00  0.00     0.002 A 
ATOM     35  C6  <0> d           1.196  -2.839   1.525  0.00  0.00     0.030 A 
ENDBRANCH  27  29
ENDBRANCH  24  27
ENDBRANCH   1  24
TORSDOF 7
