REMARK  3 active torsions:
REMARK  status: ('A' for Active; 'I' for Inactive)
REMARK    1  A    between atoms: C3_3  and  C10_16 
REMARK    2  A    between atoms: N3_6  and  C4_7 
REMARK    3  A    between atoms: C10_16  and  N4_18 
ROOT
ATOM      1  C1  <0> d          -0.379   1.473   0.053  0.00  0.00     0.073 C 
ATOM      2  C2  <0> d          -0.154  -0.017   0.021  0.00  0.00     0.063 A 
ATOM      3  C3  <0> d          -0.177  -0.821  -1.069  0.00  0.00     0.112 A 
ATOM      4  N1  <0> d           0.073  -2.060  -0.633  0.00  0.00    -0.132 NA
ATOM      5  N2  <0> d           0.240  -2.031   0.642  0.00  0.00    -0.060 NA
ATOM      6  N3  <0> d           0.119  -0.827   1.080  0.00  0.00    -0.216 N 
ENDROOT
BRANCH   6   7
ATOM      7  C4  <0> d           0.243  -0.421   2.417  0.00  0.00     0.083 A 
ATOM      8  C9  <0> d          -0.426  -1.111   3.419  0.00  0.00     0.064 A 
ATOM      9  C8  <0> d          -0.297  -0.712   4.736  0.00  0.00     0.051 A 
ATOM     10 Cl1  <0> d          -1.417  -2.479   3.018  0.00  0.00    -0.082 Cl
ATOM     11  C7  <0> d           0.488   0.381   5.056  0.00  0.00     0.057 A 
ATOM     12  C6  <0> d           1.151   1.075   4.057  0.00  0.00     0.058 A 
ATOM     13 Cl2  <0> d           0.642   0.884   6.710  0.00  0.00    -0.082 Cl
ATOM     14  C5  <0> d           1.031   0.676   2.739  0.00  0.00     0.059 A 
ATOM     15 Cl3  <0> d           2.136   2.446   4.461  0.00  0.00    -0.082 Cl
ENDBRANCH   6   7
BRANCH   3  16
ATOM     16  C10 <0> d          -0.434  -0.401  -2.493  0.00  0.00     0.235 C 
ATOM     17  C11 <0> d          -1.846  -0.824  -2.903  0.00  0.00     0.046 C 
BRANCH  16  18
ATOM     18  N4  <0> d           0.546  -1.044  -3.378  0.00  0.00    -0.070 N 
ATOM     19  H10 <0> d           0.460  -2.047  -3.302  0.00  0.00     0.275 HD
ATOM     20  H11 <0> d           0.373  -0.763  -4.332  0.00  0.00     0.275 HD
ATOM     21  H12 <0> d           1.477  -0.765  -3.108  0.00  0.00     0.275 HD
ENDBRANCH  16  18
ENDBRANCH   3  16
TORSDOF 3
