REMARK  6 active torsions:
REMARK  status: ('A' for Active; 'I' for Inactive)
REMARK    1  A    between atoms: C5_6  and  C6_7 
REMARK    2  A    between atoms: C6_7  and  C7_8 
REMARK    3  A    between atoms: C6_7  and  N3_20 
REMARK    4  A    between atoms: C7_8  and  N2_9 
REMARK       I    between atoms: N2_9  and  C8_10 
REMARK    5  A    between atoms: C8_10  and  C9_12 
REMARK    6  A    between atoms: C9_12  and  C10_13 
ROOT
ATOM      1  C6  <0> d           0.032  -0.335   2.539  0.00  0.00     0.290 C 
ENDROOT
BRANCH   1   2
ATOM      2  C5  <0> d           0.154  -0.623   1.065  0.00  0.00     0.046 A 
ATOM      3  N1  <0> d           0.307   0.306   0.078  0.00  0.00    -0.363 N 
ATOM      4  C1  <0> d           0.380   1.756   0.275  0.00  0.00     0.155 C 
ATOM      5  C2  <0> d           0.387  -0.338  -1.121  0.00  0.00     0.090 A 
ATOM      6  C3  <0> d           0.279  -1.663  -0.896  0.00  0.00     0.019 A 
ATOM      7  C4  <0> d           0.128  -1.845   0.493  0.00  0.00     0.029 A 
ENDBRANCH   1   2
BRANCH   1   8
ATOM      8  C7  <0> d           1.250   0.465   3.005  0.00  0.00     0.164 C 
BRANCH   8   9
ATOM      9  N2  <0> d           1.194   0.638   4.458  0.00  0.00    -0.358 N 
ATOM     10  C8  <0> d           2.218   1.227   5.107  0.00  0.00     0.221 C 
ATOM     11  O1  <0> d           3.186   1.613   4.487  0.00  0.00    -0.273 OA
ATOM     12  H10 <0> d           0.419   0.329   4.954  0.00  0.00     0.162 HD
BRANCH  10  13
ATOM     13  C9  <0> d           2.160   1.405   6.602  0.00  0.00     0.143 C 
BRANCH  13  14
ATOM     14  C10 <0> d           3.419   2.084   7.077  0.00  0.00    -0.028 A 
ATOM     15  C15 <0> d           3.514   3.463   7.049  0.00  0.00     0.040 A 
ATOM     16  C14 <0> d           4.668   4.086   7.490  0.00  0.00     0.024 A 
ATOM     17 Cl1  <0> d           2.181   4.414   6.469  0.00  0.00    -0.084 Cl
ATOM     18  C13 <0> d           5.730   3.329   7.947  0.00  0.00     0.002 A 
ATOM     19  C12 <0> d           5.637   1.950   7.969  0.00  0.00     0.001 A 
ATOM     20  C11 <0> d           4.482   1.327   7.534  0.00  0.00     0.009 A 
ENDBRANCH  13  14
ENDBRANCH  10  13
ENDBRANCH   8   9
ENDBRANCH   1   8
BRANCH   1  21
ATOM     21  N3  <0> d          -0.036  -1.601   3.281  0.00  0.00     0.104 N 
ATOM     22  C19 <0> d          -1.255  -2.347   2.939  0.00  0.00     0.299 C 
ATOM     23  C18 <0> d          -1.315  -3.627   3.777  0.00  0.00     0.198 C 
ATOM     24  O2  <0> d          -0.130  -4.394   3.552  0.00  0.00    -0.388 OA
ATOM     25  C17 <0> d           1.077  -3.698   3.876  0.00  0.00     0.198 C 
ATOM     26  C16 <0> d           1.161  -2.419   3.038  0.00  0.00     0.299 C 
ENDBRANCH   1  21
TORSDOF 6
