REMARK  5 active torsions:
REMARK  status: ('A' for Active; 'I' for Inactive)
REMARK    1  A    between atoms: C5_6  and  N3_13 
REMARK       I    between atoms: N3_13  and  C8_14 
REMARK    2  A    between atoms: C8_14  and  C9_16 
REMARK    3  A    between atoms: C9_16  and  N4_17 
REMARK    4  A    between atoms: N5_20  and  C14_23 
REMARK    5  A    between atoms: C14_23  and  C15_24 
REMARK       I    between atoms: C15_24  and  N6_26 
ROOT
ATOM      1  N3  <0> d          -2.439   1.014   4.307  0.00  0.00    -0.305 N 
ATOM      2  C8  <0> d          -2.530  -0.317   4.493  0.00  0.00     0.252 C 
ATOM      3  O3  <0> d          -2.060  -1.078   3.673  0.00  0.00    -0.271 OA
ATOM      4  H5  <0> d          -2.866   1.704   5.050  0.00  0.00     0.171 HD
ENDROOT
BRANCH   2   5
ATOM      5  C9  <0> d          -3.217  -0.862   5.719  0.00  0.00     0.375 C 
BRANCH   5   6
ATOM      6  N4  <0> d          -3.184  -2.330   5.687  0.00  0.00     0.100 N 
ATOM      7  C13 <0> d          -3.629  -2.895   6.969  0.00  0.00     0.300 C 
ATOM      8  C12 <0> d          -3.505  -4.420   6.922  0.00  0.00     0.265 C 
ATOM      9  N5  <0> d          -4.314  -4.941   5.811  0.00  0.00    -0.059 N 
ATOM     10  C11 <0> d          -3.869  -4.376   4.530  0.00  0.00     0.265 C 
ATOM     11  H29 <0> d          -5.356  -4.630   5.976  0.00  0.00     0.280 HD
ATOM     12  C10 <0> d          -3.993  -2.851   4.576  0.00  0.00     0.300 C 
BRANCH   9  13
ATOM     13  C14 <0> d          -4.281  -6.409   5.780  0.00  0.00     0.337 C 
BRANCH  13  14
ATOM     14  C15 <0> d          -5.304  -6.913   4.795  0.00  0.00     0.245 C 
ATOM     15  O4  <0> d          -5.994  -6.127   4.181  0.00  0.00    -0.272 OA
ATOM     16  N6  <0> d          -5.454  -8.238   4.598  0.00  0.00    -0.351 N 
ATOM     17  C19 <0> d          -6.412  -8.865   3.670  0.00  0.00     0.126 C 
ATOM     18  C16 <0> d          -4.684  -9.296   5.268  0.00  0.00     0.126 C 
ATOM     19  C18 <0> d          -5.800 -10.251   3.345  0.00  0.00     0.021 C 
ATOM     20  C17 <0> d          -5.182 -10.647   4.711  0.00  0.00     0.021 C 
ENDBRANCH  13  14
ENDBRANCH   9  13
ENDBRANCH   5   6
ENDBRANCH   2   5
BRANCH   1  21
ATOM     21  C5  <0> d          -1.808   1.515   3.181  0.00  0.00     0.167 A 
ATOM     22  O1  <0> d          -1.249   0.785   2.203  0.00  0.00    -0.296 OA
ATOM     23  C4  <0> d          -0.718   1.572   1.248  0.00  0.00     0.065 A 
ATOM     24  C3  <0> d          -0.913   2.865   1.581  0.00  0.00     0.039 A 
ATOM     25  C20 <0> d          -0.013   1.086   0.008  0.00  0.00     0.077 C 
ATOM     26  C2  <0> d          -0.592   4.173   1.001  0.00  0.00     0.064 A 
ATOM     27  C6  <0> d          -1.647   2.843   2.871  0.00  0.00     0.099 A 
ATOM     28  C1  <0> d           0.148   4.259  -0.308  0.00  0.00     0.073 C 
ATOM     29  N2  <0> d          -0.949   5.255   1.621  0.00  0.00    -0.176 NA
ATOM     30  N1  <0> d          -1.635   5.260   2.833  0.00  0.00    -0.242 N 
ATOM     31  C7  <0> d          -1.998   4.127   3.470  0.00  0.00     0.277 A 
ATOM     32  H1  <0> d          -1.880   6.239   3.270  0.00  0.00     0.192 HD
ATOM     33  O2  <0> d          -2.596   4.175   4.529  0.00  0.00    -0.266 OA
ENDBRANCH   1  21
TORSDOF 5
