REMARK  7 active torsions:
REMARK  status: ('A' for Active; 'I' for Inactive)
REMARK    1  A    between atoms: C2_2  and  C3_3 
REMARK    2  A    between atoms: C3_3  and  N1_5 
REMARK       I    between atoms: N1_5  and  C5_6 
REMARK    3  A    between atoms: C5_6  and  C6_8 
REMARK    4  A    between atoms: C9_11  and  C11_14 
REMARK    5  A    between atoms: C12_15  and  C13_16 
REMARK    6  A    between atoms: C13_16  and  C14_17 
REMARK    7  A    between atoms: C14_17  and  O2_18 
ROOT
ATOM      1  C6  <0> d           4.288   0.438   2.232  0.00  0.00     0.124 A 
ATOM      2  C7  <0> d           5.028   0.564   3.408  0.00  0.00     0.039 A 
ATOM      3  C8  <0> d           6.353   0.949   3.334  0.00  0.00     0.024 A 
ATOM      4  C9  <0> d           6.904   1.197   2.071  0.00  0.00     0.035 A 
ATOM      5  C10 <0> d           6.098   1.049   0.937  0.00  0.00     0.138 A 
ATOM      6  N2  <0> d           4.844   0.676   1.050  0.00  0.00    -0.254 NA
ENDROOT
BRANCH   1   7
ATOM      7  C5  <0> d           2.869   0.026   2.303  0.00  0.00     0.270 C 
ATOM      8  N1  <0> d           2.148  -0.104   1.172  0.00  0.00    -0.351 N 
ATOM      9  H10 <0> d           2.559   0.072   0.311  0.00  0.00     0.163 HD
ATOM     10  O1  <0> d           2.353  -0.194   3.381  0.00  0.00    -0.266 OA
BRANCH   8  11
ATOM     11  C3  <0> d           0.742  -0.511   1.242  0.00  0.00     0.080 C 
ATOM     12  C4  <0> d           0.655  -2.037   1.299  0.00  0.00     0.032 C 
BRANCH  11  13
ATOM     13  C2  <0> d           0.002  -0.004   0.002  0.00  0.00     0.020 C 
ATOM     14  C1  <0> d          -0.019   1.526   0.010  0.00  0.00     0.007 C 
ENDBRANCH  11  13
ENDBRANCH   8  11
ENDBRANCH   1   7
BRANCH   4  15
ATOM     15  C11 <0> d           8.272   1.599   1.941  0.00  0.00    -0.066 C 
ATOM     16  C12 <0> d           9.394   1.927   1.835  0.00  0.00    -0.099 C 
BRANCH  16  17
ATOM     17  C13 <0> d          10.801   2.340   1.702  0.00  0.00     0.120 C 
BRANCH  17  18
ATOM     18  C14 <0> d          11.135   2.542   0.223  0.00  0.00     0.176 C 
BRANCH  18  19
ATOM     19  O2  <0> d          12.501   2.943   0.094  0.00  0.00    -0.400 OA
ATOM     20  H18 <0> d          12.783   3.089  -0.819  0.00  0.00     0.209 HD
ENDBRANCH  18  19
ENDBRANCH  17  18
ENDBRANCH  16  17
ENDBRANCH   4  15
TORSDOF 7
