REMARK  5 active torsions:
REMARK  status: ('A' for Active; 'I' for Inactive)
REMARK    1  A    between atoms: C2_2  and  C3_3 
REMARK    2  A    between atoms: C3_3  and  N1_4 
REMARK    3  A    between atoms: C4_5  and  N2_6 
REMARK    4  A    between atoms: C5_7  and  C16_21 
REMARK       I    between atoms: C16_21  and  N5_23 
REMARK    5  A    between atoms: N5_23  and  C17_24 
ROOT
ATOM      1  N1  <0> d          -1.428  -1.999   0.103  0.00  0.00    -0.316 N 
ATOM      2  C4  <0> d          -1.433  -2.553  -1.095  0.00  0.00     0.118 A 
ATOM      3  C5  <0> d          -1.400  -3.957  -1.255  0.00  0.00     0.077 A 
ATOM      4  C6  <0> d          -1.361  -4.772  -0.122  0.00  0.00     0.042 A 
ATOM      5  C7  <0> d          -1.357  -4.155   1.127  0.00  0.00     0.080 A 
ATOM      6  C8  <0> d          -1.386  -2.736   1.214  0.00  0.00     0.149 A 
ATOM      7  N3  <0> d          -1.377  -2.164   2.423  0.00  0.00    -0.211 NA
ATOM      8  C9  <0> d          -1.337  -2.876   3.543  0.00  0.00     0.145 A 
ATOM      9  C10 <0> d          -1.329  -2.190   4.777  0.00  0.00    -0.015 A 
ATOM     10  C11 <0> d          -1.288  -2.896   5.939  0.00  0.00     0.012 A 
ATOM     11  C12 <0> d          -1.253  -4.298   5.899  0.00  0.00     0.018 A 
ATOM     12  C13 <0> d          -1.260  -4.942   4.711  0.00  0.00     0.102 A 
ATOM     13  N4  <0> d          -1.302  -4.245   3.538  0.00  0.00    -0.272 N 
ATOM     14  C14 <0> d          -1.318  -4.927   2.369  0.00  0.00     0.267 A 
ATOM     15  O1  <0> d          -1.287  -6.144   2.352  0.00  0.00    -0.267 OA
ATOM     16  C15 <0> d          -1.367  -0.684   4.806  0.00  0.00     0.052 C 
ENDROOT
BRANCH   3  17
ATOM     17  C16 <0> d          -1.406  -4.552  -2.600  0.00  0.00     0.261 C 
ATOM     18  O2  <0> d          -1.331  -3.838  -3.582  0.00  0.00    -0.267 OA
ATOM     19  N5  <0> d          -1.496  -5.889  -2.745  0.00  0.00    -0.305 N 
ATOM     20  H16 <0> d          -1.556  -6.459  -1.962  0.00  0.00     0.170 HD
BRANCH  19  21
ATOM     21  C17 <0> d          -1.502  -6.454  -4.019  0.00  0.00     0.160 A 
ATOM     22  N6  <0> d          -1.583  -7.730  -4.296  0.00  0.00    -0.110 NA
ATOM     23  O3  <0> d          -1.559  -7.871  -5.705  0.00  0.00    -0.216 OA
ATOM     24  C19 <0> d          -1.454  -6.646  -6.243  0.00  0.00     0.078 A 
ATOM     25  C18 <0> d          -1.415  -5.750  -5.242  0.00  0.00     0.087 A 
ATOM     26  C20 <0> d          -1.389  -6.329  -7.715  0.00  0.00     0.079 C 
ENDBRANCH  19  21
ENDBRANCH   3  17
BRANCH   2  27
ATOM     27  N2  <0> d          -1.472  -1.746  -2.212  0.00  0.00    -0.384 N 
ATOM     28  H8  <0> d          -1.573  -0.786  -2.114  0.00  0.00     0.157 HD
ATOM     29  H21 <0> d          -1.397  -2.138  -3.096  0.00  0.00     0.157 HD
ENDBRANCH   2  27
BRANCH   1  30
ATOM     30  C3  <0> d          -1.462  -0.539   0.215  0.00  0.00     0.132 C 
BRANCH  30  31
ATOM     31  C2  <0> d          -0.033   0.006   0.224  0.00  0.00     0.016 C 
ATOM     32  C1  <0> d          -0.069   1.531   0.341  0.00  0.00     0.006 C 
ENDBRANCH  30  31
ENDBRANCH   1  30
TORSDOF 5
