REMARK  8 active torsions:
REMARK  status: ('A' for Active; 'I' for Inactive)
REMARK    1  A    between atoms: C2_2  and  N1_3 
REMARK    2  A    between atoms: N1_3  and  C4_5 
REMARK    3  A    between atoms: C4_5  and  C5_6 
REMARK    4  A    between atoms: C9_10  and  C11_12 
REMARK    5  A    between atoms: C11_12  and  N2_13 
REMARK       I    between atoms: N2_13  and  C12_14 
REMARK       I    between atoms: C12_14  and  N3_16 
REMARK    6  A    between atoms: N3_16  and  N4_17 
REMARK       I    between atoms: N4_17  and  C13_18 
REMARK    7  A    between atoms: C13_18  and  C14_20 
REMARK    8  A    between atoms: C14_20  and  N5_21 
ROOT
ATOM      1  N2  <0> d           1.095  -2.427   6.705  0.00  0.00    -0.338 N 
ATOM      2  C12 <0> d           0.539  -2.525   7.928  0.00  0.00     0.335 C 
ATOM      3  O1  <0> d           0.097  -3.591   8.312  0.00  0.00    -0.246 OA
ATOM      4  N3  <0> d           0.472  -1.442   8.727  0.00  0.00    -0.249 N 
ATOM      5  H17 <0> d           1.448  -1.577   6.399  0.00  0.00     0.164 HD
ATOM      6  H18 <0> d           0.071  -1.512   9.607  0.00  0.00     0.192 HD
ENDROOT
BRANCH   1   7
ATOM      7  C11 <0> d           1.168  -3.605   5.837  0.00  0.00     0.162 C 
BRANCH   7   8
ATOM      8  C9  <0> d           1.830  -3.230   4.536  0.00  0.00    -0.040 A 
ATOM      9  C8  <0> d           3.202  -3.333   4.403  0.00  0.00     0.009 A 
ATOM     10  C7  <0> d           3.809  -2.990   3.209  0.00  0.00     0.001 A 
ATOM     11  C6  <0> d           3.044  -2.543   2.148  0.00  0.00     0.009 A 
ATOM     12  C5  <0> d           1.671  -2.440   2.281  0.00  0.00    -0.032 A 
ATOM     13  C10 <0> d           1.065  -2.779   3.476  0.00  0.00     0.017 A 
BRANCH  12  14
ATOM     14  C4  <0> d           0.837  -1.953   1.124  0.00  0.00     0.273 C 
BRANCH  14  15
ATOM     15  N1  <0> d           0.713  -0.491   1.192  0.00  0.00    -0.071 N 
ATOM     16  C3  <0> d          -0.040  -0.119   2.398  0.00  0.00     0.270 C 
ATOM     17  H29 <0> d           1.632  -0.076   1.228  0.00  0.00     0.279 HD
BRANCH  15  18
ATOM     18  C2  <0> d           0.002  -0.004   0.002  0.00  0.00     0.230 C 
ATOM     19  C1  <0> d          -0.019   1.526   0.010  0.00  0.00     0.034 C 
ENDBRANCH  15  18
ENDBRANCH  14  15
ENDBRANCH  12  14
ENDBRANCH   7   8
ENDBRANCH   1   7
BRANCH   4  20
ATOM     20  N4  <0> d           0.981  -0.213   8.285  0.00  0.00    -0.265 N 
ATOM     21  C13 <0> d           0.913   0.870   9.084  0.00  0.00     0.256 C 
ATOM     22  O2  <0> d           0.412   0.782  10.185  0.00  0.00    -0.270 OA
ATOM     23  H19 <0> d           1.381  -0.143   7.405  0.00  0.00     0.190 HD
BRANCH  21  24
ATOM     24  C14 <0> d           1.461   2.192   8.609  0.00  0.00     0.255 C 
BRANCH  24  25
ATOM     25  N5  <0> d           1.269   3.203   9.651  0.00  0.00    -0.265 N 
ATOM     26  N6  <0> d           2.172   3.510  10.677  0.00  0.00    -0.177 NA
ATOM     27  C17 <0> d           1.653   4.465  11.406  0.00  0.00     0.053 A 
ATOM     28  C16 <0> d           0.401   4.789  10.874  0.00  0.00     0.055 A 
ATOM     29  C18 <0> d           2.292   5.102  12.613  0.00  0.00     0.072 C 
ATOM     30  C15 <0> d           0.189   3.999   9.796  0.00  0.00     0.029 A 
ATOM     31  C19 <0> d          -1.034   4.006   8.916  0.00  0.00     0.070 C 
ENDBRANCH  24  25
ENDBRANCH  21  24
ENDBRANCH   4  20
TORSDOF 8
