REMARK  4 active torsions:
REMARK  status: ('A' for Active; 'I' for Inactive)
REMARK    1  A    between atoms: C5_5  and  C8_8 
REMARK    2  A    between atoms: N1_12  and  C13_15 
REMARK    3  A    between atoms: C13_15  and  C14_16 
REMARK       I    between atoms: C14_16  and  N2_18 
REMARK    4  A    between atoms: N2_18  and  C15_19 
ROOT
ATOM      1  C8  <0> d           0.059  -4.275  -0.021  0.00  0.00     0.160 A 
ATOM      2  C9  <0> d           1.499  -4.725   0.129  0.00  0.00     0.061 A 
ATOM      3  C10 <0> d           1.802  -5.520   1.175  0.00  0.00     0.048 A 
ATOM      4  C11 <0> d           3.283  -5.808   1.076  0.00  0.00     0.184 A 
ATOM      5  N1  <0> d           3.729  -5.087  -0.125  0.00  0.00    -0.334 N 
ATOM      6  C12 <0> d           2.651  -4.470  -0.643  0.00  0.00     0.255 A 
ATOM      7  O1  <0> d           2.668  -3.781  -1.647  0.00  0.00    -0.268 OA
ATOM      8  N4  <0> d           0.845  -5.907   2.070  0.00  0.00    -0.306 N 
ATOM      9  C21 <0> d          -0.440  -5.540   1.985  0.00  0.00     0.323 A 
ATOM     10  O3  <0> d          -1.221  -5.934   2.829  0.00  0.00    -0.247 OA
ATOM     11  N5  <0> d          -0.895  -4.747   0.996  0.00  0.00    -0.330 N 
ATOM     12  C22 <0> d           1.247  -6.772   3.182  0.00  0.00     0.161 C 
ATOM     13  H26 <0> d          -1.830  -4.493   0.954  0.00  0.00     0.165 HD
ENDROOT
BRANCH   5  14
ATOM     14  C13 <0> d           5.093  -5.047  -0.659  0.00  0.00     0.229 C 
BRANCH  14  15
ATOM     15  C14 <0> d           5.284  -6.180  -1.633  0.00  0.00     0.235 C 
ATOM     16  O2  <0> d           4.371  -6.946  -1.860  0.00  0.00    -0.272 OA
ATOM     17  N2  <0> d           6.470  -6.343  -2.253  0.00  0.00    -0.355 N 
ATOM     18  H13 <0> d           7.200  -5.731  -2.072  0.00  0.00     0.162 HD
BRANCH  17  19
ATOM     19  C15 <0> d           6.656  -7.445  -3.201  0.00  0.00     0.087 C 
ATOM     20  C19 <0> d           7.765  -7.085  -4.193  0.00  0.00     0.053 C 
ATOM     21  C18 <0> d           8.009  -8.271  -5.129  0.00  0.00     0.236 C 
ATOM     22  N3  <0> d           8.414  -9.443  -4.345  0.00  0.00    -0.075 N 
ATOM     23  C17 <0> d           7.326  -9.838  -3.441  0.00  0.00     0.236 C 
ATOM     24  C20 <0> d           8.722 -10.556  -5.253  0.00  0.00     0.269 C 
ATOM     25  H30 <0> d           9.234  -9.217  -3.803  0.00  0.00     0.279 HD
ATOM     26  C16 <0> d           7.056  -8.712  -2.440  0.00  0.00     0.053 C 
ENDBRANCH  17  19
ENDBRANCH  14  15
ENDBRANCH   5  14
BRANCH   1  27
ATOM     27  C5  <0> d           0.040  -2.768  -0.013  0.00  0.00    -0.031 A 
ATOM     28  C4  <0> d           0.025  -2.071  -1.206  0.00  0.00     0.010 A 
ATOM     29  C3  <0> d           0.006  -0.689  -1.199  0.00  0.00     0.007 A 
ATOM     30  C2  <0> d           0.002  -0.004   0.002  0.00  0.00    -0.062 A 
ATOM     31  C1  <0> d          -0.018   1.503   0.010  0.00  0.00     0.048 C 
ATOM     32  C7  <0> d           0.023  -0.702   1.195  0.00  0.00     0.007 A 
ATOM     33  C6  <0> d           0.037  -2.084   1.188  0.00  0.00     0.010 A 
ENDBRANCH   1  27
TORSDOF 4
