REMARK  7 active torsions:
REMARK  status: ('A' for Active; 'I' for Inactive)
REMARK    1  A    between atoms: C2_2  and  N1_3 
REMARK    2  A    between atoms: N1_3  and  C3_4 
REMARK       I    between atoms: N1_3  and  C13_19 
REMARK    3  A    between atoms: C4_6  and  C6_9 
REMARK    4  A    between atoms: C6_9  and  N3_10 
REMARK    5  A    between atoms: N4_13  and  C11_16 
REMARK    6  A    between atoms: C11_16  and  C12_17 
REMARK    7  A    between atoms: C12_17  and  O1_18 
ROOT
ATOM      1  C6  <0> d           5.067  -1.452  -3.180  0.00  0.00     0.294 C 
ENDROOT
BRANCH   1   2
ATOM      2  C4  <0> d           4.164  -1.022  -2.053  0.00  0.00     0.069 A 
ATOM      3  N2  <0> d           2.853  -0.973  -2.200  0.00  0.00    -0.227 NA
ATOM      4  C3  <0> d           2.071  -0.596  -1.211  0.00  0.00     0.175 A 
ATOM      5  S1  <0> d           3.158  -0.266   0.031  0.00  0.00    -0.062 SA
ATOM      6  C5  <0> d           4.662  -0.667  -0.843  0.00  0.00     0.082 A 
BRANCH   4   7
ATOM      7  N1  <0> d           0.686  -0.490  -1.198  0.00  0.00    -0.297 N 
ATOM      8  C13 <0> d          -0.025  -0.801  -2.300  0.00  0.00     0.221 C 
ATOM      9  O2  <0> d           0.535  -1.265  -3.271  0.00  0.00    -0.273 OA
ATOM     10  C14 <0> d          -1.514  -0.571  -2.327  0.00  0.00     0.117 C 
BRANCH   7  11
ATOM     11  C2  <0> d          -0.003  -0.041   0.014  0.00  0.00     0.130 C 
ATOM     12  C1  <0> d          -0.066   1.488   0.028  0.00  0.00     0.027 C 
ENDBRANCH   7  11
ENDBRANCH   4   7
ENDBRANCH   1   2
BRANCH   1  13
ATOM     13  N3  <0> d           5.168  -2.918  -3.193  0.00  0.00    -0.062 N 
ATOM     14  C10 <0> d           5.949  -3.344  -4.362  0.00  0.00     0.265 C 
ATOM     15  C9  <0> d           6.039  -4.871  -4.387  0.00  0.00     0.300 C 
ATOM     16  N4  <0> d           6.678  -5.342  -3.150  0.00  0.00     0.093 N 
ATOM     17  C8  <0> d           5.919  -4.902  -1.970  0.00  0.00     0.300 C 
ATOM     18  C7  <0> d           5.831  -3.374  -1.965  0.00  0.00     0.265 C 
ATOM     19  H25 <0> d           4.243  -3.318  -3.244  0.00  0.00     0.280 HD
BRANCH  16  20
ATOM     20  C11 <0> d           6.833  -6.803  -3.161  0.00  0.00     0.298 C 
BRANCH  20  21
ATOM     21  C12 <0> d           7.828  -7.202  -4.253  0.00  0.00     0.194 C 
BRANCH  21  22
ATOM     22  O1  <0> d           9.121  -6.686  -3.930  0.00  0.00    -0.399 OA
ATOM     23  H21 <0> d           9.804  -6.902  -4.581  0.00  0.00     0.209 HD
ENDBRANCH  21  22
ENDBRANCH  20  21
ENDBRANCH  16  20
ENDBRANCH   1  13
TORSDOF 7
