REMARK  2 active torsions:
REMARK  status: ('A' for Active; 'I' for Inactive)
REMARK    1  A    between atoms: C9_9  and  C10_11 
REMARK    2  A    between atoms: C9_9  and  O3_17 
ROOT
ATOM      1  C1  <0> d           0.033   2.727  -1.863  0.00  0.00     0.014 C 
ATOM      2  C2  <0> d          -0.758   1.580  -1.231  0.00  0.00     0.004 C 
ATOM      3  C3  <0> d          -0.022   1.076   0.010  0.00  0.00     0.010 C 
ATOM      4  C4  <0> d          -0.731   1.571   1.271  0.00  0.00     0.033 C 
ATOM      5  C5  <0> d          -0.022   0.979   2.493  0.00  0.00     0.127 C 
ATOM      6  C6  <0> d          -0.850  -0.131   3.109  0.00  0.00     0.065 C 
ATOM      7  C7  <0> d          -2.052   0.427   3.846  0.00  0.00     0.140 C 
ATOM      8  C8  <0> d          -1.607   1.492   4.851  0.00  0.00     0.103 C 
ATOM      9  C9  <0> d          -0.842   2.584   4.094  0.00  0.00     0.185 C 
ATOM     10  O1  <0> d           0.277   1.982   3.448  0.00  0.00    -0.348 OA
ATOM     11  O4  <0> d          -3.042   0.981   2.958  0.00  0.00    -0.312 OA
ATOM     12  C13 <0> d          -3.390   0.343   1.834  0.00  0.00     0.283 C 
ATOM     13  O5  <0> d          -2.644  -0.484   1.347  0.00  0.00    -0.260 OA
ATOM     14  C14 <0> d          -4.675   0.643   1.192  0.00  0.00     0.084 C 
ATOM     15  C15 <0> d          -4.947   0.220  -0.038  0.00  0.00    -0.078 C 
ATOM     16  C16 <0> d          -3.884  -0.463  -0.860  0.00  0.00     0.038 C 
ATOM     17  C17 <0> d          -3.302   0.555  -1.847  0.00  0.00     0.031 C 
ATOM     18  C18 <0> d          -2.078  -0.026  -2.510  0.00  0.00    -0.030 C 
ATOM     19  C19 <0> d          -0.893   0.454  -2.226  0.00  0.00    -0.026 C 
ATOM     20  C20 <0> d          -6.327   0.419  -0.616  0.00  0.00     0.043 C 
ENDROOT
BRANCH   9  21
ATOM     21  C10 <0> d          -1.758   3.224   3.049  0.00  0.00     0.157 A 
ATOM     22  N1  <0> d          -2.980   3.640   3.696  0.00  0.00    -0.341 N 
ATOM     23  C12 <0> d          -3.367   4.923   3.676  0.00  0.00     0.280 A 
ATOM     24  H18 <0> d          -3.529   2.982   4.150  0.00  0.00     0.163 HD
ATOM     25  S1  <0> d          -2.111   5.792   2.759  0.00  0.00    -0.067 SA
ATOM     26  O2  <0> d          -4.367   5.397   4.180  0.00  0.00    -0.260 OA
ATOM     27  C11 <0> d          -1.001   4.385   2.372  0.00  0.00     0.114 A 
ENDBRANCH   9  21
BRANCH   9  28
ATOM     28  O3  <0> d          -0.389   3.580   5.013  0.00  0.00    -0.363 OA
ATOM     29  H19 <0> d           0.191   3.239   5.708  0.00  0.00     0.213 HD
ENDBRANCH   9  28
TORSDOF 2
