REMARK  4 active torsions:
REMARK  status: ('A' for Active; 'I' for Inactive)
REMARK    1  A    between atoms: C5_5  and  C8_8 
REMARK    2  A    between atoms: N1_12  and  C13_15 
REMARK    3  A    between atoms: C13_15  and  C14_16 
REMARK       I    between atoms: C14_16  and  N2_18 
REMARK       I    between atoms: N3_21  and  C19_24 
REMARK    4  A    between atoms: C19_24  and  C20_26 
ROOT
ATOM      1  C8  <0> d           0.043  -4.209  -0.146  0.00  0.00     0.160 A 
ATOM      2  C9  <0> d           1.479  -4.665   0.022  0.00  0.00     0.061 A 
ATOM      3  C10 <0> d           1.766  -5.457   1.075  0.00  0.00     0.048 A 
ATOM      4  C11 <0> d           3.247  -5.753   0.993  0.00  0.00     0.184 A 
ATOM      5  N1  <0> d           3.709  -5.040  -0.206  0.00  0.00    -0.334 N 
ATOM      6  C12 <0> d           2.641  -4.420  -0.739  0.00  0.00     0.255 A 
ATOM      7  O1  <0> d           2.672  -3.736  -1.746  0.00  0.00    -0.268 OA
ATOM      8  N4  <0> d           0.798  -5.835   1.961  0.00  0.00    -0.306 N 
ATOM      9  C24 <0> d          -0.484  -5.462   1.861  0.00  0.00     0.323 A 
ATOM     10  O5  <0> d          -1.276  -5.848   2.698  0.00  0.00    -0.247 OA
ATOM     11  N5  <0> d          -0.924  -4.672   0.863  0.00  0.00    -0.330 N 
ATOM     12  C25 <0> d           1.183  -6.697   3.081  0.00  0.00     0.161 C 
ATOM     13  H24 <0> d          -1.858  -4.413   0.810  0.00  0.00     0.165 HD
ENDROOT
BRANCH   5  14
ATOM     14  C13 <0> d           5.079  -5.009  -0.725  0.00  0.00     0.229 C 
BRANCH  14  15
ATOM     15  C14 <0> d           5.275  -6.148  -1.693  0.00  0.00     0.237 C 
ATOM     16  O2  <0> d           4.361  -6.910  -1.926  0.00  0.00    -0.272 OA
ATOM     17  N2  <0> d           6.467  -6.320  -2.299  0.00  0.00    -0.348 N 
ATOM     18  C18 <0> d           6.672  -7.426  -3.244  0.00  0.00     0.145 C 
ATOM     19  C15 <0> d           7.585  -5.408  -2.022  0.00  0.00     0.145 C 
ATOM     20  C17 <0> d           7.875  -8.252  -2.786  0.00  0.00     0.146 C 
ATOM     21  N3  <0> d           8.994  -7.340  -2.509  0.00  0.00    -0.343 N 
ATOM     22  C16 <0> d           8.790  -6.237  -1.559  0.00  0.00     0.146 C 
ATOM     23  C19 <0> d          10.185  -7.511  -3.115  0.00  0.00     0.277 C 
ATOM     24  O3  <0> d          10.373  -8.483  -3.823  0.00  0.00    -0.265 OA
BRANCH  23  25
ATOM     25  C20 <0> d          11.255  -6.527  -2.921  0.00  0.00     0.142 A 
ATOM     26  O4  <0> d          11.219  -5.471  -2.082  0.00  0.00    -0.317 OA
ATOM     27  C23 <0> d          12.372  -4.795  -2.168  0.00  0.00     0.143 A 
ATOM     28  C22 <0> d          13.167  -5.405  -3.075  0.00  0.00     0.027 A 
ATOM     29  C21 <0> d          12.460  -6.515  -3.563  0.00  0.00     0.045 A 
ENDBRANCH  23  25
ENDBRANCH  14  15
ENDBRANCH   5  14
BRANCH   1  30
ATOM     30  C5  <0> d           0.032  -2.702  -0.145  0.00  0.00    -0.031 A 
ATOM     31  C4  <0> d           0.033  -2.010  -1.341  0.00  0.00     0.010 A 
ATOM     32  C3  <0> d           0.021  -0.628  -1.340  0.00  0.00     0.007 A 
ATOM     33  C2  <0> d           0.008   0.062  -0.143  0.00  0.00    -0.062 A 
ATOM     34  C1  <0> d          -0.005   1.569  -0.142  0.00  0.00     0.048 C 
ATOM     35  C7  <0> d           0.012  -0.630   1.054  0.00  0.00     0.007 A 
ATOM     36  C6  <0> d           0.020  -2.012   1.053  0.00  0.00     0.010 A 
ENDBRANCH   1  30
TORSDOF 4
