REMARK  6 active torsions:
REMARK  status: ('A' for Active; 'I' for Inactive)
REMARK    1  A    between atoms: N1_11  and  S1_12 
REMARK    2  A    between atoms: S1_12  and  N2_15 
REMARK    3  A    between atoms: N2_15  and  C12_17 
REMARK    4  A    between atoms: C12_17  and  C13_18 
REMARK    5  A    between atoms: C13_18  and  C14_19 
REMARK    6  A    between atoms: C14_19  and  N3_20 
ROOT
ATOM      1  S1  <0> d           1.911   0.639   2.094  0.00  0.00     0.323 S 
ATOM      2  O1  <0> d           1.361   1.934   1.894  0.00  0.00    -0.182 OA
ATOM      3  O2  <0> d           2.299   0.166   3.376  0.00  0.00    -0.182 OA
ENDROOT
BRANCH   1   4
ATOM      4  N1  <0> d           0.801  -0.441   1.507  0.00  0.00    -0.254 N 
ATOM      5  C2  <0> d          -0.153  -0.040   0.464  0.00  0.00     0.100 C 
ATOM      6  C1  <0> d          -0.197   1.486   0.362  0.00  0.00     0.033 C 
ATOM      7  C3  <0> d          -1.535  -0.574   0.860  0.00  0.00     0.030 C 
ATOM      8  C4  <0> d          -1.485  -2.102   0.888  0.00  0.00     0.043 C 
ATOM      9  C5  <0> d          -0.325  -2.575   1.725  0.00  0.00    -0.030 A 
ATOM     10  C10 <0> d           0.756  -1.752   1.996  0.00  0.00     0.053 A 
ATOM     11  C6  <0> d          -0.346  -3.865   2.230  0.00  0.00     0.009 A 
ATOM     12  C9  <0> d           1.812  -2.222   2.769  0.00  0.00     0.031 A 
ATOM     13  C8  <0> d           1.784  -3.509   3.268  0.00  0.00     0.002 A 
ATOM     14  C7  <0> d           0.704  -4.329   2.998  0.00  0.00     0.001 A 
ENDBRANCH   1   4
BRANCH   1  15
ATOM     15  N2  <0> d           3.251   0.539   1.126  0.00  0.00    -0.298 N 
ATOM     16  C11 <0> d           3.428   1.483   0.020  0.00  0.00     0.164 C 
BRANCH  15  17
ATOM     17  C12 <0> d           4.259  -0.494   1.376  0.00  0.00     0.138 C 
BRANCH  17  18
ATOM     18  C13 <0> d           4.026  -1.674   0.431  0.00  0.00     0.048 C 
BRANCH  18  19
ATOM     19  C14 <0> d           4.997  -2.804   0.777  0.00  0.00     0.231 C 
BRANCH  19  20
ATOM     20  N3  <0> d           4.773  -3.938  -0.131  0.00  0.00    -0.079 N 
ATOM     21  H22 <0> d           5.413  -4.683   0.097  0.00  0.00     0.274 HD
ATOM     22  H23 <0> d           3.824  -4.267  -0.030  0.00  0.00     0.274 HD
ATOM     23  H24 <0> d           4.927  -3.642  -1.083  0.00  0.00     0.274 HD
ENDBRANCH  19  20
ENDBRANCH  18  19
ENDBRANCH  17  18
ENDBRANCH  15  17
ENDBRANCH   1  15
TORSDOF 6
