REMARK  4 active torsions:
REMARK  status: ('A' for Active; 'I' for Inactive)
REMARK    1  A    between atoms: C18_20  and  C19_21 
REMARK    2  A    between atoms: C18_20  and  O5_25 
REMARK    3  A    between atoms: C19_21  and  C20_23 
REMARK    4  A    between atoms: C20_23  and  O4_24 
ROOT
ATOM      1  C1  <0> d           4.708   0.482  -1.380  0.00  0.00     0.013 C 
ATOM      2  C2  <0> d           3.764   1.499  -0.736  0.00  0.00     0.025 C 
ATOM      3  C3  <0> d           2.349   1.384  -1.363  0.00  0.00     0.013 C 
ATOM      4  C4  <0> d           1.419   1.632  -0.169  0.00  0.00     0.003 C 
ATOM      5  C5  <0> d           0.017   1.075  -0.310  0.00  0.00     0.003 C 
ATOM      6  C6  <0> d          -0.697   1.685  -1.516  0.00  0.00     0.010 C 
ATOM      7  C7  <0> d          -0.491   3.202  -1.474  0.00  0.00     0.036 C 
ATOM      8  C8  <0> d          -0.875   3.734  -0.124  0.00  0.00    -0.063 C 
ATOM      9  C9  <0> d          -1.042   5.070   0.012  0.00  0.00     0.058 C 
ATOM     10  C10 <0> d          -1.323   5.528   1.400  0.00  0.00     0.172 C 
ATOM     11  O1  <0> d          -2.141   6.393   1.651  0.00  0.00    -0.289 OA
ATOM     12  C11 <0> d          -0.526   4.847   2.457  0.00  0.00     0.052 C 
ATOM     13  C12 <0> d          -0.371   3.516   2.292  0.00  0.00    -0.008 C 
ATOM     14  C13 <0> d          -1.035   2.894   1.094  0.00  0.00     0.008 C 
ATOM     15  C14 <0> d          -0.756   1.422   0.967  0.00  0.00     0.076 C 
ATOM     16  C15 <0> d           0.022   0.945   2.177  0.00  0.00     0.133 C 
ATOM     17  O2  <0> d          -0.532   0.324   3.052  0.00  0.00    -0.297 OA
ATOM     18  C16 <0> d           1.507   1.257   2.277  0.00  0.00     0.091 C 
ATOM     19  C17 <0> d           2.128   0.831   0.957  0.00  0.00     0.005 C 
ATOM     20  C18 <0> d           3.600   1.191   0.772  0.00  0.00     0.131 C 
ATOM     21  C21 <0> d           1.916  -0.669   0.742  0.00  0.00     0.019 C 
ATOM     22  C22 <0> d          -2.530   2.977   1.409  0.00  0.00     0.025 C 
ENDROOT
BRANCH  20  23
ATOM     23  C19 <0> d           4.475   0.028   1.165  0.00  0.00     0.185 C 
ATOM     24  O3  <0> d           4.330  -1.045   0.629  0.00  0.00    -0.292 OA
BRANCH  23  25
ATOM     25  C20 <0> d           5.530   0.203   2.226  0.00  0.00     0.245 C 
BRANCH  25  26
ATOM     26  O4  <0> d           6.222  -1.032   2.419  0.00  0.00    -0.393 OA
ATOM     27  H21 <0> d           7.032  -1.099   3.159  0.00  0.00     0.209 HD
ENDBRANCH  25  26
ENDBRANCH  23  25
ENDBRANCH  20  23
BRANCH  20  28
ATOM     28  O5  <0> d           3.929   2.341   1.553  0.00  0.00    -0.381 OA
ATOM     29  H22 <0> d           3.867   2.298   2.650  0.00  0.00     0.211 HD
ENDBRANCH  20  28
TORSDOF 4
