REMARK  4 active torsions:
REMARK  status: ('A' for Active; 'I' for Inactive)
REMARK    1  A    between atoms: C3_3  and  O4_20 
REMARK    2  A    between atoms: C4_4  and  C15_18 
REMARK    3  A    between atoms: C9_10  and  C10_11 
REMARK    4  A    between atoms: C15_18  and  O3_19 
ROOT
ATOM      1  C1  <0> d          -0.024   1.392  -0.053  0.00  0.00     0.021 A 
ATOM      2  C2  <0> d           1.150   2.091  -0.080  0.00  0.00     0.038 A 
ATOM      3  C3  <0> d           2.366   1.413  -0.102  0.00  0.00     0.076 A 
ATOM      4  C4  <0> d           2.402   0.028  -0.095  0.00  0.00     0.033 A 
ATOM      5  C5  <0> d           1.218  -0.697  -0.067  0.00  0.00     0.101 A 
ATOM      6  C6  <0> d          -0.003  -0.003  -0.046  0.00  0.00     0.051 A 
ATOM      7  C7  <0> d          -1.063  -1.027  -0.019  0.00  0.00     0.218 A 
ATOM      8  O1  <0> d          -2.269  -0.852   0.004  0.00  0.00    -0.284 OA
ATOM      9  C8  <0> d          -0.337  -2.310  -0.027  0.00  0.00     0.127 A 
ATOM     10  C9  <0> d          -0.893  -3.545  -0.010  0.00  0.00     0.053 C 
ATOM     11  O2  <0> d           0.986  -2.029  -0.057  0.00  0.00    -0.305 OA
ENDROOT
BRANCH  10  12
ATOM     12  C10 <0> d          -0.040  -4.737  -0.136  0.00  0.00    -0.031 A 
ATOM     13  C14 <0> d           1.358  -4.626  -0.150  0.00  0.00     0.030 A 
ATOM     14  C13 <0> d           2.118  -5.772  -0.265  0.00  0.00     0.117 A 
ATOM     15  N1  <0> d           1.547  -6.957  -0.370  0.00  0.00    -0.273 NA
ATOM     16  C12 <0> d           0.237  -7.107  -0.367  0.00  0.00     0.117 A 
ATOM     17  C11 <0> d          -0.602  -6.018  -0.251  0.00  0.00     0.030 A 
ENDBRANCH  10  12
BRANCH   4  18
ATOM     18  C15 <0> d           3.725  -0.692  -0.119  0.00  0.00     0.208 C 
BRANCH  18  19
ATOM     19  O3  <0> d           4.172  -0.913   1.221  0.00  0.00    -0.396 OA
ATOM     20  H10 <0> d           5.020  -1.373   1.282  0.00  0.00     0.209 HD
ENDBRANCH  18  19
ENDBRANCH   4  18
BRANCH   3  21
ATOM     21  O4  <0> d           3.527   2.116  -0.129  0.00  0.00    -0.360 OA
ATOM     22  H11 <0> d           3.881   2.324   0.746  0.00  0.00     0.217 HD
ENDBRANCH   3  21
TORSDOF 4
