REMARK  11 active torsions:
REMARK  status: ('A' for Active; 'I' for Inactive)
REMARK    1  A    between atoms: C2_2  and  C3_3 
REMARK    2  A    between atoms: C3_3  and  C4_4 
REMARK    3  A    between atoms: C4_4  and  C5_5 
REMARK    4  A    between atoms: C10_10  and  O1_11 
REMARK    5  A    between atoms: O1_11  and  C11_12 
REMARK    6  A    between atoms: C11_12  and  C12_14 
REMARK    7  A    between atoms: C12_14  and  C13_15 
REMARK    8  A    between atoms: C12_14  and  N2_37 
REMARK    9  A    between atoms: C13_15  and  C14_16 
REMARK   10  A    between atoms: C17_19  and  O3_22 
REMARK   11  A    between atoms: C21_27  and  C23_30 
ROOT
ATOM      1  C5  <0> d           0.680  -1.994  -1.144  0.00  0.00    -0.023 A 
ATOM      2  C6  <0> d           1.771  -2.653  -0.652  0.00  0.00     0.028 A 
ATOM      3  C7  <0> d           1.853  -4.040  -0.773  0.00  0.00     0.050 A 
ATOM      4  C8  <0> d           0.822  -4.763  -1.397  0.00  0.00     0.091 A 
ATOM      5  C9  <0> d          -0.280  -4.077  -1.892  0.00  0.00     0.076 A 
ATOM      6  C10 <0> d          -0.350  -2.700  -1.760  0.00  0.00     0.088 A 
ATOM      7  O4  <0> d           0.904  -6.103  -1.514  0.00  0.00    -0.321 OA
ATOM      8  C20 <0> d           1.938  -6.816  -1.059  0.00  0.00     0.160 A 
ATOM      9  C21 <0> d           3.001  -6.247  -0.436  0.00  0.00     0.067 A 
ATOM     10  C22 <0> d           3.015  -4.785  -0.254  0.00  0.00     0.199 A 
ATOM     11  O5  <0> d           3.943  -4.219   0.298  0.00  0.00    -0.286 OA
ENDROOT
BRANCH   6  12
ATOM     12  O1  <0> d          -1.431  -2.033  -2.240  0.00  0.00    -0.277 OA
BRANCH  12  13
ATOM     13  C11 <0> d          -1.337  -1.533  -3.482  0.00  0.00     0.295 C 
ATOM     14  O2  <0> d          -0.363  -1.770  -4.157  0.00  0.00    -0.262 OA
BRANCH  13  15
ATOM     15  C12 <0> d          -2.446  -0.675  -4.035  0.00  0.00     0.286 C 
BRANCH  15  16
ATOM     16  C13 <0> d          -2.308   0.749  -3.493  0.00  0.00     0.081 C 
BRANCH  16  17
ATOM     17  C14 <0> d          -3.483   1.575  -3.947  0.00  0.00    -0.056 A 
ATOM     18  C19 <0> d          -4.625   1.637  -3.169  0.00  0.00     0.010 A 
ATOM     19  C18 <0> d          -5.704   2.393  -3.583  0.00  0.00     0.037 A 
ATOM     20  C17 <0> d          -5.642   3.092  -4.780  0.00  0.00     0.065 A 
ATOM     21  C16 <0> d          -4.495   3.029  -5.558  0.00  0.00     0.037 A 
ATOM     22  C15 <0> d          -3.417   2.276  -5.137  0.00  0.00     0.010 A 
BRANCH  20  23
ATOM     23  O3  <0> d          -6.702   3.837  -5.189  0.00  0.00    -0.361 OA
ATOM     24  H21 <0> d          -6.681   4.754  -4.881  0.00  0.00     0.217 HD
ENDBRANCH  20  23
ENDBRANCH  16  17
ENDBRANCH  15  16
BRANCH  15  25
ATOM     25  N2  <0> d          -2.380  -0.635  -5.507  0.00  0.00    -0.066 N 
ATOM     26  H2  <0> d          -1.476  -0.272  -5.806  0.00  0.00     0.275 HD
ATOM     27  H3  <0> d          -2.513  -1.570  -5.888  0.00  0.00     0.275 HD
ATOM     28  H27 <0> d          -3.122  -0.020  -5.861  0.00  0.00     0.275 HD
ENDBRANCH  15  25
ENDBRANCH  13  15
ENDBRANCH  12  13
ENDBRANCH   6  12
BRANCH   1  29
ATOM     29  C4  <0> d           0.588  -0.495  -1.014  0.00  0.00     0.041 C 
BRANCH  29  30
ATOM     30  C3  <0> d          -0.217  -0.140   0.238  0.00  0.00     0.004 C 
BRANCH  30  31
ATOM     31  C2  <0> d          -0.310   1.381   0.369  0.00  0.00    -0.004 C 
ATOM     32  C1  <0> d          -1.115   1.736   1.621  0.00  0.00     0.005 C 
ENDBRANCH  30  31
ENDBRANCH  29  30
ENDBRANCH   1  29
BRANCH   9  33
ATOM     33  C23 <0> d           4.127  -7.080   0.052  0.00  0.00     0.080 A 
ATOM     34  N1  <0> d           5.170  -6.533   0.656  0.00  0.00    -0.245 NA
ATOM     35  C25 <0> d           6.167  -7.262   1.095  0.00  0.00     0.071 A 
ATOM     36  S1  <0> d           5.681  -8.868   0.650  0.00  0.00    -0.085 SA
ATOM     37  C26 <0> d           7.421  -6.818   1.803  0.00  0.00     0.078 C 
ATOM     38  C24 <0> d           4.123  -8.439  -0.112  0.00  0.00     0.084 A 
ENDBRANCH   9  33
TORSDOF 11
