REMARK  3 active torsions:
REMARK  status: ('A' for Active; 'I' for Inactive)
REMARK    1  A    between atoms: N1_5  and  C7_8 
REMARK    2  A    between atoms: C7_8  and  C11_15 
REMARK    3  A    between atoms: C11_15  and  N2_16 
ROOT
ATOM      1  C7  <0> d           3.049  -1.915  -0.720  0.00  0.00     0.196 C 
ATOM      2  C8  <0> d           3.622  -1.456  -2.060  0.00  0.00     0.059 C 
ATOM      3  C9  <0> d           3.812  -2.671  -3.009  0.00  0.00     0.143 C 
ATOM      4  S1  <0> d           2.278  -3.618  -2.609  0.00  0.00     0.147 S 
ATOM      5  O1  <0> d           2.548  -5.009  -2.708  0.00  0.00    -0.228 OA
ATOM      6  O2  <0> d           1.185  -3.061  -3.326  0.00  0.00    -0.228 OA
ATOM      7  C10 <0> d           2.138  -3.153  -0.833  0.00  0.00     0.183 C 
ENDROOT
BRANCH   1   8
ATOM      8  N1  <0> d           2.274  -0.812  -0.136  0.00  0.00     0.100 N 
ATOM      9  C4  <0> d           3.090   0.296   0.114  0.00  0.00     0.273 C 
ATOM     10  C3  <0> d           2.350   1.378   0.930  0.00  0.00     0.030 C 
ATOM     11  C2  <0> d           1.421   2.135   0.016  0.00  0.00     0.002 C 
ATOM     12  C1  <0> d          -0.004   1.548   0.002  0.00  0.00     0.002 C 
ATOM     13  C6  <0> d           0.006   0.010  -0.020  0.00  0.00     0.030 C 
ATOM     14  C5  <0> d           1.072  -0.525  -0.943  0.00  0.00     0.273 C 
ENDBRANCH   1   8
BRANCH   1  15
ATOM     15  C11 <0> d           4.211  -2.246   0.219  0.00  0.00     0.272 C 
BRANCH  15  16
ATOM     16  N2  <0> d           3.683  -2.645   1.530  0.00  0.00    -0.077 N 
ATOM     17  H21 <0> d           3.142  -1.888   1.920  0.00  0.00     0.274 HD
ATOM     18  H22 <0> d           3.095  -3.458   1.423  0.00  0.00     0.274 HD
ATOM     19  H23 <0> d           4.449  -2.863   2.149  0.00  0.00     0.274 HD
ENDBRANCH  15  16
ENDBRANCH   1  15
TORSDOF 3
