REMARK  3 active torsions:
REMARK  status: ('A' for Active; 'I' for Inactive)
REMARK    1  A    between atoms: C2_2  and  C3_3 
REMARK       I    between atoms: C3_3  and  N1_5 
REMARK    2  A    between atoms: N1_5  and  N2_6 
REMARK       I    between atoms: N2_6  and  C4_7 
REMARK    3  A    between atoms: C4_7  and  C5_9 
ROOT
ATOM      1  N2  <0> d           1.143   1.901   0.001  0.00  0.00    -0.263 N 
ATOM      2  C4  <0> d          -0.014   1.211   0.009  0.00  0.00     0.270 C 
ATOM      3  O2  <0> d           0.002  -0.004   0.002  0.00  0.00    -0.266 OA
ATOM      4  H7  <0> d           1.130   2.871   0.007  0.00  0.00     0.190 HD
ENDROOT
BRANCH   2   5
ATOM      5  C5  <0> d          -1.304   1.933   0.019  0.00  0.00     0.033 A 
ATOM      6  C10 <0> d          -2.505   1.221   0.021  0.00  0.00     0.018 A 
ATOM      7  C9  <0> d          -3.706   1.900   0.030  0.00  0.00     0.020 A 
ATOM      8  C8  <0> d          -3.721   3.285   0.038  0.00  0.00     0.011 A 
ATOM      9  C7  <0> d          -2.533   3.996   0.036  0.00  0.00     0.020 A 
ATOM     10 Br1  <0> d          -5.372   4.208   0.052  0.00  0.00    -0.051 Br
ATOM     11  C6  <0> d          -1.327   3.329   0.032  0.00  0.00     0.018 A 
ENDBRANCH   2   5
BRANCH   1  12
ATOM     12  N1  <0> d           2.366   1.217  -0.014  0.00  0.00    -0.267 N 
ATOM     13  C3  <0> d           3.524   1.907  -0.021  0.00  0.00     0.235 C 
ATOM     14  O1  <0> d           3.508   3.120  -0.015  0.00  0.00    -0.272 OA
ATOM     15  H6  <0> d           2.379   0.247  -0.019  0.00  0.00     0.190 HD
BRANCH  13  16
ATOM     16  C2  <0> d           4.839   1.171  -0.038  0.00  0.00     0.100 C 
ATOM     17  C1  <0> d           5.988   2.181  -0.043  0.00  0.00     0.014 C 
ENDBRANCH  13  16
ENDBRANCH   1  12
TORSDOF 3
