REMARK  5 active torsions:
REMARK  status: ('A' for Active; 'I' for Inactive)
REMARK    1  A    between atoms: C2_2  and  N1_3 
REMARK    2  A    between atoms: N1_3  and  C3_4 
REMARK       I    between atoms: N1_3  and  C7_11 
REMARK    3  A    between atoms: C7_11  and  C8_13 
REMARK    4  A    between atoms: C8_13  and  S2_15 
REMARK    5  A    between atoms: S2_15  and  C10_16 
ROOT
ATOM      1  C8  <0> d          -1.172  -0.188   2.577  0.00  0.00     0.139 C 
ATOM      2  C9  <0> d          -1.331   1.327   2.724  0.00  0.00     0.031 C 
ENDROOT
BRANCH   1   3
ATOM      3  C7  <0> d          -1.835  -0.641   1.302  0.00  0.00     0.233 C 
ATOM      4  N1  <0> d          -1.132  -0.676   0.153  0.00  0.00    -0.346 N 
ATOM      5  O3  <0> d          -3.001  -0.974   1.310  0.00  0.00    -0.272 OA
BRANCH   4   6
ATOM      6  C2  <0> d           0.303  -0.380   0.162  0.00  0.00     0.122 C 
ATOM      7  C1  <0> d           0.523   1.086  -0.215  0.00  0.00     0.026 C 
ENDBRANCH   4   6
BRANCH   4   8
ATOM      8  C3  <0> d          -1.803  -1.010  -1.106  0.00  0.00     0.102 C 
ATOM      9  C6  <0> d          -2.425  -2.432  -1.009  0.00  0.00     0.165 C 
ATOM     10  S1  <0> d          -3.661  -2.354  -2.373  0.00  0.00     0.146 S 
ATOM     11  C5  <0> d          -3.847  -0.529  -2.510  0.00  0.00     0.142 C 
ATOM     12  O1  <0> d          -3.066  -2.849  -3.565  0.00  0.00    -0.228 OA
ATOM     13  O2  <0> d          -4.887  -2.911  -1.919  0.00  0.00    -0.228 OA
ATOM     14  C4  <0> d          -2.939  -0.008  -1.371  0.00  0.00     0.041 C 
ENDBRANCH   4   8
ENDBRANCH   1   3
BRANCH   1  15
ATOM     15  S2  <0> d          -1.949  -1.018   3.991  0.00  0.00    -0.109 SA
BRANCH  15  16
ATOM     16  C10 <0> d          -0.952  -0.490   5.412  0.00  0.00     0.247 A 
ATOM     17  N3  <0> d           0.448  -0.892   5.222  0.00  0.00    -0.358 N 
ATOM     18  C16 <0> d           1.167   0.195   5.213  0.00  0.00     0.058 A 
ATOM     19  H22 <0> d           0.776  -1.799   5.123  0.00  0.00     0.162 HD
ATOM     20  C11 <0> d           0.279   1.376   5.397  0.00  0.00     0.057 A 
ATOM     21  C15 <0> d           2.607   0.437   5.062  0.00  0.00     0.055 A 
ATOM     22  N2  <0> d          -0.954   0.975   5.512  0.00  0.00    -0.359 N 
ATOM     23  C12 <0> d           0.902   2.707   5.415  0.00  0.00     0.033 A 
ATOM     24  H21 <0> d          -1.731   1.540   5.641  0.00  0.00     0.162 HD
ATOM     25  C13 <0> d           2.237   2.819   5.268  0.00  0.00     0.026 A 
ATOM     26  C14 <0> d           3.077   1.702   5.094  0.00  0.00     0.036 A 
ATOM     27 Cl1  <0> d           4.784   1.963   4.914  0.00  0.00    -0.084 Cl
ENDBRANCH  15  16
ENDBRANCH   1  15
TORSDOF 5
