REMARK  4 active torsions:
REMARK  status: ('A' for Active; 'I' for Inactive)
REMARK    1  A    between atoms: C7_8  and  N3_13 
REMARK    2  A    between atoms: C8_9  and  N2_12 
REMARK    3  A    between atoms: N3_13  and  C10_14 
REMARK    4  A    between atoms: C10_14  and  C11_15 
ROOT
ATOM      1  C1  <0> d           1.159   0.975   3.413  0.00  0.00     0.021 A 
ATOM      2  C2  <0> d           1.942   1.907   2.803  0.00  0.00     0.032 A 
ATOM      3  C3  <0> d           3.003   1.494   1.977  0.00  0.00     0.044 A 
ATOM      4  C4  <0> d           3.236   0.109   1.797  0.00  0.00     0.021 A 
ATOM      5  C5  <0> d           2.410  -0.824   2.442  0.00  0.00     0.035 A 
ATOM      6  C6  <0> d           1.391  -0.387   3.235  0.00  0.00     0.011 A 
ATOM      7 Br1  <0> d           0.278  -1.646   4.103  0.00  0.00    -0.051 Br
ATOM      8  C7  <0> d           4.302  -0.304   0.967  0.00  0.00     0.068 A 
ATOM      9  C8  <0> d           5.076   0.681   0.364  0.00  0.00     0.069 A 
ATOM     10  C9  <0> d           4.780   2.023   0.592  0.00  0.00     0.119 A 
ATOM     11  N1  <0> d           3.786   2.390   1.366  0.00  0.00    -0.363 N 
ATOM     12  H17 <0> d           3.614   3.336   1.498  0.00  0.00     0.165 HD
ENDROOT
BRANCH   8  13
ATOM     13  N3  <0> d           4.570  -1.654   0.761  0.00  0.00    -0.387 N 
ATOM     14  H8  <0> d           3.902  -2.321   0.985  0.00  0.00     0.159 HD
BRANCH  13  15
ATOM     15  C10 <0> d           5.861  -2.068   0.207  0.00  0.00     0.125 C 
BRANCH  15  16
ATOM     16  C11 <0> d           6.175  -3.497   0.656  0.00  0.00     0.018 C 
ATOM     17  C14 <0> d           7.480  -3.989  -0.031  0.00  0.00     0.146 C 
ATOM     18  S1  <0> d           7.947  -5.377   1.087  0.00  0.00     0.144 S 
ATOM     19  C13 <0> d           7.020  -4.878   2.595  0.00  0.00     0.141 C 
ATOM     20  O1  <0> d           7.393  -6.585   0.582  0.00  0.00    -0.228 OA
ATOM     21  O2  <0> d           9.340  -5.306   1.357  0.00  0.00    -0.228 OA
ATOM     22  C12 <0> d           6.395  -3.526   2.178  0.00  0.00     0.022 C 
ENDBRANCH  15  16
ENDBRANCH  13  15
ENDBRANCH   8  13
BRANCH   9  23
ATOM     23  N2  <0> d           6.147   0.326  -0.469  0.00  0.00    -0.396 N 
ATOM     24  H6  <0> d           6.093  -0.475  -1.014  0.00  0.00     0.156 HD
ATOM     25  H7  <0> d           6.942   0.881  -0.501  0.00  0.00     0.156 HD
ENDBRANCH   9  23
TORSDOF 4
