REMARK  3 active torsions:
REMARK  status: ('A' for Active; 'I' for Inactive)
REMARK    1  A    between atoms: N1_11  and  C12_19 
REMARK    2  A    between atoms: N2_14  and  C10_15 
REMARK    3  A    between atoms: C10_15  and  C11_16 
REMARK       I    between atoms: C11_16  and  N3_18 
ROOT
ATOM      1  C1  <0> d          -3.139  -0.179  -0.666  0.00  0.00     0.046 C 
ATOM      2  C2  <0> d          -2.274  -1.433  -0.528  0.00  0.00     0.058 C 
ATOM      3  C3  <0> d          -1.259  -1.478  -1.676  0.00  0.00     0.078 C 
ATOM      4  C4  <0> d          -0.263  -2.591  -1.379  0.00  0.00    -0.021 A 
ATOM      5  C5  <0> d          -0.159  -3.088  -0.123  0.00  0.00     0.016 A 
ATOM      6  S1  <0> d           1.090  -4.336  -0.232  0.00  0.00    -0.073 SA
ATOM      7  C6  <0> d           1.462  -4.215  -1.846  0.00  0.00     0.097 A 
ATOM      8  C7  <0> d           0.626  -3.203  -2.345  0.00  0.00     0.074 A 
ATOM      9  C8  <0> d           0.742  -2.875  -3.784  0.00  0.00     0.270 A 
ATOM     10  O1  <0> d           0.060  -2.012  -4.306  0.00  0.00    -0.266 OA
ATOM     11  N1  <0> d           1.651  -3.591  -4.487  0.00  0.00    -0.229 N 
ATOM     12  C9  <0> d           2.418  -4.546  -3.943  0.00  0.00     0.337 A 
ATOM     13  O2  <0> d           3.205  -5.133  -4.660  0.00  0.00    -0.246 OA
ATOM     14  N2  <0> d           2.358  -4.890  -2.635  0.00  0.00    -0.283 N 
ATOM     15  C18 <0> d          -0.950  -2.643   1.066  0.00  0.00     0.215 C 
ATOM     16  O4  <0> d          -1.594  -1.404   0.729  0.00  0.00    -0.376 OA
ATOM     17  C19 <0> d          -3.166  -2.674  -0.594  0.00  0.00     0.046 C 
ENDROOT
BRANCH  11  18
ATOM     18  C12 <0> d           1.799  -3.318  -5.854  0.00  0.00     0.047 A 
ATOM     19  C17 <0> d           2.711  -2.361  -6.277  0.00  0.00     0.032 A 
ATOM     20  C16 <0> d           2.859  -2.098  -7.625  0.00  0.00     0.026 A 
ATOM     21  C15 <0> d           2.090  -2.779  -8.552  0.00  0.00     0.034 A 
ATOM     22  C14 <0> d           1.175  -3.729  -8.132  0.00  0.00     0.026 A 
ATOM     23 Cl1  <0> d           2.272  -2.442 -10.245  0.00  0.00    -0.084 Cl
ATOM     24  C13 <0> d           1.028  -4.000  -6.786  0.00  0.00     0.032 A 
ENDBRANCH  11  18
BRANCH  14  25
ATOM     25  C10 <0> d           3.217  -5.941  -2.083  0.00  0.00     0.237 C 
BRANCH  25  26
ATOM     26  C11 <0> d           2.517  -7.271  -2.195  0.00  0.00     0.233 C 
ATOM     27  O3  <0> d           1.410  -7.335  -2.687  0.00  0.00    -0.272 OA
ATOM     28  N3  <0> d           3.121  -8.390  -1.749  0.00  0.00    -0.369 N 
ATOM     29  H8  <0> d           4.006  -8.340  -1.356  0.00  0.00     0.159 HD
ATOM     30  H9  <0> d           2.670  -9.246  -1.821  0.00  0.00     0.159 HD
ENDBRANCH  25  26
ENDBRANCH  14  25
TORSDOF 3
