REMARK  6 active torsions:
REMARK  status: ('A' for Active; 'I' for Inactive)
REMARK    1  A    between atoms: C2_2  and  C3_3 
REMARK    2  A    between atoms: C2_2  and  O3_17 
REMARK       I    between atoms: C3_3  and  N1_5 
REMARK    3  A    between atoms: N1_5  and  N2_6 
REMARK       I    between atoms: N2_6  and  C4_7 
REMARK    4  A    between atoms: C4_7  and  C5_9 
REMARK    5  A    between atoms: C5_9  and  C6_10 
REMARK    6  A    between atoms: O3_17  and  C12_18 
ROOT
ATOM      1  C3  <0> d           0.693  -0.727   1.265  0.00  0.00     0.265 C 
ATOM      2  O1  <0> d          -0.004  -1.180   2.148  0.00  0.00    -0.269 OA
ATOM      3  N1  <0> d           2.030  -0.670   1.424  0.00  0.00    -0.265 N 
ATOM      4  H5  <0> d           2.588  -0.308   0.718  0.00  0.00     0.190 HD
ENDROOT
BRANCH   3   5
ATOM      5  N2  <0> d           2.615  -1.135   2.610  0.00  0.00    -0.267 N 
ATOM      6  C4  <0> d           3.952  -1.078   2.769  0.00  0.00     0.240 C 
ATOM      7  O2  <0> d           4.649  -0.625   1.886  0.00  0.00    -0.272 OA
ATOM      8  H6  <0> d           2.057  -1.497   3.316  0.00  0.00     0.190 HD
BRANCH   6   9
ATOM      9  C5  <0> d           4.580  -1.577   4.045  0.00  0.00     0.144 C 
BRANCH   9  10
ATOM     10  C6  <0> d           6.075  -1.403   3.970  0.00  0.00    -0.028 A 
ATOM     11  C11 <0> d           6.649  -0.193   4.316  0.00  0.00     0.040 A 
ATOM     12  C10 <0> d           8.022  -0.036   4.253  0.00  0.00     0.024 A 
ATOM     13 Cl1  <0> d           5.647   1.125   4.839  0.00  0.00    -0.084 Cl
ATOM     14  C9  <0> d           8.819  -1.084   3.831  0.00  0.00     0.002 A 
ATOM     15  C8  <0> d           8.244  -2.291   3.479  0.00  0.00     0.001 A 
ATOM     16  C7  <0> d           6.873  -2.451   3.548  0.00  0.00     0.009 A 
ENDBRANCH   9  10
ENDBRANCH   6   9
ENDBRANCH   3   5
BRANCH   1  17
ATOM     17  C2  <0> d           0.064  -0.228  -0.010  0.00  0.00     0.218 C 
ATOM     18  C1  <0> d           0.290   1.280  -0.134  0.00  0.00     0.050 C 
BRANCH  17  19
ATOM     19  O3  <0> d          -1.339  -0.499   0.012  0.00  0.00    -0.337 OA
BRANCH  19  20
ATOM     20  C12 <0> d          -1.965  -0.607  -1.189  0.00  0.00     0.071 A 
ATOM     21  C17 <0> d          -3.300  -0.980  -1.244  0.00  0.00     0.055 A 
ATOM     22  C16 <0> d          -3.937  -1.083  -2.467  0.00  0.00     0.013 A 
ATOM     23  C15 <0> d          -3.241  -0.826  -3.635  0.00  0.00     0.019 A 
ATOM     24 Br1  <0> d          -5.759  -1.584  -2.544  0.00  0.00    -0.051 Br
ATOM     25  C14 <0> d          -1.909  -0.459  -3.581  0.00  0.00     0.004 A 
ATOM     26  C13 <0> d          -1.270  -0.349  -2.361  0.00  0.00     0.037 A 
ENDBRANCH  19  20
ENDBRANCH  17  19
ENDBRANCH   1  17
TORSDOF 6
