REMARK  3 active torsions:
REMARK  status: ('A' for Active; 'I' for Inactive)
REMARK    1  A    between atoms: C2_2  and  C6_8 
REMARK    2  A    between atoms: C6_8  and  C7_9 
REMARK    3  A    between atoms: C6_8  and  N3_20 
ROOT
ATOM      1  C7  <0> d           1.496   4.056   1.408  0.00  0.00    -0.001 A 
ATOM      2  C8  <0> d           2.770   4.460   1.768  0.00  0.00     0.021 A 
ATOM      3  C9  <0> d           3.014   4.906   3.047  0.00  0.00    -0.022 A 
ATOM      4  C10 <0> d           1.994   4.959   3.989  0.00  0.00     0.043 A 
ATOM      5  C11 <0> d           0.714   4.551   3.621  0.00  0.00     0.054 A 
ATOM      6  C12 <0> d           0.470   4.108   2.335  0.00  0.00     0.044 A 
ATOM      7 Cl1  <0> d          -1.129   3.609   1.882  0.00  0.00    -0.084 Cl
ATOM      8  N2  <0> d           2.483   5.443   5.203  0.00  0.00    -0.326 N 
ATOM      9  C13 <0> d           3.795   5.728   5.146  0.00  0.00     0.226 A 
ATOM     10  O1  <0> d           4.478   6.162   6.049  0.00  0.00    -0.273 OA
ATOM     11  C14 <0> d           4.260   5.407   3.741  0.00  0.00     0.144 A 
ATOM     12  H7  <0> d           1.938   5.561   5.997  0.00  0.00     0.169 HD
ENDROOT
BRANCH   1  13
ATOM     13  C6  <0> d           1.226   3.566   0.009  0.00  0.00     0.252 C 
BRANCH  13  14
ATOM     14  C2  <0> d           1.194   2.059   0.002  0.00  0.00    -0.005 A 
ATOM     15  C1  <0> d          -0.017   1.383   0.010  0.00  0.00     0.031 A 
ATOM     16  C5  <0> d           0.002  -0.004   0.002  0.00  0.00     0.029 A 
ATOM     17  C4  <0> d           1.219  -0.661  -0.013  0.00  0.00     0.135 A 
ATOM     18 Br1  <0> d          -1.615  -0.984   0.013  0.00  0.00    -0.050 Br
ATOM     19  N1  <0> d           2.351   0.016  -0.020  0.00  0.00    -0.271 NA
ATOM     20  C3  <0> d           2.370   1.334  -0.013  0.00  0.00     0.126 A 
ENDBRANCH  13  14
BRANCH  13  21
ATOM     21  N3  <0> d           2.289   4.037  -0.889  0.00  0.00    -0.067 N 
ATOM     22  H10 <0> d           3.178   3.680  -0.574  0.00  0.00     0.275 HD
ATOM     23  H11 <0> d           2.108   3.709  -1.826  0.00  0.00     0.275 HD
ATOM     24  H12 <0> d           2.310   5.046  -0.884  0.00  0.00     0.275 HD
ENDBRANCH  13  21
ENDBRANCH   1  13
TORSDOF 3
