REMARK  5 active torsions:
REMARK  status: ('A' for Active; 'I' for Inactive)
REMARK    1  A    between atoms: C2_2  and  C4_4 
REMARK    2  A    between atoms: C11_14  and  N2_16 
REMARK       I    between atoms: N2_16  and  C13_17 
REMARK    3  A    between atoms: C13_17  and  C14_19 
REMARK    4  A    between atoms: C14_19  and  C15_20 
REMARK    5  A    between atoms: C15_20  and  C16_21 
ROOT
ATOM      1  C4  <0> d          -1.036  -0.557   0.186  0.00  0.00    -0.037 A 
ATOM      2  C5  <0> d          -1.459  -1.442  -0.751  0.00  0.00     0.082 A 
ATOM      3  C6  <0> d          -2.774  -1.949  -0.707  0.00  0.00     0.246 A 
ATOM      4  O1  <0> d          -3.134  -2.744  -1.559  0.00  0.00    -0.268 OA
ATOM      5  N1  <0> d          -3.642  -1.579   0.251  0.00  0.00    -0.323 N 
ATOM      6  H1  <0> d          -4.539  -1.947   0.252  0.00  0.00     0.169 HD
ATOM      7  C7  <0> d          -3.273  -0.683   1.233  0.00  0.00     0.048 A 
ATOM      8  C8  <0> d          -1.968  -0.151   1.236  0.00  0.00    -0.002 A 
ATOM      9  C9  <0> d          -1.585   0.755   2.232  0.00  0.00     0.016 A 
ATOM     10  C10 <0> d          -2.476   1.117   3.200  0.00  0.00     0.030 A 
ATOM     11  C11 <0> d          -3.768   0.589   3.205  0.00  0.00     0.036 A 
ATOM     12  C12 <0> d          -4.169  -0.301   2.222  0.00  0.00     0.060 A 
ENDROOT
BRANCH  11  13
ATOM     13  N2  <0> d          -4.667   0.970   4.203  0.00  0.00    -0.327 N 
ATOM     14  C13 <0> d          -5.975   1.111   3.914  0.00  0.00     0.222 C 
ATOM     15  O2  <0> d          -6.386   0.827   2.808  0.00  0.00    -0.273 OA
ATOM     16  H13 <0> d          -4.349   1.132   5.105  0.00  0.00     0.169 HD
BRANCH  14  17
ATOM     17  C14 <0> d          -6.928   1.623   4.963  0.00  0.00     0.104 C 
BRANCH  17  18
ATOM     18  C15 <0> d          -8.341   1.688   4.380  0.00  0.00     0.020 C 
BRANCH  18  19
ATOM     19  C16 <0> d          -9.309   2.208   5.446  0.00  0.00     0.085 C 
ATOM     20 Br1  <0> d         -11.125   2.292   4.697  0.00  0.00    -0.097 Br
ENDBRANCH  18  19
ENDBRANCH  17  18
ENDBRANCH  14  17
ENDBRANCH  11  13
BRANCH   1  21
ATOM     21  C2  <0> d           0.368  -0.009   0.148  0.00  0.00     0.011 C 
ATOM     22  C1  <0> d           1.212  -0.694   1.225  0.00  0.00     0.015 C 
ATOM     23  C3  <0> d           0.982  -0.274  -1.228  0.00  0.00     0.015 C 
ENDBRANCH   1  21
TORSDOF 5
