REMARK  4 active torsions:
REMARK  status: ('A' for Active; 'I' for Inactive)
REMARK    1  A    between atoms: C5_5  and  C6_7 
REMARK    2  A    between atoms: C6_7  and  N1_9 
REMARK       I    between atoms: N1_9  and  C8_10 
REMARK       I    between atoms: C8_10  and  N2_12 
REMARK    3  A    between atoms: N2_12  and  C9_13 
REMARK    4  A    between atoms: C12_16  and  N4_19 
ROOT
ATOM      1  C9  <0> d           3.972  -6.591   2.885  0.00  0.00     0.051 A 
ATOM      2  C10 <0> d           3.258  -7.766   2.655  0.00  0.00     0.035 A 
ATOM      3  C11 <0> d           3.634  -8.909   3.335  0.00  0.00     0.051 A 
ATOM      4  C12 <0> d           4.704  -8.849   4.222  0.00  0.00     0.103 A 
ATOM      5  N3  <0> d           5.359  -7.716   4.417  0.00  0.00    -0.350 N 
ATOM      6  C13 <0> d           5.031  -6.607   3.780  0.00  0.00     0.119 A 
ATOM      7  H27 <0> d           6.101  -7.700   5.041  0.00  0.00     0.166 HD
ENDROOT
BRANCH   1   8
ATOM      8  N2  <0> d           3.627  -5.407   2.217  0.00  0.00    -0.308 N 
ATOM      9  C8  <0> d           2.334  -5.140   1.944  0.00  0.00     0.321 C 
ATOM     10  N1  <0> d           1.993  -3.963   1.383  0.00  0.00    -0.334 N 
ATOM     11  O1  <0> d           1.476  -5.961   2.204  0.00  0.00    -0.247 OA
ATOM     12  H10 <0> d           2.678  -3.308   1.175  0.00  0.00     0.165 HD
ATOM     13  H11 <0> d           4.318  -4.781   1.951  0.00  0.00     0.170 HD
BRANCH  10  14
ATOM     14  C6  <0> d           0.588  -3.673   1.086  0.00  0.00     0.122 C 
ATOM     15  C7  <0> d           0.222  -4.262  -0.277  0.00  0.00     0.038 C 
BRANCH  14  16
ATOM     16  C5  <0> d           0.378  -2.181   1.062  0.00  0.00     0.005 A 
ATOM     17  C4  <0> d          -0.663  -1.457   1.541  0.00  0.00     0.018 A 
ATOM     18  C3  <0> d          -0.642  -0.082   1.407  0.00  0.00     0.015 A 
ATOM     19  C2  <0> d           0.419   0.503   0.799  0.00  0.00    -0.021 A 
ATOM     20  C1  <0> d           0.673   1.965   0.533  0.00  0.00     0.056 C 
ATOM     21  S1  <0> d           1.433  -0.908   0.388  0.00  0.00    -0.098 SA
ENDBRANCH  14  16
ENDBRANCH  10  14
ENDBRANCH   1   8
BRANCH   4  22
ATOM     22  N4  <0> d           5.090  -9.995   4.913  0.00  0.00    -0.362 N 
ATOM     23  C17 <0> d           4.463 -11.296   4.633  0.00  0.00     0.156 C 
ATOM     24  C16 <0> d           4.013 -11.916   5.956  0.00  0.00     0.136 C 
ATOM     25  O2  <0> d           5.110 -11.924   6.871  0.00  0.00    -0.378 OA
ATOM     26  C18 <0> d           3.537 -13.350   5.715  0.00  0.00     0.041 C 
ATOM     27  C15 <0> d           5.598 -10.624   7.212  0.00  0.00     0.136 C 
ATOM     28  C14 <0> d           6.134  -9.939   5.949  0.00  0.00     0.156 C 
ATOM     29  C19 <0> d           6.725 -10.753   8.239  0.00  0.00     0.041 C 
ENDBRANCH   4  22
TORSDOF 4
