REMARK  5 active torsions:
REMARK  status: ('A' for Active; 'I' for Inactive)
REMARK       I    between atoms: N1_4  and  C6_7 
REMARK    1  A    between atoms: C6_7  and  C7_9 
REMARK    2  A    between atoms: C7_9  and  N2_10 
REMARK    3  A    between atoms: C13_19  and  N4_20 
REMARK    4  A    between atoms: N5_23  and  C18_26 
REMARK    5  A    between atoms: C18_26  and  C19_27 
REMARK       I    between atoms: C19_27  and  N6_29 
ROOT
ATOM      1  N2  <0> d           4.324  -2.831   1.696  0.00  0.00    -0.136 N 
ATOM      2  C8  <0> d           4.978  -3.255   0.598  0.00  0.00     0.276 A 
ATOM      3  O2  <0> d           4.434  -3.233  -0.493  0.00  0.00    -0.266 OA
ATOM      4  C9  <0> d           6.320  -3.730   0.732  0.00  0.00     0.076 A 
ATOM      5  C10 <0> d           7.212  -4.235  -0.325  0.00  0.00    -0.026 A 
ATOM      6  C11 <0> d           8.439  -4.628   0.053  0.00  0.00    -0.008 A 
ATOM      7  S1  <0> d           8.490  -4.354   1.809  0.00  0.00    -0.073 SA
ATOM      8  C12 <0> d           6.851  -3.712   2.029  0.00  0.00     0.133 A 
ATOM      9  N3  <0> d           6.152  -3.282   3.074  0.00  0.00    -0.056 NA
ATOM     10  C13 <0> d           4.919  -2.844   2.923  0.00  0.00     0.709 A 
ATOM     11  C20 <0> d           9.258  -5.128  -1.106  0.00  0.00     0.047 C 
ATOM     12  C21 <0> d           8.225  -5.401  -2.221  0.00  0.00     0.010 C 
ATOM     13  C22 <0> d           7.088  -4.434  -1.838  0.00  0.00     0.041 C 
ENDROOT
BRANCH  10  14
ATOM     14  N4  <0> d           4.221  -2.399   4.018  0.00  0.00    -0.212 N 
ATOM     15  C17 <0> d           4.275  -0.987   4.427  0.00  0.00     0.169 C 
ATOM     16  C16 <0> d           4.603  -0.921   5.918  0.00  0.00     0.256 C 
ATOM     17  N5  <0> d           3.638  -1.733   6.669  0.00  0.00    -0.060 N 
ATOM     18  C15 <0> d           3.776  -3.147   6.295  0.00  0.00     0.256 C 
ATOM     19  H31 <0> d           2.702  -1.421   6.460  0.00  0.00     0.280 HD
ATOM     20  C14 <0> d           3.402  -3.322   4.819  0.00  0.00     0.169 C 
BRANCH  17  21
ATOM     21  C18 <0> d           3.890  -1.583   8.108  0.00  0.00     0.336 C 
BRANCH  21  22
ATOM     22  C19 <0> d           3.630  -0.156   8.518  0.00  0.00     0.241 C 
ATOM     23  O3  <0> d           3.270   0.655   7.692  0.00  0.00    -0.272 OA
ATOM     24  N6  <0> d           3.797   0.217   9.802  0.00  0.00    -0.369 N 
ATOM     25  H23 <0> d           4.085  -0.432  10.463  0.00  0.00     0.159 HD
ATOM     26  H24 <0> d           3.629   1.136  10.065  0.00  0.00     0.159 HD
ENDBRANCH  21  22
ENDBRANCH  17  21
ENDBRANCH  10  14
BRANCH   1  27
ATOM     27  C7  <0> d           2.949  -2.341   1.569  0.00  0.00     0.254 C 
BRANCH  27  28
ATOM     28  C6  <0> d           2.968  -0.883   1.192  0.00  0.00     0.238 C 
ATOM     29  N1  <0> d           1.809  -0.216   1.020  0.00  0.00    -0.351 N 
ATOM     30  C3  <0> d           1.811   1.206   0.651  0.00  0.00     0.126 C 
ATOM     31  C4  <0> d           0.520  -0.898   1.196  0.00  0.00     0.126 C 
ATOM     32  C2  <0> d           0.952   1.392  -0.603  0.00  0.00     0.020 C 
ATOM     33  C1  <0> d          -0.441   0.810  -0.353  0.00  0.00     0.003 C 
ATOM     34  C5  <0> d          -0.325  -0.689  -0.065  0.00  0.00     0.020 C 
ATOM     35  O1  <0> d           4.026  -0.308   1.043  0.00  0.00    -0.272 OA
ENDBRANCH  27  28
ENDBRANCH   1  27
TORSDOF 5
