REMARK  5 active torsions:
REMARK  status: ('A' for Active; 'I' for Inactive)
REMARK    1  A    between atoms: C2_2  and  C3_3 
REMARK    2  A    between atoms: N1_8  and  C8_9 
REMARK    3  A    between atoms: C9_10  and  C14_16 
REMARK    4  A    between atoms: C14_16  and  N4_19 
REMARK    5  A    between atoms: N3_17  and  O1_18 
ROOT
ATOM      1  C8  <0> d          -1.241   0.460   2.353  0.00  0.00     0.140 A 
ATOM      2  C9  <0> d          -1.091   1.850   2.486  0.00  0.00     0.057 A 
ATOM      3  C10 <0> d          -2.229   2.658   2.427  0.00  0.00     0.021 A 
ATOM      4  C11 <0> d          -3.459   2.051   2.238  0.00  0.00     0.028 A 
ATOM      5  C12 <0> d          -3.527   0.676   2.115  0.00  0.00     0.033 A 
ATOM      6  N2  <0> d          -2.440  -0.069   2.169  0.00  0.00    -0.235 NA
ATOM      7  C13 <0> d          -4.867   0.017   1.910  0.00  0.00     0.070 C 
ENDROOT
BRANCH   1   8
ATOM      8  N1  <0> d          -0.127  -0.361   2.409  0.00  0.00    -0.360 N 
ATOM      9  C3  <0> d           0.657  -0.643   1.199  0.00  0.00     0.085 C 
ATOM     10  C4  <0> d           0.783  -2.161   1.032  0.00  0.00     0.025 C 
ATOM     11  C5  <0> d           1.364  -2.765   2.312  0.00  0.00     0.004 C 
ATOM     12  C6  <0> d           0.422  -2.485   3.484  0.00  0.00     0.020 C 
ATOM     13  C7  <0> d           0.292  -0.971   3.679  0.00  0.00     0.125 C 
BRANCH   9  14
ATOM     14  C2  <0> d          -0.051  -0.050  -0.021  0.00  0.00     0.021 C 
ATOM     15  C1  <0> d           0.836  -0.216  -1.256  0.00  0.00     0.007 C 
ENDBRANCH   9  14
ENDBRANCH   1   8
BRANCH   2  16
ATOM     16  C14 <0> d           0.246   2.446   2.687  0.00  0.00     0.162 C 
ATOM     17  N3  <0> d           1.285   1.677   2.847  0.00  0.00    -0.117 NA
BRANCH  17  18
ATOM     18  O1  <0> d           2.547   2.245   3.146  0.00  0.00    -0.264 OA
ATOM     19  H20 <0> d           3.256   1.596   3.247  0.00  0.00     0.247 HD
ENDBRANCH  17  18
BRANCH  16  20
ATOM     20  N4  <0> d           0.395   3.823   2.704  0.00  0.00    -0.381 N 
ATOM     21  H21 <0> d          -0.379   4.396   2.584  0.00  0.00     0.157 HD
ATOM     22  H22 <0> d           1.273   4.214   2.835  0.00  0.00     0.157 HD
ENDBRANCH  16  20
ENDBRANCH   2  16
TORSDOF 5
