REMARK  3 active torsions:
REMARK  status: ('A' for Active; 'I' for Inactive)
REMARK    1  A    between atoms: C4_5  and  C5_6 
REMARK    2  A    between atoms: C6_7  and  C7_8 
REMARK       I    between atoms: C7_8  and  N1_10 
REMARK    3  A    between atoms: N1_10  and  C8_11 
ROOT
ATOM      1  C7  <0> d          -1.937  -3.155  -0.066  0.00  0.00     0.241 C 
ATOM      2  O1  <0> d          -3.079  -2.737  -0.116  0.00  0.00    -0.269 OA
ATOM      3  N1  <0> d          -1.707  -4.482  -0.005  0.00  0.00    -0.344 N 
ATOM      4  H6  <0> d          -0.797  -4.815   0.035  0.00  0.00     0.163 HD
ENDROOT
BRANCH   3   5
ATOM      5  C8  <0> d          -2.832  -5.421   0.001  0.00  0.00     0.177 C 
ATOM      6  C13 <0> d          -3.388  -5.557  -1.401  0.00  0.00     0.240 C 
ATOM      7  N2  <0> d          -2.564  -5.780  -2.429  0.00  0.00    -0.359 N 
ATOM      8  O2  <0> d          -4.583  -5.468  -1.587  0.00  0.00    -0.271 OA
ATOM      9  C12 <0> d          -1.111  -5.883  -2.213  0.00  0.00     0.122 C 
ATOM     10  H15 <0> d          -2.926  -5.873  -3.324  0.00  0.00     0.162 HD
ATOM     11  C11 <0> d          -0.814  -7.209  -1.510  0.00  0.00     0.020 C 
ATOM     12  C10 <0> d          -0.935  -7.063  -0.005  0.00  0.00     0.004 C 
ATOM     13  C9  <0> d          -2.351  -6.795   0.473  0.00  0.00     0.035 C 
ENDBRANCH   3   5
BRANCH   1  14
ATOM     14  C6  <0> d          -0.851  -2.249  -0.072  0.00  0.00     0.075 C 
ATOM     15  C5  <0> d          -1.083  -0.913  -0.133  0.00  0.00     0.024 C 
BRANCH  15  16
ATOM     16  C4  <0> d           0.003  -0.007  -0.139  0.00  0.00     0.006 A 
ATOM     17  C1  <0> d          -0.015   1.383  -0.197  0.00  0.00     0.021 A 
ATOM     18  C2  <0> d           1.214   1.995  -0.186  0.00  0.00     0.028 A 
ATOM     19  C3  <0> d           2.333   1.228  -0.122  0.00  0.00     0.052 A 
ATOM     20  S1  <0> d           1.752  -0.347  -0.074  0.00  0.00    -0.083 SA
ATOM     21 Br1  <0> d           4.135   1.802  -0.093  0.00  0.00    -0.043 Br
ENDBRANCH  15  16
ENDBRANCH   1  14
TORSDOF 3
