REMARK  5 active torsions:
REMARK  status: ('A' for Active; 'I' for Inactive)
REMARK    1  A    between atoms: C6_6  and  N1_7 
REMARK       I    between atoms: N1_7  and  C7_8 
REMARK    2  A    between atoms: C7_8  and  C8_10 
REMARK    3  A    between atoms: C8_10  and  O2_11 
REMARK    4  A    between atoms: O2_11  and  C9_12 
REMARK    5  A    between atoms: C9_12  and  C10_14 
ROOT
ATOM      1  N1  <0> d          -1.202  -0.720   0.010  0.00  0.00    -0.325 N 
ATOM      2  C7  <0> d          -2.374  -0.065   0.126  0.00  0.00     0.246 C 
ATOM      3  O1  <0> d          -2.393   1.148   0.133  0.00  0.00    -0.271 OA
ATOM      4  H8  <0> d          -1.192  -1.687  -0.063  0.00  0.00     0.169 HD
ENDROOT
BRANCH   2   5
ATOM      5  C8  <0> d          -3.662  -0.839   0.248  0.00  0.00     0.281 C 
BRANCH   5   6
ATOM      6  O2  <0> d          -4.757   0.072   0.358  0.00  0.00    -0.311 OA
BRANCH   6   7
ATOM      7  C9  <0> d          -5.983  -0.461   0.474  0.00  0.00     0.268 C 
ATOM      8  O3  <0> d          -6.122  -1.661   0.483  0.00  0.00    -0.264 OA
BRANCH   7   9
ATOM      9  C10 <0> d          -7.187   0.437   0.595  0.00  0.00     0.050 C 
ATOM     10  C15 <0> d          -8.451  -0.416   0.714  0.00  0.00     0.024 C 
ATOM     11  C14 <0> d          -9.673   0.496   0.836  0.00  0.00    -0.011 C 
ATOM     12  C13 <0> d          -9.773   1.384  -0.406  0.00  0.00     0.009 C 
ATOM     13  C16 <0> d          -9.532   1.374   2.081  0.00  0.00     0.030 C 
ATOM     14  C12 <0> d          -8.509   2.238  -0.525  0.00  0.00    -0.011 C 
ATOM     15  C11 <0> d          -7.287   1.326  -0.647  0.00  0.00     0.024 C 
ATOM     16  C18 <0> d          -8.367   3.116   0.720  0.00  0.00     0.030 C 
ATOM     17  C17 <0> d          -8.268   2.228   1.962  0.00  0.00     0.039 C 
ATOM     18  C19 <0> d          -7.046   1.315   1.840  0.00  0.00     0.045 C 
ATOM     19 Cl1  <0> d          -8.101   3.262   3.429  0.00  0.00    -0.119 Cl
ENDBRANCH   7   9
ENDBRANCH   6   7
ENDBRANCH   5   6
ENDBRANCH   2   5
BRANCH   1  20
ATOM     20  C6  <0> d           0.002  -0.003  -0.006  0.00  0.00     0.037 A 
ATOM     21  C1  <0> d           1.138  -0.544   0.584  0.00  0.00     0.032 A 
ATOM     22  C2  <0> d           2.328   0.157   0.572  0.00  0.00     0.034 A 
ATOM     23  C3  <0> d           2.390   1.404  -0.031  0.00  0.00     0.063 A 
ATOM     24  N3  <0> d           3.416   2.332  -0.202  0.00  0.00    -0.307 N 
ATOM     25  C4  <0> d           1.250   1.950  -0.625  0.00  0.00     0.065 A 
ATOM     26  C20 <0> d           2.922   3.392  -0.869  0.00  0.00     0.325 A 
ATOM     27  H4  <0> d           4.330   2.232   0.107  0.00  0.00     0.170 HD
ATOM     28  N2  <0> d           1.618   3.191  -1.138  0.00  0.00    -0.306 N 
ATOM     29  O4  <0> d           3.557   4.382  -1.181  0.00  0.00    -0.247 OA
ATOM     30  H3  <0> d           1.034   3.807  -1.608  0.00  0.00     0.170 HD
ATOM     31  C5  <0> d           0.057   1.244  -0.610  0.00  0.00     0.061 A 
ENDBRANCH   1  20
TORSDOF 5
