REMARK  5 active torsions:
REMARK  status: ('A' for Active; 'I' for Inactive)
REMARK    1  A    between atoms: C2_2  and  C3_3 
REMARK    2  A    between atoms: C3_3  and  C15_25 
REMARK    3  A    between atoms: N1_6  and  N3_10 
REMARK       I    between atoms: N3_10  and  C6_11 
REMARK    4  A    between atoms: C6_11  and  C7_13 
REMARK    5  A    between atoms: C9_15  and  C10_19 
ROOT
ATOM      1  C3  <0> d          -5.470   3.573  -0.563  0.00  0.00     0.145 A 
ATOM      2  C4  <0> d          -4.374   2.639  -1.038  0.00  0.00     0.280 A 
ATOM      3  O1  <0> d          -4.237   2.178  -2.151  0.00  0.00    -0.268 OA
ATOM      4  N1  <0> d          -3.585   2.429   0.033  0.00  0.00    -0.167 N 
ATOM      5  C5  <0> d          -4.028   3.088   1.110  0.00  0.00     0.345 A 
ATOM      6  O2  <0> d          -3.484   3.051   2.196  0.00  0.00    -0.245 OA
ATOM      7  N2  <0> d          -5.140   3.801   0.854  0.00  0.00    -0.319 N 
ATOM      8  H7  <0> d          -5.630   4.355   1.481  0.00  0.00     0.166 HD
ENDROOT
BRANCH   4   9
ATOM      9  N3  <0> d          -2.445   1.615   0.023  0.00  0.00    -0.251 N 
ATOM     10  C6  <0> d          -1.218   2.173   0.020  0.00  0.00     0.291 C 
ATOM     11  O3  <0> d          -1.101   3.383   0.025  0.00  0.00    -0.264 OA
ATOM     12  H8  <0> d          -2.538   0.649   0.019  0.00  0.00     0.191 HD
BRANCH  10  13
ATOM     13  C7  <0> d          -0.016   1.314   0.009  0.00  0.00     0.148 A 
ATOM     14  N5  <0> d           0.002  -0.004   0.002  0.00  0.00    -0.169 NA
ATOM     15  N4  <0> d           1.211  -0.438  -0.012  0.00  0.00    -0.276 N 
ATOM     16  C9  <0> d           2.083   0.613  -0.015  0.00  0.00     0.069 A 
ATOM     17  H1  <0> d           1.475  -1.402  -0.020  0.00  0.00     0.189 HD
ATOM     18  C8  <0> d           1.325   1.754  -0.001  0.00  0.00     0.071 A 
BRANCH  16  19
ATOM     19  C10 <0> d           3.554   0.535  -0.029  0.00  0.00     0.033 A 
ATOM     20  S1  <0> d           4.752   1.859  -0.033  0.00  0.00    -0.093 SA
ATOM     21  C13 <0> d           6.232   0.862  -0.052  0.00  0.00    -0.021 A 
ATOM     22  C12 <0> d           5.726  -0.399  -0.053  0.00  0.00     0.015 A 
ATOM     23  C14 <0> d           7.672   1.305  -0.063  0.00  0.00     0.056 C 
ATOM     24  C11 <0> d           4.361  -0.574  -0.037  0.00  0.00     0.022 A 
ENDBRANCH  16  19
ENDBRANCH  10  13
ENDBRANCH   4   9
BRANCH   1  25
ATOM     25  C2  <0> d          -6.841   2.907  -0.700  0.00  0.00     0.042 C 
ATOM     26  C1  <0> d          -6.912   1.692   0.228  0.00  0.00     0.008 C 
ENDBRANCH   1  25
BRANCH   1  27
ATOM     27  C15 <0> d          -5.433   4.869  -1.332  0.00  0.00    -0.021 A 
ATOM     28  C20 <0> d          -4.658   5.919  -0.878  0.00  0.00     0.010 A 
ATOM     29  C19 <0> d          -4.624   7.108  -1.583  0.00  0.00     0.001 A 
ATOM     30  C18 <0> d          -5.364   7.245  -2.742  0.00  0.00     0.000 A 
ATOM     31  C17 <0> d          -6.138   6.194  -3.197  0.00  0.00     0.001 A 
ATOM     32  C16 <0> d          -6.169   5.004  -2.494  0.00  0.00     0.010 A 
ENDBRANCH   1  27
TORSDOF 5
