REMARK  5 active torsions:
REMARK  status: ('A' for Active; 'I' for Inactive)
REMARK    1  A    between atoms: C8_9  and  N2_11 
REMARK    2  A    between atoms: N3_14  and  C13_17 
REMARK    3  A    between atoms: C13_17  and  C14_18 
REMARK    4  A    between atoms: C14_18  and  C15_19 
REMARK    5  A    between atoms: C15_19  and  N4_20 
ROOT
ATOM      1  N2  <0> d           0.092  -6.101   1.571  0.00  0.00    -0.357 N 
ATOM      2  C9  <0> d           0.107  -7.107   0.498  0.00  0.00     0.155 C 
ATOM      3  C10 <0> d           1.253  -8.088   0.766  0.00  0.00     0.292 C 
ATOM      4  N3  <0> d           1.121  -8.630   2.125  0.00  0.00     0.091 N 
ATOM      5  C11 <0> d           1.245  -7.571   3.136  0.00  0.00     0.292 C 
ATOM      6  C12 <0> d           0.105  -6.569   2.965  0.00  0.00     0.155 C 
ENDROOT
BRANCH   1   7
ATOM      7  C8  <0> d           0.072  -4.753   1.277  0.00  0.00     0.170 A 
ATOM      8  S1  <0> d           0.059  -3.361   2.398  0.00  0.00    -0.050 SA
ATOM      9  C6  <0> d           0.035  -2.081   1.166  0.00  0.00     0.038 A 
ATOM     10  C5  <0> d           0.039  -2.822  -0.038  0.00  0.00     0.083 A 
ATOM     11  C7  <0> d           0.023  -0.709   1.192  0.00  0.00     0.028 A 
ATOM     12  C4  <0> d           0.024  -2.068  -1.234  0.00  0.00    -0.031 A 
ATOM     13  N1  <0> d           0.058  -4.165   0.102  0.00  0.00    -0.223 NA
ATOM     14  C3  <0> d           0.006  -0.698  -1.199  0.00  0.00     0.015 A 
ATOM     15  C16 <0> d           0.027  -2.780  -2.563  0.00  0.00     0.050 C 
ATOM     16  C2  <0> d           0.002  -0.004   0.002  0.00  0.00    -0.060 A 
ATOM     17  C1  <0> d          -0.018   1.503   0.010  0.00  0.00     0.048 C 
ENDBRANCH   1   7
BRANCH   4  18
ATOM     18  C13 <0> d           2.099  -9.700   2.362  0.00  0.00     0.274 C 
BRANCH  18  19
ATOM     19  C14 <0> d           1.774 -10.406   3.680  0.00  0.00     0.057 C 
BRANCH  19  20
ATOM     20  C15 <0> d           2.793 -11.521   3.926  0.00  0.00     0.231 C 
BRANCH  20  21
ATOM     21  N4  <0> d           2.481 -12.198   5.192  0.00  0.00    -0.079 N 
ATOM     22  H20 <0> d           2.522 -11.532   5.949  0.00  0.00     0.274 HD
ATOM     23  H21 <0> d           1.554 -12.594   5.142  0.00  0.00     0.274 HD
ATOM     24  H25 <0> d           3.152 -12.933   5.355  0.00  0.00     0.274 HD
ENDBRANCH  20  21
ENDBRANCH  19  20
ENDBRANCH  18  19
ENDBRANCH   4  18
TORSDOF 5
