REMARK  5 active torsions:
REMARK  status: ('A' for Active; 'I' for Inactive)
REMARK    1  A    between atoms: S1_2  and  C2_5 
REMARK    2  A    between atoms: C5_8  and  N1_11 
REMARK       I    between atoms: N1_11  and  C8_12 
REMARK    3  A    between atoms: C8_12  and  C9_14 
REMARK    4  A    between atoms: C9_14  and  O4_15 
REMARK    5  A    between atoms: O4_15  and  C10_16 
ROOT
ATOM      1  N1  <0> d          -2.490   2.781   5.208  0.00  0.00    -0.325 N 
ATOM      2  C8  <0> d          -2.226   3.964   5.798  0.00  0.00     0.246 C 
ATOM      3  O3  <0> d          -1.530   4.781   5.235  0.00  0.00    -0.271 OA
ATOM      4  H8  <0> d          -3.189   2.075   5.679  0.00  0.00     0.169 HD
ENDROOT
BRANCH   1   5
ATOM      5  C5  <0> d          -1.875   2.453   3.994  0.00  0.00     0.034 A 
ATOM      6  C4  <0> d          -2.550   1.680   3.059  0.00  0.00     0.031 A 
ATOM      7  C3  <0> d          -1.943   1.361   1.861  0.00  0.00     0.025 A 
ATOM      8  C2  <0> d          -0.659   1.803   1.595  0.00  0.00     0.059 A 
ATOM      9  C7  <0> d           0.015   2.573   2.524  0.00  0.00     0.025 A 
ATOM     10  C6  <0> d          -0.589   2.900   3.723  0.00  0.00     0.031 A 
BRANCH   8  11
ATOM     11  S1  <0> d           0.115   1.389   0.068  0.00  0.00     0.171 S 
ATOM     12  C1  <0> d           0.978  -0.174   0.391  0.00  0.00     0.167 C 
ATOM     13  O1  <0> d           1.055   2.430  -0.156  0.00  0.00    -0.223 OA
ATOM     14  O2  <0> d          -0.960   1.176  -0.837  0.00  0.00    -0.223 OA
ENDBRANCH   8  11
ENDBRANCH   1   5
BRANCH   2  15
ATOM     15  C9  <0> d          -2.796   4.269   7.160  0.00  0.00     0.280 C 
BRANCH  15  16
ATOM     16  O4  <0> d          -2.377   5.573   7.569  0.00  0.00    -0.325 OA
BRANCH  16  17
ATOM     17  C10 <0> d          -2.807   6.005   8.783  0.00  0.00     0.172 A 
ATOM     18  N2  <0> d          -3.577   5.223   9.522  0.00  0.00    -0.177 N 
ATOM     19  C14 <0> d          -4.017   5.605  10.707  0.00  0.00     0.129 A 
ATOM     20  O5  <0> d          -3.938   3.945   9.030  0.00  0.00    -0.079 OA
ATOM     21  C13 <0> d          -3.685   6.843  11.219  0.00  0.00     0.020 A 
ATOM     22  C12 <0> d          -2.880   7.693  10.474  0.00  0.00     0.006 A 
ATOM     23  C11 <0> d          -2.430   7.261   9.238  0.00  0.00     0.058 A 
ENDBRANCH  16  17
ENDBRANCH  15  16
ENDBRANCH   2  15
TORSDOF 5
