REMARK  9 active torsions:
REMARK  status: ('A' for Active; 'I' for Inactive)
REMARK    1  A    between atoms: C2_2  and  C3_3 
REMARK    2  A    between atoms: C3_3  and  C4_4 
REMARK    3  A    between atoms: C3_3  and  C6_6 
REMARK    4  A    between atoms: C3_3  and  N1_8 
REMARK    5  A    between atoms: C6_6  and  O1_7 
REMARK    6  A    between atoms: N1_8  and  S1_9 
REMARK    7  A    between atoms: S1_9  and  C7_12 
REMARK    8  A    between atoms: C10_15  and  C11_17 
REMARK    9  A    between atoms: C11_17  and  C12_18 
ROOT
ATOM      1  S1  <0> d           1.770  -2.522  -2.060  0.00  0.00     0.266 S 
ATOM      2  O2  <0> d           1.606  -3.922  -1.881  0.00  0.00    -0.200 OA
ATOM      3  O3  <0> d           1.569  -1.885  -3.314  0.00  0.00    -0.200 OA
ENDROOT
BRANCH   1   4
ATOM      4  N1  <0> d           0.746  -1.785  -0.987  0.00  0.00    -0.303 N 
ATOM      5  H14 <0> d           0.214  -2.320  -0.378  0.00  0.00     0.173 HD
BRANCH   4   6
ATOM      6  C3  <0> d           0.645  -0.324  -0.956  0.00  0.00     0.061 C 
BRANCH   6   7
ATOM      7  C2  <0> d          -0.253   0.102   0.207  0.00  0.00     0.029 C 
ATOM      8  C1  <0> d          -0.359   1.627   0.239  0.00  0.00     0.007 C 
ENDBRANCH   6   7
BRANCH   6   9
ATOM      9  C4  <0> d           0.043   0.173  -2.272  0.00  0.00     0.029 C 
ATOM     10  C5  <0> d          -1.351  -0.431  -2.456  0.00  0.00     0.007 C 
ENDBRANCH   6   9
BRANCH   6  11
ATOM     11  C6  <0> d           2.038   0.281  -0.773  0.00  0.00     0.195 C 
BRANCH  11  12
ATOM     12  O1  <0> d           2.652  -0.282   0.388  0.00  0.00    -0.398 OA
ATOM     13  H13 <0> d           3.541   0.056   0.567  0.00  0.00     0.209 HD
ENDBRANCH  11  12
ENDBRANCH   6  11
ENDBRANCH   4   6
ENDBRANCH   1   4
BRANCH   1  14
ATOM     14  C7  <0> d           3.415  -2.139  -1.558  0.00  0.00     0.120 A 
ATOM     15  S2  <0> d           4.515  -0.878  -2.181  0.00  0.00    -0.081 SA
ATOM     16  C10 <0> d           5.911  -1.217  -1.121  0.00  0.00    -0.006 A 
ATOM     17  C9  <0> d           5.455  -2.255  -0.379  0.00  0.00     0.017 A 
ATOM     18  C8  <0> d           4.175  -2.728  -0.604  0.00  0.00     0.034 A 
BRANCH  16  19
ATOM     19  C11 <0> d           7.251  -0.529  -1.068  0.00  0.00     0.159 C 
BRANCH  19  20
ATOM     20  C12 <0> d           8.204  -1.211  -2.015  0.00  0.00     0.177 C 
ATOM     21  O4  <0> d           7.829  -2.167  -2.673  0.00  0.00    -0.648 OA
ATOM     22  O5  <0> d           9.349  -0.807  -2.124  0.00  0.00    -0.648 OA
ENDBRANCH  19  20
ENDBRANCH  16  19
ENDBRANCH   1  14
TORSDOF 9
