REMARK  7 active torsions:
REMARK  status: ('A' for Active; 'I' for Inactive)
REMARK    1  A    between atoms: C3_3  and  C5_6 
REMARK    2  A    between atoms: C5_6  and  N1_7 
REMARK    3  A    between atoms: N1_7  and  C6_8 
REMARK    4  A    between atoms: N1_7  and  C16_20 
REMARK    5  A    between atoms: C6_8  and  C7_9 
REMARK    6  A    between atoms: C10_12  and  N2_15 
REMARK    7  A    between atoms: C16_20  and  C17_21 
REMARK       I    between atoms: C17_21  and  N4_23 
ROOT
ATOM      1  N1  <0> d           3.972   0.720   1.158  0.00  0.00    -0.053 N 
ATOM      2  H19 <0> d           3.587  -0.163   1.458  0.00  0.00     0.281 HD
ENDROOT
BRANCH   1   3
ATOM      3  C5  <0> d           3.509   1.019  -0.204  0.00  0.00     0.300 C 
BRANCH   3   4
ATOM      4  C3  <0> d           3.846  -0.135  -1.113  0.00  0.00     0.078 A 
ATOM      5  C2  <0> d           3.108  -1.246  -1.280  0.00  0.00     0.036 A 
ATOM      6  C1  <0> d           3.792  -2.055  -2.217  0.00  0.00     0.027 A 
ATOM      7  C4  <0> d           4.907  -1.389  -2.566  0.00  0.00     0.142 A 
ATOM      8  O1  <0> d           4.935  -0.226  -1.894  0.00  0.00    -0.325 OA
ENDBRANCH   3   4
ENDBRANCH   1   3
BRANCH   1   9
ATOM      9  C6  <0> d           5.439   0.644   1.171  0.00  0.00     0.274 C 
BRANCH   9  10
ATOM     10  C7  <0> d           5.908   0.217   2.538  0.00  0.00    -0.032 A 
ATOM     11  C12 <0> d           6.066  -1.126   2.825  0.00  0.00     0.011 A 
ATOM     12  C11 <0> d           6.500  -1.520   4.076  0.00  0.00     0.032 A 
ATOM     13  C10 <0> d           6.769  -0.566   5.048  0.00  0.00     0.058 A 
ATOM     14  C9  <0> d           6.604   0.781   4.759  0.00  0.00     0.032 A 
ATOM     15  C8  <0> d           6.174   1.169   3.505  0.00  0.00     0.011 A 
BRANCH  13  16
ATOM     16  N2  <0> d           7.206  -0.963   6.320  0.00  0.00    -0.245 N 
ATOM     17  N3  <0> d           7.512  -0.112   7.389  0.00  0.00    -0.180 NA
ATOM     18  C15 <0> d           7.880  -0.849   8.406  0.00  0.00     0.140 A 
ATOM     19  C14 <0> d           7.829  -2.191   8.016  0.00  0.00     0.040 A 
ATOM     20  C13 <0> d           7.412  -2.235   6.729  0.00  0.00     0.120 A 
ENDBRANCH  13  16
ENDBRANCH   9  10
ENDBRANCH   1   9
BRANCH   1  21
ATOM     21  C16 <0> d           3.529   1.783   2.070  0.00  0.00     0.337 C 
BRANCH  21  22
ATOM     22  C17 <0> d           2.026   1.753   2.185  0.00  0.00     0.241 C 
ATOM     23  O2  <0> d           1.396   0.859   1.661  0.00  0.00    -0.272 OA
ATOM     24  N4  <0> d           1.383   2.719   2.870  0.00  0.00    -0.369 N 
ATOM     25  H17 <0> d           1.887   3.434   3.289  0.00  0.00     0.159 HD
ATOM     26  H18 <0> d           0.416   2.699   2.944  0.00  0.00     0.159 HD
ENDBRANCH  21  22
ENDBRANCH   1  21
TORSDOF 7
