REMARK  4 active torsions:
REMARK  status: ('A' for Active; 'I' for Inactive)
REMARK    1  A    between atoms: C3_3  and  C9_14 
REMARK    2  A    between atoms: N2_6  and  C5_7 
REMARK       I    between atoms: C9_14  and  N3_16 
REMARK    3  A    between atoms: N3_16  and  C10_17 
REMARK    4  A    between atoms: C13_20  and  N4_23 
ROOT
ATOM      1  C9  <0> d          -0.006  -0.369  -2.520  0.00  0.00     0.259 C 
ATOM      2  O3  <0> d          -0.032   0.818  -2.781  0.00  0.00    -0.267 OA
ATOM      3  N3  <0> d           0.005  -1.278  -3.516  0.00  0.00    -0.323 N 
ATOM      4  H12 <0> d           0.093  -2.222  -3.310  0.00  0.00     0.169 HD
ENDROOT
BRANCH   1   5
ATOM      5  C3  <0> d           0.015  -0.815  -1.115  0.00  0.00     0.075 A 
ATOM      6  C2  <0> d           0.008  -0.004   0.002  0.00  0.00     0.044 A 
ATOM      7  C1  <0> d          -0.022   1.502   0.011  0.00  0.00     0.071 C 
ATOM      8  N2  <0> d           0.038  -0.805   1.080  0.00  0.00    -0.268 N 
ATOM      9  N1  <0> d           0.056  -2.135   0.644  0.00  0.00    -0.183 NA
ATOM     10  C4  <0> d           0.046  -2.152  -0.660  0.00  0.00     0.158 A 
BRANCH   8  11
ATOM     11  C5  <0> d           0.049  -0.361   2.476  0.00  0.00     0.125 C 
ATOM     12  C8  <0> d          -1.198  -0.923   3.215  0.00  0.00     0.167 C 
ATOM     13  S1  <0> d          -0.650  -0.769   4.967  0.00  0.00     0.146 S 
ATOM     14  C7  <0> d           1.171  -0.711   4.712  0.00  0.00     0.142 C 
ATOM     15  O1  <0> d          -0.982  -1.964   5.662  0.00  0.00    -0.228 OA
ATOM     16  O2  <0> d          -1.085   0.482   5.481  0.00  0.00    -0.228 OA
ATOM     17  C6  <0> d           1.306  -0.897   3.182  0.00  0.00     0.043 C 
ENDBRANCH   8  11
ENDBRANCH   1   5
BRANCH   3  18
ATOM     18  C10 <0> d          -0.113  -0.859  -4.847  0.00  0.00     0.035 A 
ATOM     19  C15 <0> d           0.461   0.339  -5.251  0.00  0.00     0.032 A 
ATOM     20  C14 <0> d           0.350   0.750  -6.565  0.00  0.00     0.031 A 
ATOM     21  C13 <0> d          -0.345  -0.031  -7.480  0.00  0.00     0.030 A 
ATOM     22  C12 <0> d          -0.923  -1.227  -7.074  0.00  0.00     0.031 A 
ATOM     23  C11 <0> d          -0.807  -1.640  -5.762  0.00  0.00     0.032 A 
BRANCH  21  24
ATOM     24  N4  <0> d          -0.462   0.387  -8.810  0.00  0.00    -0.381 N 
ATOM     25  C19 <0> d           0.100   1.629  -9.373  0.00  0.00     0.123 C 
ATOM     26  C18 <0> d           0.254   1.339 -10.889  0.00  0.00     0.021 C 
ATOM     27  C17 <0> d          -1.012   0.488 -11.171  0.00  0.00     0.021 C 
ATOM     28  C16 <0> d          -1.171  -0.335  -9.876  0.00  0.00     0.123 C 
ENDBRANCH  21  24
ENDBRANCH   3  18
TORSDOF 4
