REMARK  4 active torsions:
REMARK  status: ('A' for Active; 'I' for Inactive)
REMARK    1  A    between atoms: N1_5  and  C6_9 
REMARK    2  A    between atoms: C5_7  and  N2_8 
REMARK    3  A    between atoms: C6_9  and  C7_10 
REMARK    4  A    between atoms: C7_10  and  N3_11 
ROOT
ATOM      1  C1  <0> d          -0.016   1.359   0.009  0.00  0.00     0.036 A 
ATOM      2  C2  <0> d           0.002  -0.004   0.002  0.00  0.00     0.077 A 
ATOM      3  C3  <0> d           1.235  -0.677  -0.013  0.00  0.00     0.247 A 
ATOM      4  O1  <0> d           1.262  -1.898  -0.021  0.00  0.00    -0.268 OA
ATOM      5  N1  <0> d           2.386   0.021  -0.021  0.00  0.00    -0.321 N 
ATOM      6  C4  <0> d           2.376   1.381  -0.013  0.00  0.00     0.123 A 
ATOM      7  C5  <0> d           1.201   2.063   0.002  0.00  0.00     0.041 A 
ENDROOT
BRANCH   5   8
ATOM      8  C6  <0> d           3.666  -0.693  -0.037  0.00  0.00     0.159 C 
BRANCH   8   9
ATOM      9  C7  <0> d           4.097  -0.934  -1.485  0.00  0.00     0.255 C 
BRANCH   9  10
ATOM     10  N3  <0> d           5.380  -1.650  -1.501  0.00  0.00    -0.070 N 
ATOM     11  C11 <0> d           5.713  -2.111  -2.866  0.00  0.00     0.235 C 
ATOM     12  C10 <0> d           6.453  -3.453  -2.722  0.00  0.00     0.029 C 
ATOM     13  C9  <0> d           6.488  -3.734  -1.203  0.00  0.00     0.029 C 
ATOM     14  C8  <0> d           5.316  -2.876  -0.664  0.00  0.00     0.235 C 
ATOM     15  H18 <0> d           6.126  -0.936  -1.123  0.00  0.00     0.279 HD
ENDBRANCH   9  10
ENDBRANCH   8   9
ENDBRANCH   5   8
BRANCH   7  16
ATOM     16  N2  <0> d           1.202   3.466   0.009  0.00  0.00    -0.398 N 
ATOM     17  H4  <0> d           2.155   4.016   0.003  0.00  0.00     0.156 HD
ATOM     18  H5  <0> d           0.250   4.017   0.020  0.00  0.00     0.156 HD
ENDBRANCH   7  16
TORSDOF 4
