REMARK  5 active torsions:
REMARK  status: ('A' for Active; 'I' for Inactive)
REMARK    1  A    between atoms: C7_8  and  N4_20 
REMARK    2  A    between atoms: N1_11  and  C9_12 
REMARK    3  A    between atoms: C9_12  and  C10_13 
REMARK    4  A    between atoms: C10_13  and  C11_14 
REMARK    5  A    between atoms: C11_14  and  N2_15 
ROOT
ATOM      1  C1  <0> d          -0.017   1.378   0.010  0.00  0.00     0.004 A 
ATOM      2  C2  <0> d           1.164   2.092   0.002  0.00  0.00     0.030 A 
ATOM      3  C3  <0> d           2.386   1.424  -0.013  0.00  0.00     0.047 A 
ATOM      4  C4  <0> d           2.393   0.034  -0.021  0.00  0.00     0.028 A 
ATOM      5  C5  <0> d           1.213  -0.676  -0.014  0.00  0.00     0.022 A 
ATOM      6  C6  <0> d           0.002  -0.004   0.002  0.00  0.00     0.020 A 
ATOM      7 Br1  <0> d           1.247  -2.567  -0.025  0.00  0.00    -0.050 Br
ATOM      8  C7  <0> d           3.845  -0.384  -0.037  0.00  0.00     0.346 A 
ATOM      9  C8  <0> d           4.605   0.925  -0.037  0.00  0.00     0.262 A 
ATOM     10  O1  <0> d           5.811   1.058  -0.047  0.00  0.00    -0.270 OA
ATOM     11  N1  <0> d           3.693   1.912  -0.023  0.00  0.00    -0.315 N 
ENDROOT
BRANCH  11  12
ATOM     12  C9  <0> d           4.032   3.337  -0.019  0.00  0.00     0.134 C 
BRANCH  12  13
ATOM     13  C10 <0> d           4.164   3.826   1.425  0.00  0.00     0.040 C 
BRANCH  13  14
ATOM     14  C11 <0> d           4.518   5.314   1.430  0.00  0.00     0.131 C 
BRANCH  14  15
ATOM     15  N2  <0> d           4.644   5.782   2.812  0.00  0.00    -0.352 N 
ATOM     16  C14 <0> d           5.771   5.786   3.558  0.00  0.00     0.182 A 
ATOM     17  N3  <0> d           5.492   6.277   4.734  0.00  0.00    -0.361 N 
ATOM     18  C13 <0> d           4.189   6.593   4.785  0.00  0.00     0.106 A 
ATOM     19  H16 <0> d           6.126   6.392   5.459  0.00  0.00     0.166 HD
ATOM     20  C12 <0> d           3.641   6.291   3.592  0.00  0.00     0.108 A 
ENDBRANCH  14  15
ENDBRANCH  13  14
ENDBRANCH  12  13
ENDBRANCH  11  12
BRANCH   8  21
ATOM     21  N4  <0> d           4.167  -1.169   1.162  0.00  0.00     0.096 N 
ATOM     22  H14 <0> d           5.136  -1.453   1.159  0.00  0.00     0.314 HD
ATOM     23  H15 <0> d           3.943  -0.656   2.002  0.00  0.00     0.314 HD
ENDBRANCH   8  21
TORSDOF 5
