REMARK  3 active torsions:
REMARK  status: ('A' for Active; 'I' for Inactive)
REMARK    1  A    between atoms: C4_4  and  C5_5 
REMARK    2  A    between atoms: C8_8  and  C9_10 
REMARK    3  A    between atoms: C9_10  and  C10_11 
ROOT
ATOM      1  C9  <0> d          -1.275  -0.773  -4.728  0.00  0.00     0.072 C 
ENDROOT
BRANCH   1   2
ATOM      2  C8  <0> d          -0.974  -1.022  -3.369  0.00  0.00     0.078 A 
ATOM      3  C7  <0> d          -0.976  -2.254  -2.747  0.00  0.00     0.040 A 
ATOM      4  C6  <0> d          -0.614  -2.028  -1.410  0.00  0.00     0.036 A 
ATOM      5  C5  <0> d          -0.420  -0.698  -1.268  0.00  0.00     0.058 A 
ATOM      6  O1  <0> d          -0.634  -0.096  -2.448  0.00  0.00    -0.315 OA
BRANCH   5   7
ATOM      7  C4  <0> d          -0.022  -0.004   0.008  0.00  0.00     0.047 A 
ATOM      8  C2  <0> d           1.294   0.778   0.006  0.00  0.00    -0.007 A 
ATOM      9  C1  <0> d           2.115   0.782   1.297  0.00  0.00     0.011 C 
ATOM     10  C3  <0> d          -0.041   1.526   0.016  0.00  0.00     0.016 A 
ENDBRANCH   5   7
ENDBRANCH   1   2
BRANCH   1  11
ATOM     11  C10 <0> d          -1.339   0.508  -5.189  0.00  0.00     0.105 A 
ATOM     12  N2  <0> d          -1.042   1.681  -4.484  0.00  0.00    -0.328 N 
ATOM     13  C12 <0> d          -1.235   2.720  -5.316  0.00  0.00     0.179 A 
ATOM     14  H12 <0> d          -0.747   1.734  -3.561  0.00  0.00     0.168 HD
ATOM     15  N1  <0> d          -1.650   2.299  -6.520  0.00  0.00    -0.298 N 
ATOM     16  S1  <0> d          -0.991   4.360  -4.892  0.00  0.00    -0.040 SA
ATOM     17  C11 <0> d          -1.740   0.954  -6.528  0.00  0.00     0.274 A 
ATOM     18  H11 <0> d          -1.854   2.876  -7.273  0.00  0.00     0.171 HD
ATOM     19  O2  <0> d          -2.086   0.249  -7.460  0.00  0.00    -0.266 OA
ENDBRANCH   1  11
TORSDOF 3
