REMARK  8 active torsions:
REMARK  status: ('A' for Active; 'I' for Inactive)
REMARK    1  A    between atoms: N1_3  and  C8_14 
REMARK    2  A    between atoms: N2_6  and  C5_7 
REMARK    3  A    between atoms: C5_7  and  C6_8 
REMARK    4  A    between atoms: C6_8  and  C7_9 
REMARK    5  A    between atoms: C6_8  and  O1_13 
REMARK    6  A    between atoms: C8_14  and  C9_15 
REMARK    7  A    between atoms: C9_15  and  C10_16 
REMARK    8  A    between atoms: C9_15  and  O2_20 
ROOT
ATOM      1  C1  <0> d          -0.389   0.709   0.051  0.00  0.00     0.302 C 
ATOM      2  C2  <0> d          -1.316   1.032  -1.123  0.00  0.00     0.302 C 
ATOM      3  N1  <0> d          -1.371   2.487  -1.315  0.00  0.00     0.094 N 
ATOM      4  C3  <0> d          -1.867   3.156  -0.104  0.00  0.00     0.302 C 
ATOM      5  C4  <0> d          -0.940   2.834   1.070  0.00  0.00     0.302 C 
ATOM      6  N2  <0> d          -0.885   1.378   1.262  0.00  0.00     0.094 N 
ENDROOT
BRANCH   3   7
ATOM      7  C8  <0> d          -2.193   2.834  -2.482  0.00  0.00     0.313 C 
BRANCH   7   8
ATOM      8  C9  <0> d          -2.027   4.322  -2.798  0.00  0.00     0.253 C 
BRANCH   8   9
ATOM      9  C10 <0> d          -2.976   4.711  -3.934  0.00  0.00     0.414 C 
ATOM     10  F4  <0> d          -4.296   4.461  -3.545  0.00  0.00    -0.168 F 
ATOM     11  F5  <0> d          -2.825   6.071  -4.223  0.00  0.00    -0.168 F 
ATOM     12  F6  <0> d          -2.675   3.956  -5.072  0.00  0.00    -0.168 F 
ENDBRANCH   8   9
BRANCH   8  13
ATOM     13  O2  <0> d          -0.679   4.577  -3.196  0.00  0.00    -0.385 OA
ATOM     14  H16 <0> d          -0.368   5.598  -3.464  0.00  0.00     0.210 HD
ENDBRANCH   8  13
ENDBRANCH   7   8
ENDBRANCH   3   7
BRANCH   6  15
ATOM     15  C5  <0> d          -0.062   1.031   2.429  0.00  0.00     0.313 C 
BRANCH  15  16
ATOM     16  C6  <0> d          -0.548   1.819   3.647  0.00  0.00     0.253 C 
BRANCH  16  17
ATOM     17  C7  <0> d           0.294   1.441   4.867  0.00  0.00     0.414 C 
ATOM     18  F1  <0> d           1.637   1.746   4.619  0.00  0.00    -0.168 F 
ATOM     19  F2  <0> d          -0.149   2.162   5.981  0.00  0.00    -0.168 F 
ATOM     20  F3  <0> d           0.165   0.071   5.117  0.00  0.00    -0.168 F 
ENDBRANCH  16  17
BRANCH  16  21
ATOM     21  O1  <0> d          -1.919   1.508   3.900  0.00  0.00    -0.385 OA
ATOM     22  H13 <0> d          -2.444   1.982   4.742  0.00  0.00     0.210 HD
ENDBRANCH  16  21
ENDBRANCH  15  16
ENDBRANCH   6  15
TORSDOF 8
