REMARK  5 active torsions:
REMARK  status: ('A' for Active; 'I' for Inactive)
REMARK    1  A    between atoms: N1_2  and  C2_3 
REMARK    2  A    between atoms: N1_2  and  C13_20 
REMARK    3  A    between atoms: C2_3  and  C3_4 
REMARK    4  A    between atoms: C3_4  and  N2_5 
REMARK       I    between atoms: N2_5  and  C4_6 
REMARK    5  A    between atoms: C4_6  and  C5_8 
ROOT
ATOM      1  N2  <0> d          -3.452  -0.617  -1.276  0.00  0.00    -0.359 N 
ATOM      2  C4  <0> d          -4.265  -0.382  -2.325  0.00  0.00     0.221 C 
ATOM      3  O1  <0> d          -3.859   0.249  -3.277  0.00  0.00    -0.273 OA
ATOM      4  H8  <0> d          -3.777  -1.122  -0.514  0.00  0.00     0.162 HD
ENDROOT
BRANCH   2   5
ATOM      5  C5  <0> d          -5.679  -0.904  -2.314  0.00  0.00     0.078 C 
ATOM      6  C10 <0> d          -6.381  -0.501  -3.613  0.00  0.00     0.017 C 
ATOM      7  C9  <0> d          -7.821  -1.021  -3.595  0.00  0.00     0.042 C 
ATOM      8  C8  <0> d          -7.815  -2.539  -3.451  0.00  0.00     0.116 A 
ATOM      9  C7  <0> d          -7.096  -2.957  -2.173  0.00  0.00     0.042 C 
ATOM     10  N4  <0> d          -9.187  -3.062  -3.463  0.00  0.00    -0.325 N 
ATOM     11  C11 <0> d          -7.167  -3.181  -4.655  0.00  0.00     0.254 A 
ATOM     12  C6  <0> d          -5.659  -2.429  -2.196  0.00  0.00     0.017 C 
ATOM     13  C12 <0> d          -9.274  -3.878  -4.530  0.00  0.00     0.323 A 
ATOM     14  H19 <0> d          -9.892  -2.859  -2.828  0.00  0.00     0.165 HD
ATOM     15  N3  <0> d          -8.125  -3.950  -5.213  0.00  0.00    -0.277 N 
ATOM     16  O3  <0> d         -10.282  -4.483  -4.838  0.00  0.00    -0.247 OA
ATOM     17  H18 <0> d          -7.997  -4.487  -6.010  0.00  0.00     0.173 HD
ATOM     18  O2  <0> d          -6.026  -3.036  -5.040  0.00  0.00    -0.270 OA
ENDBRANCH   2   5
BRANCH   1  19
ATOM     19  C3  <0> d          -2.078  -0.110  -1.286  0.00  0.00     0.150 C 
BRANCH  19  20
ATOM     20  C2  <0> d          -1.376  -0.512   0.012  0.00  0.00     0.254 C 
BRANCH  20  21
ATOM     21  N1  <0> d           0.002  -0.004   0.002  0.00  0.00    -0.069 N 
ATOM     22  C1  <0> d          -0.018   1.465   0.010  0.00  0.00     0.270 C 
ATOM     23  H31 <0> d           0.474  -0.330  -0.828  0.00  0.00     0.280 HD
BRANCH  21  24
ATOM     24  C13 <0> d           0.713  -0.491   1.192  0.00  0.00     0.188 C 
ATOM     25  C18 <0> d           0.733  -2.021   1.184  0.00  0.00     0.033 C 
ATOM     26  C17 <0> d           1.473  -2.527   2.423  0.00  0.00     0.002 C 
ATOM     27  C16 <0> d           2.909  -1.998   2.412  0.00  0.00     0.000 C 
ATOM     28  C15 <0> d           2.888  -0.468   2.421  0.00  0.00     0.002 C 
ATOM     29  C14 <0> d           2.148   0.039   1.181  0.00  0.00     0.033 C 
ENDBRANCH  21  24
ENDBRANCH  20  21
ENDBRANCH  19  20
ENDBRANCH   1  19
TORSDOF 5
