REMARK  5 active torsions:
REMARK  status: ('A' for Active; 'I' for Inactive)
REMARK    1  A    between atoms: C3_4  and  C17_25 
REMARK    2  A    between atoms: N3_10  and  C7_12 
REMARK    3  A    between atoms: C7_12  and  C8_13 
REMARK       I    between atoms: C8_13  and  N5_15 
REMARK    4  A    between atoms: N5_15  and  C9_16 
REMARK    5  A    between atoms: C13_20  and  C15_22 
ROOT
ATOM      1  C1  <0> d           0.003   1.510   0.019  0.00  0.00     0.092 C 
ATOM      2  C2  <0> d           0.013   0.003   0.006  0.00  0.00     0.113 A 
ATOM      3  N1  <0> d           0.011  -0.624  -1.131  0.00  0.00    -0.233 NA
ATOM      4  C3  <0> d           0.019  -1.977  -1.207  0.00  0.00     0.091 A 
ATOM      5  C4  <0> d           0.029  -2.732  -0.068  0.00  0.00     0.087 A 
ATOM      6  C5  <0> d           0.031  -2.065   1.182  0.00  0.00     0.162 A 
ATOM      7  N2  <0> d           0.028  -0.678   1.194  0.00  0.00    -0.232 N 
ATOM      8  C6  <0> d           0.038  -0.270   2.477  0.00  0.00     0.352 A 
ATOM      9  O1  <0> d           0.034   0.886   2.862  0.00  0.00    -0.244 OA
ATOM     10  N3  <0> d           0.052  -1.369   3.261  0.00  0.00    -0.208 N 
ATOM     11  N4  <0> d           0.039  -2.491   2.420  0.00  0.00    -0.149 NA
ENDROOT
BRANCH  10  12
ATOM     12  C7  <0> d           0.066  -1.386   4.726  0.00  0.00     0.259 C 
BRANCH  12  13
ATOM     13  C8  <0> d          -1.349  -1.400   5.242  0.00  0.00     0.242 C 
ATOM     14  O2  <0> d          -2.279  -1.397   4.463  0.00  0.00    -0.271 OA
ATOM     15  N5  <0> d          -1.583  -1.417   6.569  0.00  0.00    -0.326 N 
ATOM     16  H7  <0> d          -0.842  -1.488   7.191  0.00  0.00     0.169 HD
BRANCH  15  17
ATOM     17  C9  <0> d          -2.894  -1.333   7.051  0.00  0.00     0.035 A 
ATOM     18  C14 <0> d          -3.929  -1.931   6.349  0.00  0.00     0.044 A 
ATOM     19  C13 <0> d          -5.236  -1.849   6.838  0.00  0.00     0.011 A 
ATOM     20  C12 <0> d          -5.491  -1.154   8.024  0.00  0.00     0.015 A 
ATOM     21  C11 <0> d          -4.453  -0.558   8.710  0.00  0.00     0.003 A 
ATOM     22  C10 <0> d          -3.159  -0.645   8.229  0.00  0.00     0.029 A 
BRANCH  19  23
ATOM     23  C15 <0> d          -6.340  -2.487   6.103  0.00  0.00     0.155 C 
ATOM     24  O3  <0> d          -6.117  -3.089   5.074  0.00  0.00    -0.293 OA
ATOM     25  C16 <0> d          -7.749  -2.392   6.629  0.00  0.00     0.096 C 
ENDBRANCH  19  23
ENDBRANCH  15  17
ENDBRANCH  12  13
ENDBRANCH  10  12
BRANCH   4  26
ATOM     26  C17 <0> d           0.017  -2.640  -2.531  0.00  0.00     0.085 A 
ATOM     27  N6  <0> d           0.025  -3.966  -2.604  0.00  0.00    -0.259 NA
ATOM     28  C21 <0> d           0.018  -4.595  -3.761  0.00  0.00     0.117 A 
ATOM     29  C20 <0> d           0.014  -3.890  -4.952  0.00  0.00     0.019 A 
ATOM     30  C19 <0> d           0.011  -2.503  -4.922  0.00  0.00     0.004 A 
ATOM     31  C18 <0> d           0.013  -1.868  -3.692  0.00  0.00     0.034 A 
ENDBRANCH   4  26
TORSDOF 5
