REMARK  5 active torsions:
REMARK  status: ('A' for Active; 'I' for Inactive)
REMARK    1  A    between atoms: C6_6  and  S1_9 
REMARK    2  A    between atoms: S1_9  and  N1_12 
REMARK    3  A    between atoms: N1_12  and  C9_13 
REMARK    4  A    between atoms: C9_13  and  C10_14 
REMARK    5  A    between atoms: C14_19  and  N3_20 
ROOT
ATOM      1  N1  <0> d           1.828  -3.077   3.194  0.00  0.00    -0.311 N 
ATOM      2  H8  <0> d           2.001  -4.021   3.333  0.00  0.00     0.172 HD
ENDROOT
BRANCH   1   3
ATOM      3  S1  <0> d           0.285  -2.552   2.900  0.00  0.00     0.260 S 
ATOM      4  O1  <0> d           0.053  -1.460   3.779  0.00  0.00    -0.200 OA
ATOM      5  O2  <0> d          -0.541  -3.708   2.886  0.00  0.00    -0.200 OA
BRANCH   3   6
ATOM      6  C6  <0> d           0.261  -1.896   1.264  0.00  0.00     0.092 A 
ATOM      7  C5  <0> d           0.551  -0.562   1.051  0.00  0.00    -0.032 A 
ATOM      8  C4  <0> d           0.533  -0.047  -0.232  0.00  0.00    -0.054 A 
ATOM      9  C19 <0> d           0.888   0.332   2.216  0.00  0.00     0.050 C 
ATOM     10  C3  <0> d           0.225  -0.868  -1.302  0.00  0.00     0.014 A 
ATOM     11  C20 <0> d           0.850   1.407  -0.466  0.00  0.00     0.049 C 
ATOM     12  C2  <0> d          -0.065  -2.202  -1.088  0.00  0.00    -0.054 A 
ATOM     13  C1  <0> d          -0.401  -3.096  -2.253  0.00  0.00     0.049 C 
ATOM     14  C7  <0> d          -0.051  -2.715   0.196  0.00  0.00    -0.032 A 
ATOM     15  C8  <0> d          -0.373  -4.169   0.429  0.00  0.00     0.050 C 
ENDBRANCH   3   6
ENDBRANCH   1   3
BRANCH   1  16
ATOM     16  C9  <0> d           2.932  -2.115   3.245  0.00  0.00     0.174 C 
BRANCH  16  17
ATOM     17  C10 <0> d           4.135  -2.764   3.878  0.00  0.00     0.004 A 
ATOM     18  C14 <0> d           4.949  -3.615   3.136  0.00  0.00     0.111 A 
ATOM     19  N2  <0> d           6.011  -4.182   3.688  0.00  0.00    -0.352 N 
ATOM     20  C13 <0> d           6.328  -3.975   4.952  0.00  0.00     0.089 A 
ATOM     21  H28 <0> d           6.566  -4.768   3.151  0.00  0.00     0.166 HD
ATOM     22  C12 <0> d           5.561  -3.147   5.747  0.00  0.00     0.018 A 
ATOM     23  C11 <0> d           4.443  -2.527   5.206  0.00  0.00     0.014 A 
BRANCH  18  24
ATOM     24  N3  <0> d           4.648  -3.866   1.803  0.00  0.00    -0.363 N 
ATOM     25  C18 <0> d           3.739  -4.960   1.425  0.00  0.00     0.150 C 
ATOM     26  C17 <0> d           4.416  -5.806   0.346  0.00  0.00     0.187 C 
ATOM     27  O3  <0> d           4.861  -4.955  -0.712  0.00  0.00    -0.388 OA
ATOM     28  C16 <0> d           5.842  -3.994  -0.317  0.00  0.00     0.187 C 
ATOM     29  C15 <0> d           5.234  -3.051   0.727  0.00  0.00     0.150 C 
ENDBRANCH  18  24
ENDBRANCH  16  17
ENDBRANCH   1  16
TORSDOF 5
