REMARK  5 active torsions:
REMARK  status: ('A' for Active; 'I' for Inactive)
REMARK    1  A    between atoms: C2_2  and  N1_4 
REMARK    2  A    between atoms: C6_7  and  C8_9 
REMARK    3  A    between atoms: C8_9  and  N2_10 
REMARK    4  A    between atoms: N2_10  and  C9_11 
REMARK    5  A    between atoms: C12_17  and  O3_18 
ROOT
ATOM      1  N2  <0> d          -4.334  -3.535   2.051  0.00  0.00     0.091 N 
ATOM      2  H24 <0> d          -3.757  -3.789   2.838  0.00  0.00     0.316 HD
ENDROOT
BRANCH   1   3
ATOM      3  C8  <0> d          -3.513  -3.239   0.869  0.00  0.00     0.276 C 
BRANCH   3   4
ATOM      4  C6  <0> d          -2.504  -2.141   1.212  0.00  0.00     0.044 C 
ATOM      5  C5  <0> d          -3.229  -0.800   1.496  0.00  0.00     0.038 C 
ATOM      6  C4  <0> d          -2.127   0.232   1.147  0.00  0.00     0.273 C 
ATOM      7  N1  <0> d          -1.427  -0.345  -0.020  0.00  0.00     0.092 N 
ATOM      8  C7  <0> d          -1.621  -1.807  -0.009  0.00  0.00     0.279 C 
BRANCH   7   9
ATOM      9  C2  <0> d           0.002  -0.004   0.002  0.00  0.00     0.215 C 
ATOM     10  C1  <0> d           0.678  -0.557  -1.254  0.00  0.00     0.042 C 
ATOM     11  C3  <0> d           0.162   1.517   0.040  0.00  0.00     0.042 C 
ENDBRANCH   7   9
ENDBRANCH   3   4
ENDBRANCH   1   3
BRANCH   1  12
ATOM     12  C9  <0> d          -5.317  -4.588   1.759  0.00  0.00     0.263 C 
ATOM     13  C12 <0> d          -5.634  -5.328   3.050  0.00  0.00     0.166 C 
ATOM     14  C11 <0> d          -7.124  -5.292   3.445  0.00  0.00     0.174 C 
ATOM     15  S1  <0> d          -7.920  -4.945   1.816  0.00  0.00     0.149 S 
ATOM     16  C10 <0> d          -6.551  -3.939   1.094  0.00  0.00     0.178 C 
ATOM     17  O1  <0> d          -9.058  -4.118   2.015  0.00  0.00    -0.228 OA
ATOM     18  O2  <0> d          -8.049  -6.158   1.086  0.00  0.00    -0.228 OA
BRANCH  13  19
ATOM     19  O3  <0> d          -4.868  -4.747   4.108  0.00  0.00    -0.392 OA
ATOM     20  H23 <0> d          -5.011  -5.162   4.970  0.00  0.00     0.210 HD
ENDBRANCH  13  19
ENDBRANCH   1  12
TORSDOF 5
