REMARK  3 active torsions:
REMARK  status: ('A' for Active; 'I' for Inactive)
REMARK    1  A    between atoms: C3_3  and  N2_12 
REMARK    2  A    between atoms: C5_5  and  C8_9 
REMARK       I    between atoms: C8_9  and  N1_11 
REMARK       I    between atoms: N2_12  and  C9_13 
REMARK    3  A    between atoms: C9_13  and  C10_15 
ROOT
ATOM      1  N2  <0> d          -0.010   0.018  -2.412  0.00  0.00    -0.322 N 
ATOM      2  C9  <0> d           0.095  -0.642  -3.583  0.00  0.00     0.263 C 
ATOM      3  O2  <0> d           0.112  -1.860  -3.596  0.00  0.00    -0.267 OA
ATOM      4  H8  <0> d          -0.104   0.983  -2.407  0.00  0.00     0.169 HD
ENDROOT
BRANCH   1   5
ATOM      5  C3  <0> d           0.017  -0.689  -1.206  0.00  0.00     0.044 A 
ATOM      6  C2  <0> d          -0.585  -0.153  -0.073  0.00  0.00     0.003 A 
ATOM      7  C1  <0> d          -1.264   1.190  -0.148  0.00  0.00     0.054 C 
ATOM      8  C7  <0> d          -0.556  -0.847   1.124  0.00  0.00     0.125 A 
ATOM      9  C6  <0> d           0.061  -2.082   1.197  0.00  0.00     0.060 A 
ATOM     10  F1  <0> d          -1.138  -0.318   2.223  0.00  0.00    -0.205 F 
ATOM     11  C5  <0> d           0.667  -2.627   0.064  0.00  0.00     0.036 A 
ATOM     12  C4  <0> d           0.643  -1.925  -1.141  0.00  0.00     0.047 A 
BRANCH  11  13
ATOM     13  C8  <0> d           1.333  -3.945   0.141  0.00  0.00     0.249 C 
ATOM     14  O1  <0> d           1.859  -4.418  -0.847  0.00  0.00    -0.268 OA
ATOM     15  N1  <0> d           1.355  -4.622   1.306  0.00  0.00    -0.366 N 
ATOM     16  H6  <0> d           0.935  -4.245   2.094  0.00  0.00     0.159 HD
ATOM     17  H7  <0> d           1.792  -5.487   1.356  0.00  0.00     0.159 HD
ENDBRANCH  11  13
ENDBRANCH   1   5
BRANCH   2  18
ATOM     18  C10 <0> d           0.186   0.081  -4.798  0.00  0.00     0.077 A 
ATOM     19  S1  <0> d           0.183   1.848  -5.051  0.00  0.00    -0.062 SA
ATOM     20  C13 <0> d           0.332   1.851  -6.821  0.00  0.00     0.128 A 
ATOM     21  C12 <0> d           0.370   0.490  -7.145  0.00  0.00     0.078 A 
ATOM     22  N3  <0> d           0.415   2.568  -7.933  0.00  0.00    -0.214 NA
ATOM     23  C11 <0> d           0.293  -0.404  -6.089  0.00  0.00     0.057 A 
ATOM     24  N4  <0> d           0.483   0.455  -8.561  0.00  0.00    -0.298 N 
ATOM     25  C14 <0> d           0.504   1.763  -8.959  0.00  0.00     0.178 A 
ATOM     26  C15 <0> d           0.570  -0.502  -9.547  0.00  0.00     0.107 A 
ATOM     27  S2  <0> d           0.646   1.631 -10.727  0.00  0.00    -0.062 SA
ATOM     28  C16 <0> d           0.670  -0.152 -10.829  0.00  0.00     0.071 A 
ENDBRANCH   2  18
TORSDOF 3
