REMARK  9 active torsions:
REMARK  status: ('A' for Active; 'I' for Inactive)
REMARK    1  A    between atoms: C2_2  and  O1_3 
REMARK    2  A    between atoms: O1_3  and  C3_4 
REMARK    3  A    between atoms: C7_8  and  C9_11 
REMARK    4  A    between atoms: C8_9  and  O2_10 
REMARK    5  A    between atoms: C9_11  and  N1_12 
REMARK    6  A    between atoms: N1_12  and  C10_13 
REMARK    7  A    between atoms: C10_13  and  C11_14 
REMARK    8  A    between atoms: C15_18  and  S1_20 
REMARK    9  A    between atoms: S1_20  and  N2_23 
ROOT
ATOM      1  N1  <0> d           3.678  -4.216  -3.623  0.00  0.00    -0.067 N 
ATOM      2  H12 <0> d           3.965  -3.259  -3.486  0.00  0.00     0.277 HD
ATOM      3  H23 <0> d           3.922  -4.761  -2.809  0.00  0.00     0.277 HD
ENDROOT
BRANCH   1   4
ATOM      4  C9  <0> d           2.224  -4.267  -3.827  0.00  0.00     0.274 C 
BRANCH   4   5
ATOM      5  C7  <0> d           1.526  -3.702  -2.616  0.00  0.00     0.003 A 
ATOM      6  C6  <0> d           0.992  -4.552  -1.667  0.00  0.00     0.012 A 
ATOM      7  C5  <0> d           0.352  -4.037  -0.555  0.00  0.00     0.003 A 
ATOM      8  C4  <0> d           0.243  -2.669  -0.388  0.00  0.00     0.039 A 
ATOM      9  C3  <0> d           0.777  -1.811  -1.336  0.00  0.00     0.102 A 
ATOM     10  C8  <0> d           1.416  -2.330  -2.458  0.00  0.00     0.106 A 
BRANCH   9  11
ATOM     11  O1  <0> d           0.671  -0.465  -1.174  0.00  0.00    -0.349 OA
BRANCH  11  12
ATOM     12  C2  <0> d           0.002  -0.004   0.002  0.00  0.00     0.171 C 
ATOM     13  C1  <0> d          -0.019   1.526   0.010  0.00  0.00     0.034 C 
ENDBRANCH  11  12
ENDBRANCH   9  11
BRANCH  10  14
ATOM     14  O2  <0> d           1.936  -1.492  -3.394  0.00  0.00    -0.357 OA
ATOM     15  H9  <0> d           2.856  -1.241  -3.231  0.00  0.00     0.217 HD
ENDBRANCH  10  14
ENDBRANCH   4   5
ENDBRANCH   1   4
BRANCH   1  16
ATOM     16  C10 <0> d           4.357  -4.768  -4.803  0.00  0.00     0.271 C 
BRANCH  16  17
ATOM     17  C11 <0> d           5.849  -4.715  -4.593  0.00  0.00    -0.031 A 
ATOM     18  C16 <0> d           6.502  -5.783  -4.005  0.00  0.00     0.034 A 
ATOM     19  C15 <0> d           7.870  -5.737  -3.817  0.00  0.00     0.080 A 
ATOM     20  C14 <0> d           8.585  -4.620  -4.208  0.00  0.00     0.025 A 
ATOM     21  C13 <0> d           7.931  -3.550  -4.791  0.00  0.00     0.002 A 
ATOM     22  C12 <0> d           6.563  -3.598  -4.983  0.00  0.00     0.009 A 
BRANCH  19  23
ATOM     23  S1  <0> d           8.704  -7.100  -3.074  0.00  0.00     0.258 S 
ATOM     24  O3  <0> d           7.890  -8.243  -3.296  0.00  0.00    -0.201 OA
ATOM     25  O4  <0> d          10.056  -7.032  -3.504  0.00  0.00    -0.201 OA
BRANCH  23  26
ATOM     26  N2  <0> d           8.713  -6.836  -1.439  0.00  0.00    -0.320 N 
ATOM     27  C17 <0> d           7.453  -6.818  -0.693  0.00  0.00     0.159 C 
ATOM     28  H19 <0> d           9.553  -6.694  -0.976  0.00  0.00     0.171 HD
ENDBRANCH  23  26
ENDBRANCH  19  23
ENDBRANCH  16  17
ENDBRANCH   1  16
TORSDOF 9
