REMARK  3 active torsions:
REMARK  status: ('A' for Active; 'I' for Inactive)
REMARK    1  A    between atoms: C5_6  and  C6_7 
REMARK       I    between atoms: C6_7  and  N1_9 
REMARK    2  A    between atoms: N1_9  and  C7_10 
REMARK    3  A    between atoms: C16_21  and  O3_22 
ROOT
ATOM      1  C1  <0> d          -0.014   1.502   0.010  0.00  0.00     0.052 C 
ATOM      2  C2  <0> d          -0.003  -0.005   0.002  0.00  0.00    -0.011 A 
ATOM      3  C3  <0> d          -0.007  -0.834  -1.122  0.00  0.00     0.009 A 
ATOM      4  C4  <0> d           0.006  -2.116  -0.680  0.00  0.00     0.064 A 
ATOM      5  O1  <0> d           0.019  -2.106   0.655  0.00  0.00    -0.308 OA
ATOM      6  C5  <0> d           0.018  -0.828   1.094  0.00  0.00     0.150 A 
ATOM      7  C13 <0> d           0.002  -3.319  -1.593  0.00  0.00     0.074 C 
ATOM      8  C14 <0> d          -0.434  -2.865  -2.991  0.00  0.00    -0.039 C 
ATOM      9  C15 <0> d           0.391  -1.647  -3.415  0.00  0.00     0.045 C 
ATOM     10  C16 <0> d          -0.021  -0.433  -2.574  0.00  0.00     0.155 C 
ATOM     11  C17 <0> d          -1.918  -2.491  -2.965  0.00  0.00     0.015 C 
ATOM     12  C18 <0> d          -0.213  -4.003  -3.988  0.00  0.00     0.015 C 
ENDROOT
BRANCH   6  13
ATOM     13  C6  <0> d           0.033  -0.400   2.496  0.00  0.00     0.280 C 
ATOM     14  O2  <0> d           0.027   0.786   2.769  0.00  0.00    -0.265 OA
ATOM     15  N1  <0> d           0.053  -1.319   3.481  0.00  0.00    -0.321 N 
ATOM     16  H5  <0> d          -0.010  -2.262   3.266  0.00  0.00     0.169 HD
BRANCH  15  17
ATOM     17  C7  <0> d           0.165  -0.912   4.814  0.00  0.00     0.038 A 
ATOM     18  C12 <0> d          -0.439   0.266   5.236  0.00  0.00     0.053 A 
ATOM     19  C11 <0> d          -0.331   0.663   6.555  0.00  0.00     0.037 A 
ATOM     20  C10 <0> d           0.388  -0.105   7.454  0.00  0.00     0.048 A 
ATOM     21 Cl1  <0> d          -1.092   2.131   7.084  0.00  0.00    -0.084 Cl
ATOM     22  C9  <0> d           0.996  -1.276   7.035  0.00  0.00     0.037 A 
ATOM     23  C8  <0> d           0.886  -1.681   5.718  0.00  0.00     0.053 A 
ATOM     24 Cl2  <0> d           1.896  -2.238   8.166  0.00  0.00    -0.084 Cl
ENDBRANCH  15  17
ENDBRANCH   6  13
BRANCH  10  25
ATOM     25  O3  <0> d           0.903   0.637  -2.787  0.00  0.00    -0.391 OA
ATOM     26  H13 <0> d           0.710   1.432  -2.272  0.00  0.00     0.210 HD
ENDBRANCH  10  25
TORSDOF 3
