REMARK  8 active torsions:
REMARK  status: ('A' for Active; 'I' for Inactive)
REMARK    1  A    between atoms: C3_3  and  N1_8 
REMARK    2  A    between atoms: C8_10  and  C10_13 
REMARK    3  A    between atoms: C10_13  and  N3_14 
REMARK    4  A    between atoms: N4_17  and  C17_23 
REMARK    5  A    between atoms: C13_18  and  C15_20 
REMARK    6  A    between atoms: C15_20  and  C16_21 
REMARK    7  A    between atoms: C16_21  and  O1_22 
REMARK    8  A    between atoms: C17_23  and  C18_24 
ROOT
ATOM      1  N3  <0> d           3.330   6.003   0.179  0.00  0.00    -0.063 N 
ATOM      2  C11 <0> d           4.177   5.790  -1.002  0.00  0.00     0.265 C 
ATOM      3  C12 <0> d           4.407   4.289  -1.198  0.00  0.00     0.301 C 
ATOM      4  N4  <0> d           3.110   3.615  -1.355  0.00  0.00     0.101 N 
ATOM      5  C13 <0> d           2.263   3.828  -0.174  0.00  0.00     0.251 C 
ATOM      6  C14 <0> d           2.034   5.328   0.023  0.00  0.00     0.271 C 
ATOM      7  H26 <0> d           3.840   5.561   1.047  0.00  0.00     0.280 HD
ENDROOT
BRANCH   1   8
ATOM      8  C10 <0> d           3.148   7.436   0.445  0.00  0.00     0.276 C 
BRANCH   8   9
ATOM      9  C8  <0> d           4.470   8.045   0.837  0.00  0.00     0.004 A 
ATOM     10  C7  <0> d           4.956   8.150   2.096  0.00  0.00     0.129 A 
ATOM     11  N1  <0> d           6.165   8.750   2.021  0.00  0.00    -0.245 N 
ATOM     12  N2  <0> d           6.424   9.030   0.673  0.00  0.00    -0.180 NA
ATOM     13  C9  <0> d           5.408   8.607  -0.035  0.00  0.00     0.149 A 
BRANCH  11  14
ATOM     14  C3  <0> d           7.008   9.044   3.102  0.00  0.00     0.060 A 
ATOM     15  C2  <0> d           6.623   8.714   4.394  0.00  0.00     0.032 A 
ATOM     16  C1  <0> d           7.458   9.000   5.457  0.00  0.00     0.005 A 
ATOM     17  C6  <0> d           8.671   9.624   5.238  0.00  0.00     0.042 A 
ATOM     18  C5  <0> d           9.056   9.961   3.951  0.00  0.00     0.118 A 
ATOM     19  C4  <0> d           8.227   9.672   2.882  0.00  0.00     0.073 A 
ATOM     20  F1  <0> d          10.243  10.572   3.739  0.00  0.00    -0.206 F 
ENDBRANCH  11  14
ENDBRANCH   8   9
ENDBRANCH   1   8
BRANCH   5  21
ATOM     21  C15 <0> d           0.917   3.128  -0.378  0.00  0.00     0.063 C 
BRANCH  21  22
ATOM     22  C16 <0> d           0.083   3.245   0.899  0.00  0.00     0.166 C 
BRANCH  22  23
ATOM     23  O1  <0> d          -1.122   2.490   0.752  0.00  0.00    -0.401 OA
ATOM     24  H20 <0> d          -1.853   2.455   1.573  0.00  0.00     0.209 HD
ENDBRANCH  22  23
ENDBRANCH  21  22
ENDBRANCH   5  21
BRANCH   4  25
ATOM     25  C17 <0> d           3.292   2.181  -1.621  0.00  0.00     0.319 C 
BRANCH  25  26
ATOM     26  C18 <0> d           4.252   2.001  -2.769  0.00  0.00     0.010 A 
ATOM     27  S1  <0> d           3.907   1.899  -4.518  0.00  0.00    -0.105 SA
ATOM     28  C21 <0> d           5.584   1.695  -5.094  0.00  0.00     0.050 A 
ATOM     29  C20 <0> d           6.284   1.718  -3.933  0.00  0.00     0.008 A 
ATOM     30  C19 <0> d           5.601   1.880  -2.742  0.00  0.00     0.017 A 
ENDBRANCH  25  26
ENDBRANCH   4  25
TORSDOF 8
