REMARK  4 active torsions:
REMARK  status: ('A' for Active; 'I' for Inactive)
REMARK    1  A    between atoms: C4_6  and  C6_10 
REMARK    2  A    between atoms: C7_11  and  C8_12 
REMARK       I    between atoms: C8_12  and  N3_14 
REMARK    3  A    between atoms: C12_18  and  C14_20 
REMARK    4  A    between atoms: C14_20  and  O2_21 
ROOT
ATOM      1  C6  <0> d          -4.362  -0.018   0.984  0.00  0.00     0.039 C 
ATOM      2  C7  <0> d          -5.109  -0.711   0.080  0.00  0.00     0.076 C 
ENDROOT
BRANCH   2   3
ATOM      3  C8  <0> d          -4.477  -1.541  -0.867  0.00  0.00     0.243 C 
ATOM      4  O1  <0> d          -3.261  -1.565  -0.941  0.00  0.00    -0.268 OA
ATOM      5  N3  <0> d          -5.218  -2.308  -1.691  0.00  0.00    -0.348 N 
ATOM      6  C13 <0> d          -6.684  -2.207  -1.692  0.00  0.00     0.132 C 
ATOM      7  C9  <0> d          -4.575  -3.265  -2.602  0.00  0.00     0.126 C 
ATOM      8  C12 <0> d          -7.279  -3.598  -1.484  0.00  0.00     0.027 C 
ATOM      9  C11 <0> d          -6.714  -4.555  -2.537  0.00  0.00     0.010 C 
ATOM     10  C10 <0> d          -5.194  -4.649  -2.380  0.00  0.00     0.020 C 
BRANCH   8  11
ATOM     11  C14 <0> d          -8.801  -3.531  -1.620  0.00  0.00     0.170 C 
BRANCH  11  12
ATOM     12  O2  <0> d          -9.338  -2.730  -0.565  0.00  0.00    -0.400 OA
ATOM     13  H16 <0> d         -10.301  -2.644  -0.589  0.00  0.00     0.209 HD
ENDBRANCH  11  12
ENDBRANCH   8  11
ENDBRANCH   2   3
BRANCH   1  14
ATOM     14  C4  <0> d          -4.993   0.812   1.930  0.00  0.00     0.081 A 
ATOM     15  N1  <0> d          -4.770   0.819   3.319  0.00  0.00    -0.297 N 
ATOM     16  C1  <0> d          -3.988   0.155   4.234  0.00  0.00     0.107 A 
ATOM     17  C3  <0> d          -5.608   1.786   3.800  0.00  0.00     0.179 A 
ATOM     18  C2  <0> d          -4.055   0.452   5.533  0.00  0.00     0.071 A 
ATOM     19  S1  <0> d          -5.284   1.749   5.549  0.00  0.00    -0.062 SA
ATOM     20  N2  <0> d          -6.292   2.336   2.829  0.00  0.00    -0.209 NA
ATOM     21  C5  <0> d          -5.952   1.777   1.672  0.00  0.00     0.156 A 
ATOM     22 Cl1  <0> d          -6.597   2.184   0.113  0.00  0.00    -0.060 Cl
ENDBRANCH   1  14
TORSDOF 4
