REMARK  2 active torsions:
REMARK  status: ('A' for Active; 'I' for Inactive)
REMARK    1  A    between atoms: C6_6  and  N1_8 
REMARK       I    between atoms: N1_8  and  C8_9 
REMARK    2  A    between atoms: C8_9  and  C9_11 
ROOT
ATOM      1  C9  <0> d          -1.310   2.778   0.530  0.00  0.00     0.122 C 
ATOM      2  C10 <0> d          -0.626   3.210   1.848  0.00  0.00     0.128 C 
ATOM      3  C11 <0> d          -1.776   3.725   2.693  0.00  0.00     0.260 C 
ATOM      4  O2  <0> d          -1.853   3.690   3.899  0.00  0.00    -0.265 OA
ATOM      5  O3  <0> d          -2.695   4.230   1.849  0.00  0.00    -0.309 OA
ATOM      6  C12 <0> d          -2.679   3.478   0.602  0.00  0.00     0.088 C 
ATOM      7  C13 <0> d          -2.842   4.419  -0.591  0.00  0.00     0.066 C 
ATOM      8  C14 <0> d          -4.238   5.048  -0.548  0.00  0.00     0.171 C 
ATOM      9  O4  <0> d          -5.224   4.015  -0.539  0.00  0.00    -0.381 OA
ATOM     10  C15 <0> d          -5.150   3.144   0.592  0.00  0.00     0.056 C 
ATOM     11  C16 <0> d          -3.794   2.433   0.598  0.00  0.00     0.076 C 
ATOM     12  C17 <0> d          -6.271   2.106   0.512  0.00  0.00     0.045 C 
ATOM     13  C18 <0> d          -5.303   3.962   1.876  0.00  0.00     0.045 C 
ENDROOT
BRANCH   1  14
ATOM     14  C8  <0> d          -1.477   1.282   0.482  0.00  0.00     0.229 C 
ATOM     15  N1  <0> d          -1.518   0.646  -0.706  0.00  0.00    -0.327 N 
ATOM     16  H9  <0> d          -1.389   1.145  -1.528  0.00  0.00     0.169 HD
ATOM     17  O1  <0> d          -1.575   0.649   1.512  0.00  0.00    -0.273 OA
BRANCH  15  18
ATOM     18  C6  <0> d          -1.754  -0.732  -0.754  0.00  0.00     0.035 A 
ATOM     19  C5  <0> d          -1.241  -1.561   0.235  0.00  0.00     0.029 A 
ATOM     20  C4  <0> d          -1.481  -2.921   0.188  0.00  0.00     0.003 A 
ATOM     21  C3  <0> d          -2.221  -3.458  -0.849  0.00  0.00     0.007 A 
ATOM     22  C2  <0> d          -2.728  -2.636  -1.839  0.00  0.00    -0.060 A 
ATOM     23  C1  <0> d          -3.535  -3.226  -2.967  0.00  0.00     0.048 C 
ATOM     24  C7  <0> d          -2.497  -1.275  -1.794  0.00  0.00     0.036 A 
ENDBRANCH  15  18
ENDBRANCH   1  14
TORSDOF 2
