REMARK  3 active torsions:
REMARK  status: ('A' for Active; 'I' for Inactive)
REMARK    1  A    between atoms: C4_4  and  N1_7 
REMARK    2  A    between atoms: C7_8  and  C15_18 
REMARK    3  A    between atoms: C17_23  and  C18_24 
ROOT
ATOM      1  N1  <0> d           2.215  -0.377   0.239  0.00  0.00    -0.287 N 
ATOM      2  C7  <0> d           1.817   0.985  -0.116  0.00  0.00     0.230 C 
ATOM      3  N2  <0> d           2.825   1.944   0.350  0.00  0.00    -0.363 N 
ATOM      4  C8  <0> d           3.362   1.786   1.622  0.00  0.00     0.045 A 
ATOM      5  C9  <0> d           3.823   2.864   2.359  0.00  0.00     0.030 A 
ATOM      6  C10 <0> d           4.360   2.655   3.615  0.00  0.00     0.002 A 
ATOM      7  C11 <0> d           4.441   1.376   4.143  0.00  0.00     0.001 A 
ATOM      8  C12 <0> d           3.982   0.291   3.424  0.00  0.00     0.019 A 
ATOM      9  C13 <0> d           3.434   0.488   2.158  0.00  0.00     0.059 A 
ATOM     10  C14 <0> d           2.909  -0.635   1.361  0.00  0.00     0.262 C 
ATOM     11  O1  <0> d           3.101  -1.782   1.717  0.00  0.00    -0.267 OA
ATOM     12  H8  <0> d           3.110   2.676  -0.219  0.00  0.00     0.162 HD
ENDROOT
BRANCH   2  13
ATOM     13  C15 <0> d           0.492   1.301   0.528  0.00  0.00     0.033 A 
ATOM     14  C17 <0> d          -0.452   2.239   0.066  0.00  0.00     0.100 A 
ATOM     15  N4  <0> d          -1.475   2.226   0.895  0.00  0.00    -0.174 NA
ATOM     16  N3  <0> d          -1.212   1.282   1.896  0.00  0.00    -0.288 N 
ATOM     17  C16 <0> d          -0.002   0.736   1.651  0.00  0.00     0.122 A 
ATOM     18  H2  <0> d          -1.816   1.053   2.660  0.00  0.00     0.188 HD
BRANCH  14  19
ATOM     19  C18 <0> d          -0.318   3.091  -1.141  0.00  0.00     0.013 A 
ATOM     20  C22 <0> d           0.884   3.737  -1.421  0.00  0.00     0.130 A 
ATOM     21  N5  <0> d           1.006   4.489  -2.496  0.00  0.00    -0.272 NA
ATOM     22  C21 <0> d           0.006   4.670  -3.337  0.00  0.00     0.116 A 
ATOM     23  C20 <0> d          -1.220   4.067  -3.126  0.00  0.00     0.020 A 
ATOM     24  C19 <0> d          -1.397   3.262  -2.013  0.00  0.00     0.017 A 
ENDBRANCH  14  19
ENDBRANCH   2  13
BRANCH   1  25
ATOM     25  C4  <0> d           1.867  -1.437  -0.605  0.00  0.00     0.040 A 
ATOM     26  C3  <0> d           2.709  -1.802  -1.647  0.00  0.00     0.030 A 
ATOM     27  C2  <0> d           2.362  -2.849  -2.479  0.00  0.00     0.002 A 
ATOM     28  C1  <0> d           1.177  -3.533  -2.274  0.00  0.00     0.000 A 
ATOM     29  C6  <0> d           0.337  -3.172  -1.237  0.00  0.00     0.002 A 
ATOM     30  C5  <0> d           0.681  -2.130  -0.399  0.00  0.00     0.030 A 
ENDBRANCH   1  25
TORSDOF 3
