REMARK  7 active torsions:
REMARK  status: ('A' for Active; 'I' for Inactive)
REMARK    1  A    between atoms: C2_2  and  C3_3 
REMARK    2  A    between atoms: C2_2  and  N2_6 
REMARK    3  A    between atoms: C3_3  and  C4_4 
REMARK    4  A    between atoms: C4_4  and  N1_5 
REMARK    5  A    between atoms: N2_6  and  C6_8 
REMARK    6  A    between atoms: C11_13  and  S1_14 
REMARK    7  A    between atoms: S1_14  and  N3_17 
ROOT
ATOM      1  C6  <0> d          -1.038  -1.206  -0.459  0.00  0.00     0.053 A 
ATOM      2  C7  <0> d          -1.487  -0.042   0.152  0.00  0.00     0.031 A 
ATOM      3  C8  <0> d          -2.801   0.354  -0.001  0.00  0.00     0.002 A 
ATOM      4  C9  <0> d          -3.670  -0.408  -0.761  0.00  0.00     0.002 A 
ATOM      5  C10 <0> d          -3.226  -1.567  -1.371  0.00  0.00     0.027 A 
ATOM      6  C11 <0> d          -1.911  -1.965  -1.227  0.00  0.00     0.105 A 
ENDROOT
BRANCH   1   7
ATOM      7  N2  <0> d           0.291  -1.608  -0.307  0.00  0.00    -0.380 N 
ATOM      8  C5  <0> d           0.631  -3.033  -0.322  0.00  0.00     0.150 C 
BRANCH   7   9
ATOM      9  C2  <0> d           1.345  -0.606  -0.132  0.00  0.00     0.081 C 
ATOM     10  C1  <0> d           2.273  -0.623  -1.349  0.00  0.00     0.032 C 
BRANCH   9  11
ATOM     11  C3  <0> d           2.151  -0.927   1.128  0.00  0.00     0.052 C 
BRANCH  11  12
ATOM     12  C4  <0> d           1.216  -1.484   2.203  0.00  0.00     0.231 C 
BRANCH  12  13
ATOM     13  N1  <0> d           1.965  -1.680   3.451  0.00  0.00    -0.079 N 
ATOM     14  H9  <0> d           2.720  -2.331   3.292  0.00  0.00     0.274 HD
ATOM     15  H10 <0> d           2.342  -0.796   3.759  0.00  0.00     0.274 HD
ATOM     16  H22 <0> d           1.349  -2.048   4.160  0.00  0.00     0.274 HD
ENDBRANCH  12  13
ENDBRANCH  11  12
ENDBRANCH   9  11
ENDBRANCH   7   9
ENDBRANCH   1   7
BRANCH   6  17
ATOM     17  S1  <0> d          -1.345  -3.438  -2.010  0.00  0.00     0.260 S 
ATOM     18  O1  <0> d          -0.798  -4.258  -0.986  0.00  0.00    -0.200 OA
ATOM     19  O2  <0> d          -2.397  -3.878  -2.858  0.00  0.00    -0.200 OA
BRANCH  17  20
ATOM     20  N3  <0> d          -0.087  -3.014  -2.999  0.00  0.00    -0.320 N 
ATOM     21  C12 <0> d           0.342  -1.615  -3.081  0.00  0.00     0.159 C 
ATOM     22  H18 <0> d           0.367  -3.691  -3.525  0.00  0.00     0.171 HD
ENDBRANCH  17  20
ENDBRANCH   6  17
TORSDOF 7
