REMARK  8 active torsions:
REMARK  status: ('A' for Active; 'I' for Inactive)
REMARK    1  A    between atoms: O1_2  and  C2_3 
REMARK    2  A    between atoms: C2_3  and  C3_5 
REMARK    3  A    between atoms: C5_7  and  N2_18 
REMARK    4  A    between atoms: N1_9  and  C7_10 
REMARK    5  A    between atoms: C7_10  and  C8_11 
REMARK    6  A    between atoms: C13_16  and  O3_17 
REMARK       I    between atoms: N2_18  and  C14_19 
REMARK    7  A    between atoms: C14_19  and  C15_21 
REMARK    8  A    between atoms: C16_22  and  C23_31 
ROOT
ATOM      1  N2  <0> d          -0.312  -5.102  -0.996  0.00  0.00    -0.353 N 
ATOM      2  C14 <0> d          -0.523  -6.387  -1.345  0.00  0.00     0.245 C 
ATOM      3  O4  <0> d          -1.478  -6.679  -2.033  0.00  0.00    -0.271 OA
ATOM      4  H18 <0> d           0.411  -4.876  -0.390  0.00  0.00     0.163 HD
ENDROOT
BRANCH   1   5
ATOM      5  C5  <0> d          -1.175  -4.046  -1.531  0.00  0.00     0.115 C 
ATOM      6  C4  <0> d          -0.429  -2.693  -1.535  0.00  0.00     0.073 C 
ATOM      7  C3  <0> d          -0.920  -2.023  -0.227  0.00  0.00     0.324 C 
ATOM      8  N1  <0> d          -2.347  -2.427  -0.149  0.00  0.00     0.109 N 
ATOM      9  C6  <0> d          -2.393  -3.832  -0.613  0.00  0.00     0.299 C 
BRANCH   7  10
ATOM     10  C2  <0> d          -0.796  -0.524  -0.318  0.00  0.00     0.292 C 
ATOM     11  O2  <0> d          -1.785   0.168  -0.278  0.00  0.00    -0.263 OA
BRANCH  10  12
ATOM     12  O1  <0> d           0.415   0.043  -0.443  0.00  0.00    -0.325 OA
ATOM     13  C1  <0> d           0.458   1.469  -0.524  0.00  0.00     0.213 C 
ENDBRANCH  10  12
ENDBRANCH   7  10
BRANCH   8  14
ATOM     14  C7  <0> d          -2.855  -2.305   1.224  0.00  0.00     0.315 C 
BRANCH  14  15
ATOM     15  C8  <0> d          -4.351  -2.483   1.224  0.00  0.00     0.003 A 
ATOM     16  C13 <0> d          -4.899  -3.756   1.171  0.00  0.00     0.073 A 
ATOM     17  C12 <0> d          -6.278  -3.916   1.177  0.00  0.00     0.037 A 
ATOM     18  C11 <0> d          -7.101  -2.808   1.224  0.00  0.00     0.003 A 
ATOM     19  C10 <0> d          -6.552  -1.540   1.271  0.00  0.00     0.001 A 
ATOM     20  C9  <0> d          -5.179  -1.377   1.270  0.00  0.00     0.012 A 
BRANCH  16  21
ATOM     21  O3  <0> d          -4.088  -4.845   1.119  0.00  0.00    -0.360 OA
ATOM     22  H17 <0> d          -3.848  -5.198   1.987  0.00  0.00     0.217 HD
ENDBRANCH  16  21
ENDBRANCH  14  15
ENDBRANCH   8  14
ENDBRANCH   1   5
BRANCH   2  23
ATOM     23  C15 <0> d           0.428  -7.459  -0.879  0.00  0.00     0.209 A 
ATOM     24  N3  <0> d           0.449  -8.567  -1.840  0.00  0.00    -0.372 N 
ATOM     25  C22 <0> d           0.049  -9.666  -1.238  0.00  0.00     0.040 A 
ATOM     26  H27 <0> d           0.715  -8.499  -2.771  0.00  0.00     0.161 HD
ATOM     27  C17 <0> d          -0.273  -9.392   0.175  0.00  0.00     0.002 A 
ATOM     28  C21 <0> d          -0.109 -10.996  -1.715  0.00  0.00     0.032 A 
ATOM     29  C16 <0> d          -0.052  -8.049   0.428  0.00  0.00    -0.004 A 
ATOM     30  C18 <0> d          -0.723 -10.458   0.992  0.00  0.00     0.038 A 
ATOM     31  C19 <0> d          -0.848 -11.701   0.466  0.00  0.00     0.035 A 
ATOM     32  C20 <0> d          -0.543 -11.965  -0.875  0.00  0.00     0.026 A 
ATOM     33 Cl1  <0> d          -1.400 -12.997   1.479  0.00  0.00    -0.084 Cl
BRANCH  29  34
ATOM     34  C23 <0> d          -0.242  -7.345   1.699  0.00  0.00    -0.026 A 
ATOM     35  C28 <0> d           0.463  -6.161   1.962  0.00  0.00     0.012 A 
ATOM     36  C27 <0> d           0.274  -5.504   3.157  0.00  0.00     0.001 A 
ATOM     37  C26 <0> d          -0.600  -6.014   4.103  0.00  0.00     0.000 A 
ATOM     38  C25 <0> d          -1.296  -7.185   3.854  0.00  0.00     0.001 A 
ATOM     39  C24 <0> d          -1.125  -7.854   2.662  0.00  0.00     0.012 A 
ENDBRANCH  29  34
ENDBRANCH   2  23
TORSDOF 8
