REMARK  4 active torsions:
REMARK  status: ('A' for Active; 'I' for Inactive)
REMARK    1  A    between atoms: C2_2  and  C3_3 
REMARK    2  A    between atoms: C2_2  and  C4_5 
REMARK    3  A    between atoms: C2_2  and  N2_11 
REMARK    4  A    between atoms: C3_3  and  O1_4 
ROOT
ATOM      1  C1  <0> d           0.195   1.476  -0.334  0.00  0.00     0.054 C 
ATOM      2  C2  <0> d           0.002  -0.004   0.002  0.00  0.00     0.173 C 
ENDROOT
BRANCH   2   3
ATOM      3  C3  <0> d           0.663  -0.312   1.347  0.00  0.00     0.208 C 
BRANCH   3   4
ATOM      4  O1  <0> d           0.432  -1.680   1.690  0.00  0.00    -0.398 OA
ATOM      5  H6  <0> d           0.823  -1.946   2.533  0.00  0.00     0.209 HD
ENDBRANCH   3   4
ENDBRANCH   2   3
BRANCH   2   6
ATOM      6  C4  <0> d          -1.471  -0.313   0.084  0.00  0.00    -0.003 A 
ATOM      7  C8  <0> d          -2.077  -1.089  -0.886  0.00  0.00     0.126 A 
ATOM      8  N1  <0> d          -3.365  -1.369  -0.818  0.00  0.00    -0.272 NA
ATOM      9  C7  <0> d          -4.122  -0.915   0.161  0.00  0.00     0.116 A 
ATOM     10  C6  <0> d          -3.586  -0.128   1.163  0.00  0.00     0.020 A 
ATOM     11  C5  <0> d          -2.235   0.182   1.129  0.00  0.00     0.012 A 
ENDBRANCH   2   6
BRANCH   2  12
ATOM     12  N2  <0> d           0.618  -0.828  -1.046  0.00  0.00    -0.054 N 
ATOM     13  C13 <0> d           1.966  -0.474  -1.166  0.00  0.00     0.266 C 
ATOM     14  C12 <0> d           2.673  -1.238  -2.302  0.00  0.00     0.297 C 
ATOM     15  N3  <0> d           3.017  -2.561  -1.833  0.00  0.00     0.085 N 
ATOM     16  C11 <0> d           2.003  -3.589  -2.162  0.00  0.00     0.271 C 
ATOM     17  H17 <0> d           3.216  -2.554  -0.844  0.00  0.00     0.315 HD
ATOM     18  C10 <0> d           0.566  -3.077  -1.960  0.00  0.00     0.057 C 
ATOM     19  C9  <0> d           0.432  -2.255  -0.703  0.00  0.00     0.238 C 
ATOM     20  H22 <0> d           0.153  -0.642  -1.922  0.00  0.00     0.281 HD
ENDBRANCH   2  12
TORSDOF 4
