REMARK  4 active torsions:
REMARK  status: ('A' for Active; 'I' for Inactive)
REMARK    1  A    between atoms: C2_2  and  C3_3 
REMARK    2  A    between atoms: N3_7  and  C5_8 
REMARK    3  A    between atoms: C5_8  and  C7_10 
REMARK       I    between atoms: C7_10  and  N4_12 
REMARK    4  A    between atoms: N4_12  and  C8_13 
ROOT
ATOM      1  C3  <0> d           0.707  -0.490  -1.238  0.00  0.00     0.129 A 
ATOM      2  N1  <0> d           1.224   0.263  -2.155  0.00  0.00    -0.159 NA
ATOM      3  N2  <0> d           1.784  -0.566  -3.136  0.00  0.00    -0.251 N 
ATOM      4  C4  <0> d           1.572  -1.842  -2.752  0.00  0.00     0.196 A 
ATOM      5  N3  <0> d           0.913  -1.805  -1.577  0.00  0.00    -0.296 N 
ATOM      6  S1  <0> d           2.058  -3.249  -3.598  0.00  0.00    -0.039 SA
ATOM      7  H16 <0> d           2.240  -0.276  -3.942  0.00  0.00     0.191 HD
ENDROOT
BRANCH   5   8
ATOM      8  C5  <0> d           0.485  -2.969  -0.797  0.00  0.00     0.181 C 
ATOM      9  C6  <0> d          -0.467  -3.823  -1.636  0.00  0.00     0.043 C 
BRANCH   8  10
ATOM     10  C7  <0> d           1.690  -3.788  -0.414  0.00  0.00     0.240 C 
ATOM     11  O1  <0> d           2.798  -3.434  -0.759  0.00  0.00    -0.271 OA
ATOM     12  N4  <0> d           1.538  -4.913   0.312  0.00  0.00    -0.360 N 
ATOM     13  H10 <0> d           0.652  -5.196   0.588  0.00  0.00     0.162 HD
BRANCH  12  14
ATOM     14  C8  <0> d           2.710  -5.709   0.684  0.00  0.00     0.118 C 
ATOM     15  C9  <0> d           2.263  -6.925   1.499  0.00  0.00     0.026 C 
ENDBRANCH  12  14
ENDBRANCH   8  10
ENDBRANCH   5   8
BRANCH   1  16
ATOM     16  C2  <0> d           0.002  -0.004   0.002  0.00  0.00     0.076 C 
ATOM     17  C1  <0> d          -0.019   1.526   0.010  0.00  0.00     0.013 C 
ENDBRANCH   1  16
TORSDOF 4
