REMARK  6 active torsions:
REMARK  status: ('A' for Active; 'I' for Inactive)
REMARK    1  A    between atoms: N4_6  and  C3_7 
REMARK    2  A    between atoms: C6_10  and  C9_13 
REMARK    3  A    between atoms: C9_13  and  C10_14 
REMARK       I    between atoms: C10_14  and  N5_16 
REMARK    4  A    between atoms: N5_16  and  C11_17 
REMARK    5  A    between atoms: C11_17  and  C12_18 
REMARK    6  A    between atoms: C11_17  and  C17_24 
ROOT
ATOM      1  C10 <0> d           2.168  -2.460  -2.240  0.00  0.00     0.222 C 
ATOM      2  O1  <0> d           2.937  -1.641  -2.697  0.00  0.00    -0.273 OA
ATOM      3  N5  <0> d           1.913  -2.481  -0.917  0.00  0.00    -0.348 N 
ATOM      4  H11 <0> d           1.215  -3.224  -0.503  0.00  0.00     0.163 HD
ENDROOT
BRANCH   1   5
ATOM      5  C9  <0> d           1.498  -3.454  -3.153  0.00  0.00     0.141 C 
BRANCH   5   6
ATOM      6  C6  <0> d           1.950  -3.219  -4.571  0.00  0.00    -0.049 A 
ATOM      7  C5  <0> d           3.066  -3.875  -5.057  0.00  0.00     0.010 A 
ATOM      8  C4  <0> d           3.482  -3.662  -6.356  0.00  0.00     0.032 A 
ATOM      9  C3  <0> d           2.779  -2.788  -7.175  0.00  0.00     0.062 A 
ATOM     10  C8  <0> d           1.659  -2.131  -6.684  0.00  0.00     0.032 A 
ATOM     11  C7  <0> d           1.244  -2.353  -5.385  0.00  0.00     0.010 A 
BRANCH   9  12
ATOM     12  N4  <0> d           3.199  -2.570  -8.495  0.00  0.00    -0.199 N 
ATOM     13  C2  <0> d           2.422  -2.353  -9.578  0.00  0.00     0.149 A 
ATOM     14  C1  <0> d           0.916  -2.298  -9.600  0.00  0.00     0.095 C 
ATOM     15  N1  <0> d           3.219  -2.196 -10.603  0.00  0.00    -0.114 NA
ATOM     16  N2  <0> d           4.446  -2.308 -10.243  0.00  0.00    -0.023 NA
ATOM     17  N3  <0> d           4.520  -2.537  -8.976  0.00  0.00    -0.039 NA
ENDBRANCH   9  12
ENDBRANCH   5   6
ENDBRANCH   1   5
BRANCH   3  18
ATOM     18  C11 <0> d           2.565  -1.514  -0.030  0.00  0.00     0.158 C 
BRANCH  18  19
ATOM     19  C12 <0> d           2.631  -2.078   1.366  0.00  0.00    -0.028 A 
ATOM     20  C16 <0> d           3.760  -1.897   2.151  0.00  0.00     0.029 A 
ATOM     21  C15 <0> d           3.785  -2.429   3.426  0.00  0.00     0.117 A 
ATOM     22  N6  <0> d           2.752  -3.101   3.898  0.00  0.00    -0.273 NA
ATOM     23  C14 <0> d           1.663  -3.292   3.179  0.00  0.00     0.117 A 
ATOM     24  C13 <0> d           1.564  -2.786   1.897  0.00  0.00     0.029 A 
ENDBRANCH  18  19
BRANCH  18  25
ATOM     25  C17 <0> d           1.773  -0.232  -0.016  0.00  0.00     0.010 A 
ATOM     26  S1  <0> d           0.002  -0.004   0.002  0.00  0.00    -0.104 SA
ATOM     27  C20 <0> d          -0.022   1.781   0.012  0.00  0.00     0.050 A 
ATOM     28  C19 <0> d           1.300   2.079   0.001  0.00  0.00     0.008 A 
ATOM     29  C18 <0> d           2.220   1.048  -0.013  0.00  0.00     0.017 A 
ENDBRANCH  18  25
ENDBRANCH   3  18
TORSDOF 6
