REMARK  4 active torsions:
REMARK  status: ('A' for Active; 'I' for Inactive)
REMARK    1  A    between atoms: C3_3  and  C5_5 
REMARK    2  A    between atoms: C5_5  and  O2_7 
REMARK    3  A    between atoms: O2_7  and  C6_8 
REMARK    4  A    between atoms: C7_9  and  O7_27 
ROOT
ATOM      1  C6  <0> d          -4.791   0.104   0.048  0.00  0.00     0.197 C 
ATOM      2  C7  <0> d          -5.868  -0.680   0.788  0.00  0.00     0.163 C 
ATOM      3  C8  <0> d          -7.097  -0.907  -0.096  0.00  0.00     0.085 C 
ATOM      4  C9  <0> d          -8.181   0.142   0.198  0.00  0.00     0.146 C 
ATOM      5  C10 <0> d          -8.343   1.155  -0.910  0.00  0.00     0.073 C 
ATOM      6  C11 <0> d          -8.543   0.586  -2.304  0.00  0.00     0.086 A 
ATOM      7  C12 <0> d          -7.549   0.955  -3.405  0.00  0.00     0.164 A 
ATOM      8  O3  <0> d          -8.861   1.521  -3.344  0.00  0.00    -0.369 OA
ATOM      9  C13 <0> d          -6.381   1.891  -3.092  0.00  0.00     0.118 C 
ATOM     10  C14 <0> d          -5.880   1.648  -1.694  0.00  0.00     0.160 C 
ATOM     11  O4  <0> d          -6.029   2.497  -0.841  0.00  0.00    -0.293 OA
ATOM     12  C15 <0> d          -5.214   0.389  -1.365  0.00  0.00     0.010 C 
ATOM     13  C16 <0> d          -4.980  -0.510  -2.323  0.00  0.00     0.025 C 
ATOM     14  C17 <0> d          -9.261  -0.768  -2.416  0.00  0.00     0.049 C 
ATOM     15  O5  <0> d          -9.383  -0.572   0.474  0.00  0.00    -0.311 OA
ATOM     16  C18 <0> d          -9.148  -1.875   0.670  0.00  0.00     0.289 C 
ATOM     17  O6  <0> d          -9.964  -2.667   1.098  0.00  0.00    -0.260 OA
ATOM     18  C19 <0> d          -7.770  -2.217   0.296  0.00  0.00     0.017 C 
ATOM     19  C20 <0> d          -7.219  -3.429   0.298  0.00  0.00     0.025 C 
ENDROOT
BRANCH   1  20
ATOM     20  O2  <0> d          -3.582  -0.658   0.033  0.00  0.00    -0.305 OA
BRANCH  20  21
ATOM     21  C5  <0> d          -2.424   0.032   0.025  0.00  0.00     0.289 C 
ATOM     22  O1  <0> d          -2.440   1.248   0.032  0.00  0.00    -0.260 OA
BRANCH  21  23
ATOM     23  C3  <0> d          -1.141  -0.685   0.009  0.00  0.00     0.009 C 
ATOM     24  C2  <0> d           0.002  -0.004   0.002  0.00  0.00    -0.018 C 
ATOM     25  C1  <0> d          -0.018   1.503   0.010  0.00  0.00     0.036 C 
ATOM     26  C4  <0> d          -1.121  -2.192   0.001  0.00  0.00     0.054 C 
ENDBRANCH  21  23
ENDBRANCH  20  21
ENDBRANCH   1  20
BRANCH   2  27
ATOM     27  O7  <0> d          -6.260   0.049   1.953  0.00  0.00    -0.392 OA
ATOM     28  H24 <0> d          -5.539   0.209   2.578  0.00  0.00     0.210 HD
ENDBRANCH   2  27
TORSDOF 4
