REMARK  8 active torsions:
REMARK  status: ('A' for Active; 'I' for Inactive)
REMARK    1  A    between atoms: C2_2  and  O2_4 
REMARK    2  A    between atoms: O2_4  and  C3_5 
REMARK    3  A    between atoms: C8_10  and  C9_11 
REMARK       I    between atoms: C9_11  and  N1_13 
REMARK    4  A    between atoms: C11_15  and  C18_23 
REMARK       I    between atoms: C18_23  and  N3_25 
REMARK    5  A    between atoms: N3_25  and  C19_26 
REMARK    6  A    between atoms: C19_26  and  C20_27 
REMARK    7  A    between atoms: C20_27  and  C21_28 
REMARK    8  A    between atoms: C20_27  and  N4_34 
ROOT
ATOM      1  C9  <0> d          -3.429  -2.294  -0.148  0.00  0.00     0.256 C 
ATOM      2  O3  <0> d          -3.575  -1.091  -0.244  0.00  0.00    -0.267 OA
ATOM      3  N1  <0> d          -4.506  -3.104  -0.125  0.00  0.00    -0.346 N 
ATOM      4  C10 <0> d          -4.527  -4.585  -0.070  0.00  0.00     0.141 C 
ATOM      5  C11 <0> d          -5.696  -4.923   0.883  0.00  0.00     0.106 C 
ATOM      6  C12 <0> d          -6.617  -3.694   0.826  0.00  0.00    -0.007 C 
ATOM      7  C13 <0> d          -5.936  -2.715  -0.142  0.00  0.00     0.136 C 
ATOM      8  C14 <0> d          -6.739  -3.060   2.208  0.00  0.00     0.039 C 
ATOM      9  C15 <0> d          -7.705  -1.874   2.138  0.00  0.00     0.233 C 
ATOM     10  N2  <0> d          -9.018  -2.337   1.672  0.00  0.00    -0.075 N 
ATOM     11  C16 <0> d          -8.909  -2.860   0.305  0.00  0.00     0.233 C 
ATOM     12  C17 <0> d          -7.993  -4.088   0.298  0.00  0.00     0.039 C 
ATOM     13  H18 <0> d          -9.353  -3.066   2.284  0.00  0.00     0.277 HD
ATOM     14  H37 <0> d          -9.669  -1.566   1.685  0.00  0.00     0.277 HD
ENDROOT
BRANCH   5  15
ATOM     15  C18 <0> d          -5.185  -5.135   2.285  0.00  0.00     0.224 C 
ATOM     16  O4  <0> d          -4.248  -4.482   2.694  0.00  0.00    -0.273 OA
ATOM     17  N3  <0> d          -5.769  -6.049   3.084  0.00  0.00    -0.358 N 
ATOM     18  H23 <0> d          -6.518  -6.571   2.757  0.00  0.00     0.162 HD
BRANCH  17  19
ATOM     19  C19 <0> d          -5.273  -6.255   4.447  0.00  0.00     0.160 C 
BRANCH  19  20
ATOM     20  C20 <0> d          -6.022  -7.422   5.092  0.00  0.00     0.237 C 
BRANCH  20  21
ATOM     21  C21 <0> d          -7.490  -7.094   5.172  0.00  0.00    -0.026 A 
ATOM     22  C26 <0> d          -8.366  -7.609   4.234  0.00  0.00     0.009 A 
ATOM     23  C25 <0> d          -9.714  -7.311   4.311  0.00  0.00     0.001 A 
ATOM     24  C24 <0> d         -10.185  -6.491   5.319  0.00  0.00     0.000 A 
ATOM     25  C23 <0> d          -9.308  -5.972   6.254  0.00  0.00     0.001 A 
ATOM     26  C22 <0> d          -7.961  -6.273   6.180  0.00  0.00     0.009 A 
ENDBRANCH  20  21
BRANCH  20  27
ATOM     27  N4  <0> d          -5.497  -7.654   6.444  0.00  0.00    -0.069 N 
ATOM     28  C27 <0> d          -6.139  -8.842   7.022  0.00  0.00     0.270 C 
ATOM     29  C28 <0> d          -4.045  -7.865   6.377  0.00  0.00     0.270 C 
ATOM     30  H38 <0> d          -5.694  -6.851   7.023  0.00  0.00     0.279 HD
ENDBRANCH  20  27
ENDBRANCH  19  20
ENDBRANCH  17  19
ENDBRANCH   5  15
BRANCH   1  31
ATOM     31  C8  <0> d          -2.072  -2.867  -0.056  0.00  0.00     0.066 A 
ATOM     32  C3  <0> d          -1.067  -2.190   0.648  0.00  0.00     0.094 A 
ATOM     33  C4  <0> d           0.203  -2.741   0.733  0.00  0.00     0.038 A 
ATOM     34  C5  <0> d           0.476  -3.949   0.121  0.00  0.00     0.003 A 
ATOM     35  C6  <0> d          -0.513  -4.618  -0.581  0.00  0.00     0.001 A 
ATOM     36  C7  <0> d          -1.781  -4.085  -0.675  0.00  0.00     0.020 A 
BRANCH  32  37
ATOM     37  O2  <0> d          -1.337  -1.004   1.249  0.00  0.00    -0.278 OA
BRANCH  37  38
ATOM     38  C2  <0> d          -1.816  -1.027   2.503  0.00  0.00     0.260 C 
ATOM     39  C1  <0> d          -2.025   0.263   3.254  0.00  0.00     0.126 C 
ATOM     40  O1  <0> d          -2.081  -2.082   3.029  0.00  0.00    -0.265 OA
ENDBRANCH  37  38
ENDBRANCH  32  37
ENDBRANCH   1  31
TORSDOF 8
