REMARK  4 active torsions:
REMARK  status: ('A' for Active; 'I' for Inactive)
REMARK    1  A    between atoms: C2_2  and  C3_3 
REMARK    2  A    between atoms: C2_2  and  S1_9 
REMARK       I    between atoms: C3_3  and  N1_5 
REMARK       I    between atoms: N1_5  and  C4_6 
REMARK       I    between atoms: C4_6  and  N2_8 
REMARK    3  A    between atoms: S1_9  and  C5_10 
REMARK    4  A    between atoms: C6_13  and  C8_16 
ROOT
ATOM      1  C5  <0> d          -2.335  -0.110   1.573  0.00  0.00     0.192 A 
ATOM      2  N3  <0> d          -1.692   0.581   2.486  0.00  0.00    -0.123 NA
ATOM      3  N4  <0> d          -2.458   0.785   3.498  0.00  0.00    -0.134 NA
ATOM      4  C6  <0> d          -3.625   0.243   3.293  0.00  0.00     0.135 A 
ATOM      5  N5  <0> d          -3.590  -0.342   2.057  0.00  0.00    -0.315 N 
ATOM      6  C7  <0> d          -4.674  -1.070   1.392  0.00  0.00     0.160 C 
ENDROOT
BRANCH   1   7
ATOM      7  S1  <0> d          -1.700  -0.632   0.015  0.00  0.00    -0.076 SA
BRANCH   7   8
ATOM      8  C2  <0> d           0.002  -0.004   0.002  0.00  0.00     0.143 C 
ATOM      9  C1  <0> d          -0.019   1.526   0.010  0.00  0.00     0.031 C 
BRANCH   8  10
ATOM     10  C3  <0> d           0.707  -0.490  -1.238  0.00  0.00     0.239 C 
ATOM     11  O1  <0> d           0.067  -0.782  -2.225  0.00  0.00    -0.272 OA
ATOM     12  N1  <0> d           2.051  -0.601  -1.250  0.00  0.00    -0.279 N 
ATOM     13  C4  <0> d           2.682  -1.035  -2.358  0.00  0.00     0.320 C 
ATOM     14  H6  <0> d           2.563  -0.367  -0.460  0.00  0.00     0.173 HD
ATOM     15  O2  <0> d           2.039  -1.327  -3.348  0.00  0.00    -0.247 OA
ATOM     16  N2  <0> d           4.025  -1.146  -2.370  0.00  0.00    -0.352 N 
ATOM     17  H7  <0> d           4.537  -0.912  -1.580  0.00  0.00     0.160 HD
ATOM     18  H8  <0> d           4.479  -1.458  -3.168  0.00  0.00     0.160 HD
ENDBRANCH   8  10
ENDBRANCH   7   8
ENDBRANCH   1   7
BRANCH   4  19
ATOM     19  C8  <0> d          -4.797   0.261   4.240  0.00  0.00     0.072 C 
ATOM     20  C11 <0> d          -5.226   1.726   4.498  0.00  0.00     0.152 C 
ATOM     21  S2  <0> d          -5.855   1.665   6.224  0.00  0.00     0.145 S 
ATOM     22  C10 <0> d          -5.497  -0.099   6.618  0.00  0.00     0.141 C 
ATOM     23  O3  <0> d          -5.041   2.496   7.041  0.00  0.00    -0.228 OA
ATOM     24  O4  <0> d          -7.263   1.860   6.213  0.00  0.00    -0.228 OA
ATOM     25  C9  <0> d          -4.394  -0.407   5.565  0.00  0.00     0.028 C 
ENDBRANCH   4  19
TORSDOF 4
