REMARK  6 active torsions:
REMARK  status: ('A' for Active; 'I' for Inactive)
REMARK    1  A    between atoms: C2_2  and  C3_3 
REMARK    2  A    between atoms: C3_3  and  N1_4 
REMARK    3  A    between atoms: C9_10  and  N2_13 
REMARK       I    between atoms: N2_13  and  C12_14 
REMARK    4  A    between atoms: C12_14  and  C13_16 
REMARK    5  A    between atoms: C16_19  and  N3_21 
REMARK       I    between atoms: N3_21  and  C17_22 
REMARK    6  A    between atoms: C17_22  and  C18_24 
ROOT
ATOM      1  N2  <0> d           2.010  -2.753  -5.457  0.00  0.00    -0.322 N 
ATOM      2  C12 <0> d           2.195  -2.377  -6.738  0.00  0.00     0.263 C 
ATOM      3  O1  <0> d           1.254  -1.968  -7.395  0.00  0.00    -0.267 OA
ATOM      4  H15 <0> d           2.771  -3.003  -4.910  0.00  0.00     0.169 HD
ENDROOT
BRANCH   2   5
ATOM      5  C13 <0> d           3.485  -2.458  -7.322  0.00  0.00     0.075 A 
ATOM      6  S1  <0> d           5.012  -3.014  -6.590  0.00  0.00    -0.067 SA
ATOM      7  C16 <0> d           6.033  -2.804  -7.907  0.00  0.00     0.077 A 
ATOM      8  C15 <0> d           5.211  -2.306  -8.892  0.00  0.00     0.039 A 
ATOM      9  C14 <0> d           3.884  -2.119  -8.608  0.00  0.00     0.027 A 
BRANCH   7  10
ATOM     10  N3  <0> d           7.394  -3.067  -7.983  0.00  0.00    -0.315 N 
ATOM     11  C17 <0> d           8.046  -3.558  -6.911  0.00  0.00     0.280 C 
ATOM     12  O2  <0> d           7.442  -3.771  -5.876  0.00  0.00    -0.265 OA
ATOM     13  H18 <0> d           7.876  -2.897  -8.808  0.00  0.00     0.170 HD
BRANCH  11  14
ATOM     14  C18 <0> d           9.484  -3.835  -6.991  0.00  0.00     0.142 A 
ATOM     15  O3  <0> d          10.269  -3.646  -8.071  0.00  0.00    -0.317 OA
ATOM     16  C21 <0> d          11.525  -4.005  -7.777  0.00  0.00     0.143 A 
ATOM     17  C20 <0> d          11.564  -4.441  -6.498  0.00  0.00     0.027 A 
ATOM     18  C19 <0> d          10.261  -4.336  -5.986  0.00  0.00     0.045 A 
ENDBRANCH  11  14
ENDBRANCH   7  10
ENDBRANCH   2   5
BRANCH   1  19
ATOM     19  C9  <0> d           0.720  -2.784  -4.917  0.00  0.00     0.043 A 
ATOM     20  C8  <0> d          -0.380  -2.941  -5.750  0.00  0.00     0.030 A 
ATOM     21  C7  <0> d          -1.652  -2.971  -5.213  0.00  0.00     0.003 A 
ATOM     22  C6  <0> d          -1.831  -2.844  -3.848  0.00  0.00     0.009 A 
ATOM     23  C5  <0> d          -0.739  -2.688  -3.015  0.00  0.00    -0.022 A 
ATOM     24  C4  <0> d          -0.632  -2.529  -1.515  0.00  0.00     0.274 C 
ATOM     25  C10 <0> d           0.537  -2.657  -3.547  0.00  0.00     0.002 A 
ATOM     26  N1  <0> d           0.722  -1.982  -1.267  0.00  0.00    -0.063 N 
ATOM     27  C11 <0> d           1.520  -2.477  -2.412  0.00  0.00     0.276 C 
ATOM     28  H22 <0> d           1.094  -2.334  -0.398  0.00  0.00     0.280 HD
BRANCH  26  29
ATOM     29  C3  <0> d           0.690  -0.513  -1.257  0.00  0.00     0.235 C 
BRANCH  29  30
ATOM     30  C2  <0> d          -0.033  -0.027   0.001  0.00  0.00     0.023 C 
ATOM     31  C1  <0> d          -0.065   1.502   0.011  0.00  0.00     0.007 C 
ENDBRANCH  29  30
ENDBRANCH  26  29
ENDBRANCH   1  19
TORSDOF 6
