REMARK  4 active torsions:
REMARK  status: ('A' for Active; 'I' for Inactive)
REMARK    1  A    between atoms: C2_2  and  C3_3 
REMARK    2  A    between atoms: C5_6  and  N2_8 
REMARK       I    between atoms: N2_8  and  C6_9 
REMARK    3  A    between atoms: C6_9  and  C7_11 
REMARK    4  A    between atoms: C10_14  and  N4_17 
ROOT
ATOM      1  N2  <0> d           0.225  -1.497   4.667  0.00  0.00    -0.301 N 
ATOM      2  C6  <0> d           1.047  -1.935   5.642  0.00  0.00     0.259 C 
ATOM      3  O1  <0> d           2.237  -2.059   5.424  0.00  0.00    -0.267 OA
ATOM      4  H14 <0> d          -0.724  -1.398   4.841  0.00  0.00     0.171 HD
ENDROOT
BRANCH   2   5
ATOM      5  C7  <0> d           0.503  -2.263   6.973  0.00  0.00     0.050 A 
ATOM      6  C11 <0> d          -0.861  -2.124   7.234  0.00  0.00     0.136 A 
ATOM      7  N3  <0> d          -1.348  -2.421   8.421  0.00  0.00    -0.243 NA
ATOM      8  C10 <0> d          -0.569  -2.849   9.405  0.00  0.00     0.120 A 
ATOM      9  C9  <0> d           0.803  -3.006   9.217  0.00  0.00     0.051 A 
ATOM     10  C8  <0> d           1.351  -2.713   7.997  0.00  0.00     0.022 A 
BRANCH   8  11
ATOM     11  N4  <0> d          -1.127  -3.144  10.638  0.00  0.00    -0.384 N 
ATOM     12  H9  <0> d          -0.564  -3.458  11.363  0.00  0.00     0.157 HD
ATOM     13  H10 <0> d          -2.081  -3.037  10.777  0.00  0.00     0.157 HD
ENDBRANCH   8  11
ENDBRANCH   2   5
BRANCH   1  14
ATOM     14  C5  <0> d           0.738  -1.188   3.414  0.00  0.00     0.174 A 
ATOM     15  S1  <0> d           2.332  -1.281   2.884  0.00  0.00    -0.055 SA
ATOM     16  C4  <0> d           2.070  -0.716   1.210  0.00  0.00     0.007 A 
ATOM     17  C3  <0> d           0.731  -0.503   1.223  0.00  0.00     0.050 A 
ATOM     18  C12 <0> d           3.062  -0.528   0.092  0.00  0.00     0.058 C 
ATOM     19  N1  <0> d           0.095  -0.748   2.354  0.00  0.00    -0.228 NA
BRANCH  17  20
ATOM     20  C2  <0> d           0.002  -0.004   0.002  0.00  0.00     0.056 C 
ATOM     21  C1  <0> d          -0.019   1.526   0.010  0.00  0.00     0.011 C 
ENDBRANCH  17  20
ENDBRANCH   1  14
TORSDOF 4
