REMARK  6 active torsions:
REMARK  status: ('A' for Active; 'I' for Inactive)
REMARK    1  A    between atoms: C2_2  and  C3_3 
REMARK    2  A    between atoms: C2_2  and  N1_10 
REMARK    3  A    between atoms: N1_10  and  C10_12 
REMARK    4  A    between atoms: C10_12  and  C11_13 
REMARK       I    between atoms: C11_13  and  N2_15 
REMARK    5  A    between atoms: N2_15  and  C12_16 
REMARK    6  A    between atoms: C13_17  and  C16_21 
REMARK       I    between atoms: C16_21  and  N3_23 
ROOT
ATOM      1  C11 <0> d          -2.766  -2.502  -0.109  0.00  0.00     0.248 C 
ATOM      2  O1  <0> d          -3.695  -1.726  -0.176  0.00  0.00    -0.271 OA
ATOM      3  N2  <0> d          -2.993  -3.830  -0.135  0.00  0.00    -0.319 N 
ATOM      4  H14 <0> d          -2.250  -4.451  -0.081  0.00  0.00     0.169 HD
ENDROOT
BRANCH   1   5
ATOM      5  C10 <0> d          -1.356  -1.981   0.004  0.00  0.00     0.337 C 
BRANCH   5   6
ATOM      6  N1  <0> d          -1.376  -0.512   0.012  0.00  0.00    -0.059 N 
ATOM      7  C9  <0> d          -2.064  -0.039   1.221  0.00  0.00     0.271 C 
ATOM      8  H19 <0> d          -1.864  -0.178  -0.805  0.00  0.00     0.280 HD
BRANCH   6   9
ATOM      9  C2  <0> d           0.002  -0.004   0.002  0.00  0.00     0.218 C 
ATOM     10  C1  <0> d          -0.019   1.526   0.010  0.00  0.00     0.045 C 
BRANCH   9  11
ATOM     11  C3  <0> d           0.707  -0.490  -1.238  0.00  0.00    -0.006 A 
ATOM     12  C8  <0> d           2.086  -0.604  -1.250  0.00  0.00     0.042 A 
ATOM     13  C7  <0> d           2.733  -1.055  -2.387  0.00  0.00     0.024 A 
ATOM     14 Cl1  <0> d           3.004  -0.187   0.163  0.00  0.00    -0.084 Cl
ATOM     15  C6  <0> d           2.002  -1.382  -3.513  0.00  0.00     0.002 A 
ATOM     16  C5  <0> d           0.624  -1.263  -3.502  0.00  0.00     0.001 A 
ATOM     17  C4  <0> d          -0.023  -0.817  -2.365  0.00  0.00     0.011 A 
ENDBRANCH   9  11
ENDBRANCH   6   9
ENDBRANCH   5   6
ENDBRANCH   1   5
BRANCH   3  18
ATOM     18  C12 <0> d          -4.290  -4.310  -0.239  0.00  0.00     0.092 A 
ATOM     19  S1  <0> d          -5.712  -3.425  -0.344  0.00  0.00    -0.083 SA
ATOM     20  C15 <0> d          -6.898  -4.747  -0.448  0.00  0.00     0.053 A 
ATOM     21  C14 <0> d          -6.134  -5.853  -0.389  0.00  0.00     0.027 A 
ATOM     22  C13 <0> d          -4.711  -5.631  -0.275  0.00  0.00     0.066 A 
BRANCH  22  23
ATOM     23  C16 <0> d          -3.760  -6.745  -0.202  0.00  0.00     0.252 C 
ATOM     24  O2  <0> d          -2.567  -6.522  -0.107  0.00  0.00    -0.268 OA
ATOM     25  N3  <0> d          -4.207  -8.016  -0.240  0.00  0.00    -0.366 N 
ATOM     26  H17 <0> d          -5.157  -8.194  -0.315  0.00  0.00     0.159 HD
ATOM     27  H18 <0> d          -3.578  -8.753  -0.191  0.00  0.00     0.159 HD
ENDBRANCH  22  23
ENDBRANCH   3  18
TORSDOF 6
