REMARK  6 active torsions:
REMARK  status: ('A' for Active; 'I' for Inactive)
REMARK    1  A    between atoms: C5_6  and  S1_13 
REMARK    2  A    between atoms: S1_13  and  N3_16 
REMARK    3  A    between atoms: N3_16  and  C10_17 
REMARK    4  A    between atoms: N4_22  and  C15_24 
REMARK    5  A    between atoms: C15_24  and  C16_25 
REMARK    6  A    between atoms: C16_25  and  O5_26 
ROOT
ATOM      1  S1  <0> d          -4.529  -3.727  -0.296  0.00  0.00     0.263 S 
ATOM      2  O2  <0> d          -3.807  -4.744   0.386  0.00  0.00    -0.200 OA
ATOM      3  O3  <0> d          -5.737  -3.178   0.214  0.00  0.00    -0.200 OA
ENDROOT
BRANCH   1   4
ATOM      4  C5  <0> d          -3.416  -2.378  -0.513  0.00  0.00     0.082 A 
ATOM      5  C4  <0> d          -3.908  -1.118  -0.806  0.00  0.00     0.028 A 
ATOM      6  C3  <0> d          -3.043  -0.055  -0.978  0.00  0.00     0.034 A 
ATOM      7  C2  <0> d          -1.676  -0.251  -0.856  0.00  0.00     0.065 A 
ATOM      8  N1  <0> d          -0.575   0.595  -0.968  0.00  0.00    -0.302 N 
ATOM      9  C7  <0> d          -1.179  -1.522  -0.560  0.00  0.00     0.067 A 
ATOM     10  C1  <0> d          -0.623   2.028  -1.271  0.00  0.00     0.161 C 
ATOM     11  C8  <0> d           0.540  -0.129  -0.756  0.00  0.00     0.329 A 
ATOM     12  N2  <0> d           0.208  -1.409  -0.502  0.00  0.00    -0.302 N 
ATOM     13  O1  <0> d           1.675   0.307  -0.787  0.00  0.00    -0.246 OA
ATOM     14  C9  <0> d           1.146  -2.498  -0.218  0.00  0.00     0.161 C 
ATOM     15  C6  <0> d          -2.055  -2.583  -0.389  0.00  0.00     0.057 A 
ENDBRANCH   1   4
BRANCH   1  16
ATOM     16  N3  <0> d          -4.878  -4.321  -1.801  0.00  0.00    -0.279 N 
ATOM     17  H10 <0> d          -5.778  -4.249  -2.155  0.00  0.00     0.179 HD
BRANCH  16  18
ATOM     18  C10 <0> d          -3.870  -4.929  -2.566  0.00  0.00     0.058 A 
ATOM     19  C14 <0> d          -4.122  -5.309  -3.846  0.00  0.00     0.124 A 
ATOM     20  N4  <0> d          -3.152  -5.894  -4.598  0.00  0.00    -0.320 N 
ATOM     21  C13 <0> d          -1.927  -6.120  -4.088  0.00  0.00     0.247 A 
ATOM     22  C12 <0> d          -1.633  -5.746  -2.766  0.00  0.00     0.077 A 
ATOM     23  O4  <0> d          -1.068  -6.651  -4.775  0.00  0.00    -0.268 OA
ATOM     24  C11 <0> d          -2.600  -5.153  -2.007  0.00  0.00     0.037 A 
BRANCH  20  25
ATOM     25  C15 <0> d          -3.445  -6.289  -5.978  0.00  0.00     0.158 C 
BRANCH  25  26
ATOM     26  C16 <0> d          -4.061  -7.690  -5.989  0.00  0.00     0.187 C 
BRANCH  26  27
ATOM     27  O5  <0> d          -5.315  -7.663  -5.304  0.00  0.00    -0.394 OA
ATOM     28  C17 <0> d          -5.924  -8.948  -5.158  0.00  0.00     0.201 C 
ENDBRANCH  26  27
ENDBRANCH  25  26
ENDBRANCH  20  25
ENDBRANCH  16  18
ENDBRANCH   1  16
TORSDOF 6
