REMARK  3 active torsions:
REMARK  status: ('A' for Active; 'I' for Inactive)
REMARK    1  A    between atoms: C2_2  and  C4_4 
REMARK    2  A    between atoms: C4_4  and  C5_5 
REMARK       I    between atoms: C5_5  and  N1_7 
REMARK    3  A    between atoms: N1_7  and  N2_8 
ROOT
ATOM      1  N2  <0> d           4.333   0.009  -2.141  0.00  0.00    -0.199 N 
ATOM      2  C6  <0> d           4.737   1.022  -2.889  0.00  0.00     0.286 A 
ATOM      3  O2  <0> d           3.966   1.655  -3.584  0.00  0.00    -0.265 OA
ATOM      4  C7  <0> d           6.189   1.345  -2.833  0.00  0.00     0.094 A 
ATOM      5  C8  <0> d           6.899   2.330  -3.491  0.00  0.00     0.067 A 
ATOM      6  C9  <0> d           6.410   3.235  -4.552  0.00  0.00     0.009 A 
ATOM      7  C10 <0> d           5.179   3.383  -5.186  0.00  0.00     0.034 A 
ATOM      8  C11 <0> d           5.025   4.344  -6.166  0.00  0.00     0.011 A 
ATOM      9  C12 <0> d           6.092   5.156  -6.516  0.00  0.00     0.021 A 
ATOM     10  C13 <0> d           7.316   5.017  -5.893  0.00  0.00     0.032 A 
ATOM     11  C14 <0> d           7.491   4.056  -4.903  0.00  0.00     0.046 A 
ATOM     12  N3  <0> d           8.597   3.713  -4.133  0.00  0.00    -0.322 N 
ATOM     13  C15 <0> d           8.310   2.713  -3.282  0.00  0.00     0.258 A 
ATOM     14  O3  <0> d           9.078   2.210  -2.483  0.00  0.00    -0.267 OA
ATOM     15 Br1  <0> d           3.357   4.551  -7.032  0.00  0.00    -0.051 Br
ATOM     16  S1  <0> d           6.762   0.105  -1.679  0.00  0.00    -0.052 SA
ATOM     17  C16 <0> d           5.191  -0.685  -1.368  0.00  0.00     0.168 A 
ATOM     18  S2  <0> d           4.856  -2.010  -0.337  0.00  0.00    -0.050 SA
ATOM     19  H14 <0> d           9.464   4.144  -4.198  0.00  0.00     0.169 HD
ENDROOT
BRANCH   1  20
ATOM     20  N1  <0> d           2.978  -0.346  -2.148  0.00  0.00    -0.259 N 
ATOM     21  C5  <0> d           2.192  -0.027  -1.101  0.00  0.00     0.236 C 
ATOM     22  O1  <0> d           2.658   0.569  -0.152  0.00  0.00    -0.272 OA
ATOM     23  H10 <0> d           2.605  -0.823  -2.906  0.00  0.00     0.190 HD
BRANCH  21  24
ATOM     24  C4  <0> d           0.734  -0.410  -1.108  0.00  0.00     0.108 C 
BRANCH  24  25
ATOM     25  C2  <0> d           0.075   0.067   0.188  0.00  0.00    -0.014 C 
ATOM     26  C1  <0> d           0.092   1.596   0.236  0.00  0.00     0.010 C 
ATOM     27  C3  <0> d          -1.371  -0.429   0.237  0.00  0.00     0.010 C 
ENDBRANCH  24  25
ENDBRANCH  21  24
ENDBRANCH   1  20
TORSDOF 3
