REMARK  8 active torsions:
REMARK  status: ('A' for Active; 'I' for Inactive)
REMARK    1  A    between atoms: C2_2  and  C3_3 
REMARK    2  A    between atoms: C2_2  and  N4_27 
REMARK       I    between atoms: C3_3  and  N1_5 
REMARK    3  A    between atoms: N1_5  and  C4_6 
REMARK    4  A    between atoms: C7_9  and  N2_12 
REMARK       I    between atoms: N2_12  and  C10_13 
REMARK    5  A    between atoms: C10_13  and  C11_15 
REMARK    6  A    between atoms: C11_15  and  S1_16 
REMARK    7  A    between atoms: S1_16  and  C12_17 
REMARK    8  A    between atoms: C15_20  and  C17_23 
ROOT
ATOM      1  C4  <0> d          -3.506  -0.808   1.062  0.00  0.00     0.034 A 
ATOM      2  C5  <0> d          -3.874  -1.675   0.042  0.00  0.00     0.032 A 
ATOM      3  C6  <0> d          -5.131  -2.246   0.041  0.00  0.00     0.032 A 
ATOM      4  C7  <0> d          -6.027  -1.954   1.061  0.00  0.00     0.034 A 
ATOM      5  C8  <0> d          -5.659  -1.087   2.081  0.00  0.00     0.032 A 
ATOM      6  C9  <0> d          -4.400  -0.520   2.085  0.00  0.00     0.032 A 
ENDROOT
BRANCH   4   7
ATOM      7  N2  <0> d          -7.302  -2.534   1.060  0.00  0.00    -0.327 N 
ATOM      8  C10 <0> d          -8.361  -1.834   1.514  0.00  0.00     0.231 C 
ATOM      9  O2  <0> d          -8.197  -0.735   2.001  0.00  0.00    -0.272 OA
ATOM     10  H10 <0> d          -7.423  -3.438   0.732  0.00  0.00     0.169 HD
BRANCH   8  11
ATOM     11  C11 <0> d          -9.747  -2.417   1.417  0.00  0.00     0.184 C 
BRANCH  11  12
ATOM     12  S1  <0> d         -10.946  -1.243   2.107  0.00  0.00    -0.101 SA
BRANCH  12  13
ATOM     13  C12 <0> d         -12.496  -2.060   1.923  0.00  0.00     0.093 A 
ATOM     14  N3  <0> d         -12.543  -3.264   1.373  0.00  0.00    -0.253 NA
ATOM     15  C16 <0> d         -13.682  -3.912   1.221  0.00  0.00     0.134 A 
ATOM     16  C15 <0> d         -14.876  -3.348   1.624  0.00  0.00     0.065 A 
ATOM     17  C14 <0> d         -14.872  -2.084   2.200  0.00  0.00     0.020 A 
ATOM     18  C13 <0> d         -13.662  -1.431   2.351  0.00  0.00     0.040 A 
BRANCH  16  19
ATOM     19  C17 <0> d         -16.172  -4.096   1.440  0.00  0.00     0.418 C 
ATOM     20  F1  <0> d         -16.718  -3.783   0.191  0.00  0.00    -0.166 F 
ATOM     21  F2  <0> d         -15.930  -5.472   1.512  0.00  0.00    -0.166 F 
ATOM     22  F3  <0> d         -17.070  -3.727   2.447  0.00  0.00    -0.166 F 
ENDBRANCH  16  19
ENDBRANCH  12  13
ENDBRANCH  11  12
ENDBRANCH   8  11
ENDBRANCH   4   7
BRANCH   1  23
ATOM     23  N1  <0> d          -2.231  -0.228   1.063  0.00  0.00    -0.325 N 
ATOM     24  C3  <0> d          -1.590  -0.012   2.228  0.00  0.00     0.246 C 
ATOM     25  O1  <0> d          -2.149  -0.242   3.280  0.00  0.00    -0.271 OA
ATOM     26  H5  <0> d          -1.810   0.018   0.225  0.00  0.00     0.169 HD
BRANCH  24  27
ATOM     27  C2  <0> d          -0.177   0.514   2.225  0.00  0.00     0.199 C 
ATOM     28  C1  <0> d           0.730  -0.466   1.480  0.00  0.00     0.044 C 
BRANCH  27  29
ATOM     29  N4  <0> d           0.292   0.662   3.605  0.00  0.00    -0.249 N 
ATOM     30  N6  <0> d           0.257   1.829   4.386  0.00  0.00    -0.164 NA
ATOM     31  C19 <0> d           0.770   1.521   5.548  0.00  0.00     0.256 A 
ATOM     32  N5  <0> d           1.129   0.238   5.536  0.00  0.00    -0.234 NA
ATOM     33  C18 <0> d           0.847  -0.291   4.373  0.00  0.00     0.230 A 
ENDBRANCH  27  29
ENDBRANCH  24  27
ENDBRANCH   1  23
TORSDOF 8
