REMARK  4 active torsions:
REMARK  status: ('A' for Active; 'I' for Inactive)
REMARK    1  A    between atoms: C3_4  and  S2_20 
REMARK    2  A    between atoms: C5_6  and  C6_7 
REMARK       I    between atoms: C6_7  and  N2_9 
REMARK    3  A    between atoms: N2_9  and  C7_10 
REMARK    4  A    between atoms: S2_20  and  N4_23 
ROOT
ATOM      1  C1  <0> d          -0.019   1.460   0.010  0.00  0.00     0.156 C 
ATOM      2  N1  <0> d          -0.002  -0.005   0.002  0.00  0.00    -0.355 N 
ATOM      3  C2  <0> d          -0.096  -0.791  -1.098  0.00  0.00     0.116 A 
ATOM      4  C3  <0> d          -0.044  -2.089  -0.715  0.00  0.00     0.097 A 
ATOM      5  C4  <0> d           0.087  -2.121   0.677  0.00  0.00     0.062 A 
ATOM      6  C5  <0> d           0.117  -0.812   1.111  0.00  0.00     0.104 A 
ENDROOT
BRANCH   6   7
ATOM      7  C6  <0> d           0.249  -0.362   2.500  0.00  0.00     0.274 C 
ATOM      8  O1  <0> d           0.172   0.823   2.766  0.00  0.00    -0.266 OA
ATOM      9  N2  <0> d           0.457  -1.262   3.483  0.00  0.00    -0.300 N 
ATOM     10  H6  <0> d           0.593  -2.196   3.263  0.00  0.00     0.171 HD
BRANCH   9  11
ATOM     11  C7  <0> d           0.474  -0.852   4.801  0.00  0.00     0.174 A 
ATOM     12  S1  <0> d           0.262   0.706   5.411  0.00  0.00    -0.046 SA
ATOM     13  C9  <0> d           0.437   0.310   7.124  0.00  0.00     0.079 A 
ATOM     14  C8  <0> d           0.661  -1.072   7.089  0.00  0.00     0.058 A 
ATOM     15  C10 <0> d           0.391   1.091   8.273  0.00  0.00     0.168 C 
ATOM     16  N3  <0> d           0.667  -1.588   5.884  0.00  0.00    -0.227 NA
ATOM     17  C13 <0> d           0.865  -1.820   8.398  0.00  0.00     0.061 C 
ATOM     18  C12 <0> d           0.131  -1.055   9.503  0.00  0.00     0.014 C 
ATOM     19  C11 <0> d           0.630   0.388   9.597  0.00  0.00     0.085 C 
ATOM     20  O2  <0> d           0.169   2.284   8.221  0.00  0.00    -0.292 OA
ENDBRANCH   9  11
ENDBRANCH   6   7
BRANCH   4  21
ATOM     21  S2  <0> d          -0.127  -3.489  -1.781  0.00  0.00     0.262 S 
ATOM     22  O3  <0> d          -0.592  -4.575  -0.991  0.00  0.00    -0.200 OA
ATOM     23  O4  <0> d          -0.796  -3.063  -2.960  0.00  0.00    -0.200 OA
BRANCH  21  24
ATOM     24  N4  <0> d           1.425  -3.859  -2.225  0.00  0.00    -0.307 N 
ATOM     25  C18 <0> d           2.230  -4.793  -1.427  0.00  0.00     0.135 C 
ATOM     26  C17 <0> d           3.553  -4.124  -1.060  0.00  0.00     0.021 C 
ATOM     27  C16 <0> d           4.242  -3.630  -2.334  0.00  0.00     0.003 C 
ATOM     28  C15 <0> d           3.352  -2.597  -3.030  0.00  0.00     0.021 C 
ATOM     29  C14 <0> d           2.025  -3.254  -3.422  0.00  0.00     0.135 C 
ENDBRANCH  21  24
ENDBRANCH   4  21
TORSDOF 4
