REMARK  4 active torsions:
REMARK  status: ('A' for Active; 'I' for Inactive)
REMARK    1  A    between atoms: C4_4  and  C7_8 
REMARK    2  A    between atoms: C7_8  and  N1_10 
REMARK    3  A    between atoms: N1_10  and  C9_11 
REMARK    4  A    between atoms: C9_11  and  C15_17 
ROOT
ATOM      1  N1  <0> d          -2.529  -3.340  -0.344  0.00  0.00    -0.048 N 
ATOM      2  H12 <0> d          -1.958  -2.825   0.310  0.00  0.00     0.279 HD
ATOM      3  H23 <0> d          -2.438  -2.933  -1.263  0.00  0.00     0.279 HD
ENDROOT
BRANCH   1   4
ATOM      4  C7  <0> d          -2.086  -4.740  -0.383  0.00  0.00     0.219 C 
ATOM      5  C8  <0> d          -2.038  -5.299   1.040  0.00  0.00     0.045 C 
BRANCH   4   6
ATOM      6  C4  <0> d          -0.712  -4.815  -0.998  0.00  0.00     0.004 A 
ATOM      7  C3  <0> d           0.256  -3.785  -1.027  0.00  0.00     0.044 A 
ATOM      8  C2  <0> d           1.330  -4.278  -1.670  0.00  0.00     0.050 A 
ATOM      9  C1  <0> d           2.613  -3.534  -1.940  0.00  0.00     0.076 C 
ATOM     10  O1  <0> d           1.063  -5.542  -2.035  0.00  0.00    -0.320 OA
ATOM     11  C5  <0> d          -0.172  -5.875  -1.625  0.00  0.00     0.058 A 
ATOM     12  C6  <0> d          -0.840  -7.209  -1.837  0.00  0.00     0.077 C 
ENDBRANCH   4   6
ENDBRANCH   1   4
BRANCH   1  13
ATOM     13  C9  <0> d          -3.934  -3.282   0.081  0.00  0.00     0.213 C 
ATOM     14  C14 <0> d          -4.779  -4.173  -0.832  0.00  0.00     0.051 C 
ATOM     15  C13 <0> d          -4.662  -3.680  -2.276  0.00  0.00     0.003 C 
ATOM     16  C12 <0> d          -5.163  -2.237  -2.365  0.00  0.00     0.000 C 
ATOM     17  C11 <0> d          -4.317  -1.347  -1.452  0.00  0.00     0.003 C 
ATOM     18  C10 <0> d          -4.435  -1.839  -0.008  0.00  0.00     0.051 C 
BRANCH  13  19
ATOM     19  C15 <0> d          -4.049  -3.768   1.503  0.00  0.00     0.210 C 
ATOM     20  O2  <0> d          -3.221  -3.429   2.331  0.00  0.00    -0.646 OA
ATOM     21  O3  <0> d          -4.970  -4.498   1.825  0.00  0.00    -0.646 OA
ENDBRANCH  13  19
ENDBRANCH   1  13
TORSDOF 4
