REMARK  7 active torsions:
REMARK  status: ('A' for Active; 'I' for Inactive)
REMARK       I    between atoms: N1_2  and  C2_3 
REMARK    1  A    between atoms: C2_3  and  C3_5 
REMARK    2  A    between atoms: N2_10  and  C8_11 
REMARK    3  A    between atoms: C8_11  and  C9_12 
REMARK    4  A    between atoms: C12_15  and  C13_17 
REMARK    5  A    between atoms: C14_18  and  C15_19 
REMARK    6  A    between atoms: C15_19  and  C16_20 
REMARK    7  A    between atoms: C16_20  and  O2_21 
ROOT
ATOM      1  C3  <0> d           0.695  -2.062  -1.034  0.00  0.00     0.279 C 
ATOM      2  C4  <0> d           1.545  -2.571   0.133  0.00  0.00     0.043 C 
ATOM      3  C5  <0> d           1.444  -4.097   0.203  0.00  0.00     0.004 C 
ATOM      4  C6  <0> d           1.885  -4.691  -1.138  0.00  0.00     0.028 C 
ATOM      5  C7  <0> d           1.023  -4.104  -2.257  0.00  0.00     0.236 C 
ATOM      6  N2  <0> d           1.184  -2.645  -2.289  0.00  0.00    -0.054 N 
ATOM      7  H23 <0> d           2.160  -2.418  -2.407  0.00  0.00     0.281 HD
ENDROOT
BRANCH   6   8
ATOM      8  C8  <0> d           0.416  -2.095  -3.415  0.00  0.00     0.282 C 
BRANCH   8   9
ATOM      9  C9  <0> d           1.009  -2.580  -4.712  0.00  0.00     0.010 A 
ATOM     10  S1  <0> d           2.288  -1.836  -5.710  0.00  0.00    -0.084 SA
ATOM     11  C12 <0> d           2.340  -3.059  -7.009  0.00  0.00     0.058 A 
ATOM     12  C11 <0> d           1.377  -3.946  -6.600  0.00  0.00     0.029 A 
ATOM     13  C10 <0> d           0.702  -3.694  -5.427  0.00  0.00     0.018 A 
BRANCH  11  14
ATOM     14  C13 <0> d           3.168  -3.101  -8.176  0.00  0.00    -0.059 C 
ATOM     15  C14 <0> d           3.847  -3.135  -9.134  0.00  0.00    -0.099 C 
BRANCH  15  16
ATOM     16  C15 <0> d           4.698  -3.179 -10.334  0.00  0.00     0.120 C 
BRANCH  16  17
ATOM     17  C16 <0> d           5.621  -1.958 -10.349  0.00  0.00     0.176 C 
BRANCH  17  18
ATOM     18  O2  <0> d           6.447  -2.000 -11.514  0.00  0.00    -0.400 OA
ATOM     19  H22 <0> d           7.059  -1.255 -11.589  0.00  0.00     0.209 HD
ENDBRANCH  17  18
ENDBRANCH  16  17
ENDBRANCH  15  16
ENDBRANCH  11  14
ENDBRANCH   8   9
ENDBRANCH   6   8
BRANCH   1  20
ATOM     20  C2  <0> d           0.791  -0.560  -1.107  0.00  0.00     0.248 C 
ATOM     21  N1  <0> d          -0.069   0.205  -0.406  0.00  0.00    -0.364 N 
ATOM     22  C1  <0> d           0.024   1.665  -0.477  0.00  0.00     0.149 C 
ATOM     23  H5  <0> d          -0.749  -0.211   0.146  0.00  0.00     0.161 HD
ATOM     24  O1  <0> d           1.642  -0.040  -1.797  0.00  0.00    -0.271 OA
ENDBRANCH   1  20
TORSDOF 7
