REMARK  5 active torsions:
REMARK  status: ('A' for Active; 'I' for Inactive)
REMARK    1  A    between atoms: C7_9  and  C8_11 
REMARK    2  A    between atoms: C8_11  and  O1_12 
REMARK    3  A    between atoms: O1_12  and  C9_13 
REMARK    4  A    between atoms: C9_13  and  C10_15 
REMARK    5  A    between atoms: N4_17  and  C14_22 
ROOT
ATOM      1  C10 <0> d           2.628  -6.878  -0.059  0.00  0.00     0.130 C 
ATOM      2  N3  <0> d           1.336  -6.763  -0.051  0.00  0.00    -0.168 NA
ATOM      3  N4  <0> d           0.509  -7.891  -0.046  0.00  0.00    -0.232 N 
ATOM      4  C11 <0> d           0.994  -9.090   0.332  0.00  0.00     0.240 C 
ATOM      5  O3  <0> d           0.272 -10.064   0.337  0.00  0.00    -0.272 OA
ATOM      6  C12 <0> d           2.438  -9.216   0.746  0.00  0.00     0.111 C 
ATOM      7  C13 <0> d           3.284  -8.233  -0.072  0.00  0.00     0.077 C 
ENDROOT
BRANCH   1   8
ATOM      8  C9  <0> d           3.462  -5.672  -0.061  0.00  0.00     0.310 C 
ATOM      9  O2  <0> d           4.674  -5.771  -0.074  0.00  0.00    -0.258 OA
BRANCH   8  10
ATOM     10  O1  <0> d           2.884  -4.453  -0.049  0.00  0.00    -0.309 OA
BRANCH  10  11
ATOM     11  C8  <0> d           3.757  -3.322  -0.052  0.00  0.00     0.257 C 
BRANCH  11  12
ATOM     12  C7  <0> d           2.939  -2.056  -0.038  0.00  0.00     0.129 A 
ATOM     13  N1  <0> d           1.580  -2.007  -0.024  0.00  0.00    -0.341 N 
ATOM     14  C5  <0> d           1.217  -0.675  -0.013  0.00  0.00     0.062 A 
ATOM     15  H1  <0> d           0.977  -2.767  -0.022  0.00  0.00     0.167 HD
ATOM     16  C4  <0> d           2.418   0.054  -0.021  0.00  0.00     0.085 A 
ATOM     17  C6  <0> d           0.002  -0.004   0.002  0.00  0.00     0.032 A 
ATOM     18  C3  <0> d           2.375   1.450  -0.013  0.00  0.00     0.034 A 
ATOM     19  N2  <0> d           3.430  -0.852  -0.036  0.00  0.00    -0.231 NA
ATOM     20  C2  <0> d           1.170   2.094   0.002  0.00  0.00     0.002 A 
ATOM     21  C1  <0> d          -0.017   1.374   0.010  0.00  0.00     0.002 A 
ENDBRANCH  11  12
ENDBRANCH  10  11
ENDBRANCH   8  10
ENDBRANCH   1   8
BRANCH   3  22
ATOM     22  C14 <0> d          -0.892  -7.768  -0.455  0.00  0.00     0.128 C 
ATOM     23  C17 <0> d          -0.959  -7.278  -1.921  0.00  0.00     0.167 C 
ATOM     24  S1  <0> d          -2.509  -6.290  -1.948  0.00  0.00     0.146 S 
ATOM     25  C16 <0> d          -2.982  -6.417  -0.172  0.00  0.00     0.142 C 
ATOM     26  O4  <0> d          -2.189  -4.938  -2.246  0.00  0.00    -0.228 OA
ATOM     27  O5  <0> d          -3.478  -6.969  -2.735  0.00  0.00    -0.228 OA
ATOM     28  C15 <0> d          -1.606  -6.764   0.465  0.00  0.00     0.043 C 
ENDBRANCH   3  22
TORSDOF 5
