REMARK  6 active torsions:
REMARK  status: ('A' for Active; 'I' for Inactive)
REMARK    1  A    between atoms: C2_2  and  N1_3 
REMARK    2  A    between atoms: N1_3  and  C3_4 
REMARK    3  A    between atoms: N1_3  and  S1_12 
REMARK    4  A    between atoms: C3_4  and  C4_5 
REMARK    5  A    between atoms: C7_8  and  N2_11 
REMARK    6  A    between atoms: S1_12  and  N3_15 
ROOT
ATOM      1  N1  <0> d          -1.366  -0.512   0.133  0.00  0.00    -0.290 N 
ENDROOT
BRANCH   1   2
ATOM      2  C2  <0> d           0.015  -0.041   0.000  0.00  0.00     0.132 C 
ATOM      3  C1  <0> d           0.024   1.483  -0.138  0.00  0.00     0.027 C 
ENDBRANCH   1   2
BRANCH   1   4
ATOM      4  C3  <0> d          -2.186  -0.723  -1.063  0.00  0.00     0.175 C 
BRANCH   4   5
ATOM      5  C4  <0> d          -1.922  -2.100  -1.615  0.00  0.00    -0.040 A 
ATOM      6  C9  <0> d          -2.682  -3.173  -1.186  0.00  0.00     0.011 A 
ATOM      7  C8  <0> d          -2.447  -4.435  -1.695  0.00  0.00     0.029 A 
ATOM      8  C7  <0> d          -1.438  -4.629  -2.630  0.00  0.00     0.025 A 
ATOM      9  C6  <0> d          -0.673  -3.550  -3.055  0.00  0.00     0.029 A 
ATOM     10  C5  <0> d          -0.917  -2.289  -2.546  0.00  0.00     0.011 A 
BRANCH   8  11
ATOM     11  N2  <0> d          -1.194  -5.905  -3.143  0.00  0.00    -0.399 N 
ATOM     12  H12 <0> d          -0.489  -6.039  -3.796  0.00  0.00     0.156 HD
ATOM     13  H13 <0> d          -1.729  -6.657  -2.845  0.00  0.00     0.156 HD
ENDBRANCH   8  11
ENDBRANCH   4   5
ENDBRANCH   1   4
BRANCH   1  14
ATOM     14  S1  <0> d          -2.001  -0.805   1.634  0.00  0.00     0.319 S 
ATOM     15  O1  <0> d          -2.952  -1.848   1.476  0.00  0.00    -0.182 OA
ATOM     16  O2  <0> d          -0.900  -0.905   2.527  0.00  0.00    -0.182 OA
BRANCH  14  17
ATOM     17  N3  <0> d          -2.849   0.546   2.079  0.00  0.00    -0.290 N 
ATOM     18  C13 <0> d          -4.246   0.736   1.657  0.00  0.00     0.163 C 
ATOM     19  C12 <0> d          -4.384   2.128   1.041  0.00  0.00     0.188 C 
ATOM     20  O3  <0> d          -3.857   3.100   1.947  0.00  0.00    -0.388 OA
ATOM     21  C11 <0> d          -2.462   2.948   2.222  0.00  0.00     0.188 C 
ATOM     22  C10 <0> d          -2.227   1.594   2.903  0.00  0.00     0.163 C 
ENDBRANCH  14  17
ENDBRANCH   1  14
TORSDOF 6
