REMARK  4 active torsions:
REMARK  status: ('A' for Active; 'I' for Inactive)
REMARK    1  A    between atoms: C6_6  and  C8_8 
REMARK       I    between atoms: C8_8  and  N1_10 
REMARK    2  A    between atoms: N1_10  and  C9_11 
REMARK    3  A    between atoms: C10_12  and  C18_21 
REMARK       I    between atoms: C18_21  and  N2_23 
REMARK    4  A    between atoms: N2_23  and  N3_24 
ROOT
ATOM      1  C9  <0> d           0.994  -2.721   4.774  0.00  0.00     0.093 A 
ATOM      2  C10 <0> d           1.155  -2.174   6.036  0.00  0.00     0.074 A 
ATOM      3  C11 <0> d           1.441  -3.091   7.131  0.00  0.00    -0.026 A 
ATOM      4  C12 <0> d           1.518  -4.385   6.756  0.00  0.00    -0.008 A 
ATOM      5  S1  <0> d           1.200  -4.369   5.014  0.00  0.00    -0.075 SA
ATOM      6  C13 <0> d           1.813  -5.571   7.619  0.00  0.00     0.046 C 
ATOM      7  C14 <0> d           0.924  -5.519   8.868  0.00  0.00     0.005 C 
ATOM      8  C15 <0> d           1.652  -4.729   9.952  0.00  0.00     0.001 C 
ATOM      9  C16 <0> d           2.505  -3.630   9.321  0.00  0.00     0.005 C 
ATOM     10  C17 <0> d           1.623  -2.635   8.572  0.00  0.00     0.041 C 
ENDROOT
BRANCH   1  11
ATOM     11  N1  <0> d           0.720  -2.059   3.588  0.00  0.00    -0.316 N 
ATOM     12  C8  <0> d           0.589  -2.757   2.442  0.00  0.00     0.257 C 
ATOM     13  O1  <0> d           0.711  -3.967   2.450  0.00  0.00    -0.267 OA
ATOM     14  H7  <0> d           0.622  -1.094   3.582  0.00  0.00     0.169 HD
BRANCH  12  15
ATOM     15  C6  <0> d           0.296  -2.052   1.177  0.00  0.00     0.038 A 
ATOM     16  C5  <0> d           0.036  -2.778   0.014  0.00  0.00    -0.046 A 
ATOM     17  C4  <0> d          -0.236  -2.113  -1.164  0.00  0.00     0.008 A 
ATOM     18  C21 <0> d           0.052  -4.285   0.044  0.00  0.00     0.049 C 
ATOM     19  C3  <0> d          -0.252  -0.730  -1.194  0.00  0.00     0.007 A 
ATOM     20  C2  <0> d           0.005  -0.004  -0.044  0.00  0.00    -0.061 A 
ATOM     21  C1  <0> d          -0.014   1.502  -0.086  0.00  0.00     0.048 C 
ATOM     22  C7  <0> d           0.284  -0.656   1.139  0.00  0.00     0.024 A 
ENDBRANCH  12  15
ENDBRANCH   1  11
BRANCH   2  23
ATOM     23  C18 <0> d           1.043  -0.730   6.261  0.00  0.00     0.269 C 
ATOM     24  O2  <0> d          -0.037  -0.239   6.534  0.00  0.00    -0.266 OA
ATOM     25  N2  <0> d           2.135   0.054   6.166  0.00  0.00    -0.286 N 
ATOM     26  H18 <0> d           2.995  -0.338   5.949  0.00  0.00     0.184 HD
BRANCH  25  27
ATOM     27  N3  <0> d           2.030   1.400   6.376  0.00  0.00    -0.237 NA
ATOM     28  C19 <0> d           2.879   1.826   7.496  0.00  0.00     0.135 C 
ATOM     29  C20 <0> d           2.354   2.149   5.155  0.00  0.00     0.135 C 
ENDBRANCH  25  27
ENDBRANCH   2  23
TORSDOF 4
