REMARK  5 active torsions:
REMARK  status: ('A' for Active; 'I' for Inactive)
REMARK    1  A    between atoms: C6_6  and  C8_8 
REMARK    2  A    between atoms: C8_8  and  S1_9 
REMARK    3  A    between atoms: S1_9  and  C9_10 
REMARK    4  A    between atoms: C12_15  and  C16_22 
REMARK       I    between atoms: C16_22  and  N4_24 
REMARK    5  A    between atoms: N4_24  and  C17_25 
ROOT
ATOM      1  C9  <0> d           1.635  -4.015   4.518  0.00  0.00     0.193 A 
ATOM      2  N1  <0> d           0.417  -4.279   4.955  0.00  0.00    -0.187 NA
ATOM      3  C10 <0> d           0.198  -4.887   6.123  0.00  0.00     0.258 A 
ATOM      4  O1  <0> d          -0.926  -5.150   6.505  0.00  0.00    -0.270 OA
ATOM      5  C11 <0> d           1.420  -5.234   6.949  0.00  0.00     0.163 A 
ATOM      6  C12 <0> d           1.380  -6.731   7.259  0.00  0.00     0.107 C 
ATOM      7  C13 <0> d           2.513  -7.060   8.233  0.00  0.00     0.118 C 
ATOM      8  C14 <0> d           3.814  -6.477   7.762  0.00  0.00     0.223 C 
ATOM      9  O2  <0> d           4.846  -6.925   8.213  0.00  0.00    -0.273 OA
ATOM     10  N2  <0> d           3.885  -5.482   6.862  0.00  0.00    -0.314 N 
ATOM     11  C15 <0> d           2.761  -4.974   6.288  0.00  0.00     0.123 A 
ATOM     12  N3  <0> d           2.769  -4.373   5.132  0.00  0.00    -0.208 NA
ATOM     13  H14 <0> d           4.749  -5.109   6.626  0.00  0.00     0.170 HD
ENDROOT
BRANCH   6  14
ATOM     14  C16 <0> d           1.560  -7.516   5.985  0.00  0.00     0.228 C 
ATOM     15  O3  <0> d           1.707  -6.935   4.930  0.00  0.00    -0.273 OA
ATOM     16  N4  <0> d           1.559  -8.864   6.018  0.00  0.00    -0.325 N 
ATOM     17  H15 <0> d           1.507  -9.328   6.868  0.00  0.00     0.169 HD
BRANCH  16  18
ATOM     18  C17 <0> d           1.632  -9.593   4.825  0.00  0.00     0.056 A 
ATOM     19  C22 <0> d           0.959 -10.803   4.706  0.00  0.00     0.060 A 
ATOM     20  C21 <0> d           1.030 -11.517   3.525  0.00  0.00     0.026 A 
ATOM     21 Cl1  <0> d           0.025 -11.412   6.036  0.00  0.00    -0.082 Cl
ATOM     22  C20 <0> d           1.778 -11.034   2.467  0.00  0.00     0.002 A 
ATOM     23  C19 <0> d           2.453  -9.834   2.585  0.00  0.00     0.002 A 
ATOM     24  C18 <0> d           2.382  -9.112   3.760  0.00  0.00     0.031 A 
ENDBRANCH  16  18
ENDBRANCH   6  14
BRANCH   1  25
ATOM     25  S1  <0> d           1.779  -3.128   3.002  0.00  0.00    -0.085 SA
BRANCH  25  26
ATOM     26  C8  <0> d           0.060  -2.836   2.500  0.00  0.00     0.121 C 
BRANCH  26  27
ATOM     27  C6  <0> d           0.039  -2.075   1.199  0.00  0.00    -0.048 A 
ATOM     28  C5  <0> d           0.031  -2.760  -0.002  0.00  0.00     0.008 A 
ATOM     29  C4  <0> d           0.011  -2.061  -1.195  0.00  0.00     0.001 A 
ATOM     30  C3  <0> d          -0.001  -0.679  -1.187  0.00  0.00     0.007 A 
ATOM     31  C2  <0> d           0.007   0.005   0.014  0.00  0.00    -0.061 A 
ATOM     32  C1  <0> d          -0.007   1.512   0.023  0.00  0.00     0.048 C 
ATOM     33  C7  <0> d           0.032  -0.693   1.207  0.00  0.00     0.014 A 
ENDBRANCH  26  27
ENDBRANCH  25  26
ENDBRANCH   1  25
TORSDOF 5
