REMARK  2 active torsions:
REMARK  status: ('A' for Active; 'I' for Inactive)
REMARK       I    between atoms: N1_4  and  C7_9 
REMARK    1  A    between atoms: C7_9  and  C8_11 
REMARK    2  A    between atoms: C14_19  and  N3_21 
ROOT
ATOM      1  C8  <0> d          -0.163  -2.227  -3.334  0.00  0.00     0.060 A 
ATOM      2  C9  <0> d           0.353  -1.354  -4.245  0.00  0.00     0.106 A 
ATOM      3  N2  <0> d          -0.577  -1.077  -5.192  0.00  0.00    -0.364 N 
ATOM      4  H3  <0> d          -0.440  -0.480  -5.945  0.00  0.00     0.165 HD
ATOM      5  C10 <0> d          -1.746  -1.763  -4.935  0.00  0.00     0.045 A 
ATOM      6  C11 <0> d          -1.543  -2.517  -3.767  0.00  0.00     0.008 A 
ATOM      7  C12 <0> d          -2.563  -3.321  -3.267  0.00  0.00     0.017 A 
ATOM      8  C13 <0> d          -3.765  -3.379  -3.915  0.00  0.00     0.030 A 
ATOM      9  C14 <0> d          -3.976  -2.638  -5.076  0.00  0.00     0.027 A 
ATOM     10  C15 <0> d          -2.974  -1.827  -5.583  0.00  0.00     0.059 A 
ENDROOT
BRANCH   1  11
ATOM     11  C7  <0> d           0.523  -2.775  -2.156  0.00  0.00     0.256 C 
ATOM     12  N1  <0> d           1.194  -1.954  -1.324  0.00  0.00    -0.339 N 
ATOM     13  C3  <0> d           1.334  -0.520  -1.625  0.00  0.00     0.158 C 
ATOM     14  C4  <0> d           1.810  -2.465  -0.089  0.00  0.00     0.107 C 
ATOM     15  C2  <0> d           0.914   0.277  -0.384  0.00  0.00     0.135 C 
ATOM     16  C1  <0> d           1.231   1.758  -0.597  0.00  0.00     0.041 C 
ATOM     17  O1  <0> d           1.633  -0.207   0.753  0.00  0.00    -0.383 OA
ATOM     18  C5  <0> d           1.367  -1.573   1.076  0.00  0.00     0.193 C 
ATOM     19  C6  <0> d           3.333  -2.426  -0.219  0.00  0.00     0.034 C 
ATOM     20  O2  <0> d           0.484  -3.970  -1.931  0.00  0.00    -0.267 OA
ENDBRANCH   1  11
BRANCH   9  21
ATOM     21  N3  <0> d          -5.210  -2.707  -5.729  0.00  0.00    -0.399 N 
ATOM     22  H18 <0> d          -5.916  -3.269  -5.374  0.00  0.00     0.156 HD
ATOM     23  H19 <0> d          -5.360  -2.192  -6.537  0.00  0.00     0.156 HD
ENDBRANCH   9  21
TORSDOF 2
