REMARK  4 active torsions:
REMARK  status: ('A' for Active; 'I' for Inactive)
REMARK    1  A    between atoms: C2_2  and  N1_3 
REMARK    2  A    between atoms: N1_3  and  C3_4 
REMARK    3  A    between atoms: C4_5  and  C8_10 
REMARK    4  A    between atoms: C8_10  and  N3_11 
ROOT
ATOM      1  N3  <0> d           3.269  -0.690  -3.023  0.00  0.00    -0.059 N 
ATOM      2  C9  <0> d           2.956  -0.028  -1.749  0.00  0.00     0.241 C 
ATOM      3  C10 <0> d           4.272   0.308  -1.027  0.00  0.00     0.074 C 
ATOM      4  C11 <0> d           5.182   0.949  -2.024  0.00  0.00    -0.008 A 
ATOM      5  C12 <0> d           5.016   0.967  -3.377  0.00  0.00    -0.014 A 
ATOM      6  C13 <0> d           5.992   1.632  -4.114  0.00  0.00     0.017 A 
ATOM      7  C14 <0> d           7.037   2.215  -3.482  0.00  0.00     0.051 A 
ATOM      8  S1  <0> d           6.687   1.845  -1.769  0.00  0.00    -0.106 SA
ATOM      9  C15 <0> d           3.805   0.273  -3.993  0.00  0.00     0.218 C 
ATOM     10  C16 <0> d           4.229  -0.464  -5.266  0.00  0.00     0.045 C 
ATOM     11  H22 <0> d           3.952  -1.414  -2.861  0.00  0.00     0.281 HD
ENDROOT
BRANCH   1  12
ATOM     12  C8  <0> d           2.045  -1.293  -3.567  0.00  0.00     0.278 C 
BRANCH  12  13
ATOM     13  C4  <0> d           1.566  -2.380  -2.640  0.00  0.00     0.013 A 
ATOM     14  C3  <0> d           2.222  -3.606  -2.593  0.00  0.00     0.131 A 
ATOM     15  N2  <0> d           1.800  -4.565  -1.783  0.00  0.00    -0.243 NA
ATOM     16  C7  <0> d           0.759  -4.393  -0.991  0.00  0.00     0.119 A 
ATOM     17  C6  <0> d           0.061  -3.202  -0.986  0.00  0.00     0.020 A 
ATOM     18  C5  <0> d           0.468  -2.173  -1.825  0.00  0.00     0.014 A 
BRANCH  14  19
ATOM     19  N1  <0> d           3.326  -3.828  -3.407  0.00  0.00    -0.375 N 
ATOM     20  H7  <0> d           3.639  -3.128  -4.002  0.00  0.00     0.161 HD
BRANCH  19  21
ATOM     21  C2  <0> d           4.019  -5.119  -3.366  0.00  0.00     0.116 C 
ATOM     22  C1  <0> d           5.190  -5.100  -4.351  0.00  0.00     0.026 C 
ENDBRANCH  19  21
ENDBRANCH  14  19
ENDBRANCH  12  13
ENDBRANCH   1  12
TORSDOF 4
