REMARK  5 active torsions:
REMARK  status: ('A' for Active; 'I' for Inactive)
REMARK    1  A    between atoms: C2_2  and  C5_5 
REMARK    2  A    between atoms: C8_8  and  N1_11 
REMARK       I    between atoms: N1_11  and  C11_12 
REMARK    3  A    between atoms: C11_12  and  C12_14 
REMARK       I    between atoms: C12_14  and  N2_16 
REMARK    4  A    between atoms: N2_16  and  C13_17 
REMARK    5  A    between atoms: C13_17  and  C14_18 
ROOT
ATOM      1  N1  <0> d           2.657  -1.833  -4.664  0.00  0.00    -0.319 N 
ATOM      2  C11 <0> d           3.999  -1.948  -4.674  0.00  0.00     0.313 C 
ATOM      3  O1  <0> d           4.633  -1.748  -3.658  0.00  0.00    -0.262 OA
ATOM      4  H14 <0> d           2.144  -2.067  -5.454  0.00  0.00     0.169 HD
ENDROOT
BRANCH   2   5
ATOM      5  C12 <0> d           4.708  -2.322  -5.934  0.00  0.00     0.309 C 
ATOM      6  O2  <0> d           4.074  -2.523  -6.950  0.00  0.00    -0.262 OA
ATOM      7  N2  <0> d           6.050  -2.438  -5.944  0.00  0.00    -0.349 N 
ATOM      8  H15 <0> d           6.557  -2.278  -5.133  0.00  0.00     0.163 HD
BRANCH   7   9
ATOM      9  C13 <0> d           6.745  -2.805  -7.181  0.00  0.00     0.164 C 
BRANCH   9  10
ATOM     10  C14 <0> d           8.229  -2.865  -6.924  0.00  0.00    -0.004 A 
ATOM     11  C16 <0> d           8.924  -3.956  -6.524  0.00  0.00     0.122 A 
ATOM     12  N4  <0> d          10.220  -3.598  -6.411  0.00  0.00    -0.285 N 
ATOM     13  N3  <0> d          10.324  -2.241  -6.744  0.00  0.00    -0.185 NA
ATOM     14  C17 <0> d          11.323  -4.473  -6.006  0.00  0.00     0.179 C 
ATOM     15  C15 <0> d           9.130  -1.803  -7.051  0.00  0.00     0.149 A 
ENDBRANCH   9  10
ENDBRANCH   7   9
ENDBRANCH   2   5
BRANCH   1  16
ATOM     16  C8  <0> d           2.003  -1.377  -3.517  0.00  0.00     0.035 A 
ATOM     17  C7  <0> d           0.741  -1.861  -3.195  0.00  0.00     0.030 A 
ATOM     18  C6  <0> d           0.098  -1.408  -2.060  0.00  0.00     0.010 A 
ATOM     19  C5  <0> d           0.709  -0.474  -1.244  0.00  0.00    -0.051 A 
ATOM     20  C10 <0> d           1.963   0.015  -1.564  0.00  0.00     0.010 A 
ATOM     21  C9  <0> d           2.613  -0.437  -2.695  0.00  0.00     0.030 A 
BRANCH  19  22
ATOM     22  C2  <0> d           0.004   0.018  -0.006  0.00  0.00    -0.024 C 
ATOM     23  C1  <0> d          -0.201   1.532  -0.103  0.00  0.00     0.019 C 
ATOM     24  C3  <0> d           0.853  -0.303   1.226  0.00  0.00     0.019 C 
ATOM     25  C4  <0> d          -1.355  -0.674   0.117  0.00  0.00     0.019 C 
ENDBRANCH  19  22
ENDBRANCH   1  16
TORSDOF 5
