REMARK  6 active torsions:
REMARK  status: ('A' for Active; 'I' for Inactive)
REMARK    1  A    between atoms: C6_6  and  N1_9 
REMARK    2  A    between atoms: C11_13  and  S1_14 
REMARK    3  A    between atoms: S1_14  and  C12_15 
REMARK    4  A    between atoms: C12_15  and  C14_17 
REMARK       I    between atoms: C14_17  and  N3_19 
REMARK    5  A    between atoms: N3_19  and  C15_20 
REMARK    6  A    between atoms: C16_21  and  C19_25 
REMARK       I    between atoms: C19_25  and  N4_27 
ROOT
ATOM      1  C12 <0> d          -3.381   6.093  -3.212  0.00  0.00     0.143 C 
ATOM      2  C13 <0> d          -3.497   7.370  -2.377  0.00  0.00     0.031 C 
ENDROOT
BRANCH   1   3
ATOM      3  S1  <0> d          -2.150   4.995  -2.467  0.00  0.00    -0.077 SA
BRANCH   3   4
ATOM      4  C11 <0> d          -2.949   4.630  -0.940  0.00  0.00     0.173 A 
ATOM      5  N1  <0> d          -2.459   3.824   0.045  0.00  0.00    -0.299 N 
ATOM      6  C9  <0> d          -3.397   3.808   1.055  0.00  0.00     0.118 A 
ATOM      7  C10 <0> d          -4.409   4.601   0.662  0.00  0.00     0.137 A 
ATOM      8  N2  <0> d          -4.118   5.088  -0.556  0.00  0.00    -0.235 NA
BRANCH   5   9
ATOM      9  C6  <0> d          -1.236   3.137   0.030  0.00  0.00     0.047 A 
ATOM     10  C5  <0> d          -1.219   1.750   0.017  0.00  0.00     0.030 A 
ATOM     11  C4  <0> d          -0.013   1.076   0.008  0.00  0.00     0.003 A 
ATOM     12  C3  <0> d           1.176   1.783   0.000  0.00  0.00     0.007 A 
ATOM     13  C2  <0> d           1.161   3.166   0.008  0.00  0.00    -0.054 A 
ATOM     14  C1  <0> d           2.458   3.932  -0.000  0.00  0.00     0.049 C 
ATOM     15  C7  <0> d          -0.042   3.845   0.023  0.00  0.00    -0.029 A 
ATOM     16  C8  <0> d          -0.057   5.351   0.031  0.00  0.00     0.051 C 
ENDBRANCH   5   9
ENDBRANCH   3   4
ENDBRANCH   1   3
BRANCH   1  17
ATOM     17  C14 <0> d          -2.956   6.446  -4.614  0.00  0.00     0.236 C 
ATOM     18  O1  <0> d          -1.796   6.321  -4.946  0.00  0.00    -0.272 OA
ATOM     19  N3  <0> d          -3.865   6.902  -5.499  0.00  0.00    -0.320 N 
ATOM     20  H16 <0> d          -4.792   7.002  -5.234  0.00  0.00     0.169 HD
BRANCH  19  21
ATOM     21  C15 <0> d          -3.474   7.227  -6.789  0.00  0.00     0.092 A 
ATOM     22  S2  <0> d          -1.893   7.133  -7.490  0.00  0.00    -0.083 SA
ATOM     23  C18 <0> d          -2.261   7.717  -9.132  0.00  0.00     0.053 A 
ATOM     24  C17 <0> d          -3.582   7.964  -9.084  0.00  0.00     0.027 A 
ATOM     25  C16 <0> d          -4.257   7.702  -7.835  0.00  0.00     0.066 A 
BRANCH  25  26
ATOM     26  C19 <0> d          -5.696   7.929  -7.676  0.00  0.00     0.252 C 
ATOM     27  O2  <0> d          -6.234   7.701  -6.608  0.00  0.00    -0.268 OA
ATOM     28  N4  <0> d          -6.424   8.390  -8.712  0.00  0.00    -0.366 N 
ATOM     29  H19 <0> d          -5.996   8.572  -9.563  0.00  0.00     0.159 HD
ATOM     30  H20 <0> d          -7.377   8.541  -8.607  0.00  0.00     0.159 HD
ENDBRANCH  25  26
ENDBRANCH  19  21
ENDBRANCH   1  17
TORSDOF 6
