REMARK  3 active torsions:
REMARK  status: ('A' for Active; 'I' for Inactive)
REMARK    1  A    between atoms: C2_2  and  C15_18 
REMARK    2  A    between atoms: C8_8  and  O3_16 
REMARK    3  A    between atoms: C15_18  and  O4_19 
ROOT
ATOM      1  C1  <0> d          -0.006   1.096   0.008  0.00  0.00     0.018 C 
ATOM      2  C2  <0> d          -0.737   1.585   1.281  0.00  0.00    -0.016 C 
ATOM      3  C3  <0> d          -0.666   3.111   1.267  0.00  0.00     0.012 C 
ATOM      4  C4  <0> d          -1.574   3.709   2.338  0.00  0.00     0.002 C 
ATOM      5  C5  <0> d          -3.015   3.305   2.028  0.00  0.00     0.010 C 
ATOM      6  C6  <0> d          -3.156   1.787   2.134  0.00  0.00    -0.027 C 
ATOM      7  C7  <0> d          -2.161   1.063   1.237  0.00  0.00     0.037 C 
ATOM      8  C8  <0> d          -2.208  -0.449   1.374  0.00  0.00     0.147 C 
ATOM      9  C9  <0> d          -2.870  -0.959   2.618  0.00  0.00     0.018 C 
ATOM     10  C10 <0> d          -3.223  -0.156   3.602  0.00  0.00     0.023 C 
ATOM     11  C11 <0> d          -2.966   1.347   3.578  0.00  0.00     0.057 C 
ATOM     12  C12 <0> d          -4.023   1.873   4.555  0.00  0.00     0.189 C 
ATOM     13  O1  <0> d          -4.290   0.741   5.443  0.00  0.00    -0.317 OA
ATOM     14  C13 <0> d          -3.917  -0.415   4.859  0.00  0.00     0.289 C 
ATOM     15  O2  <0> d          -4.131  -1.520   5.319  0.00  0.00    -0.260 OA
ATOM     16  C14 <0> d          -4.578   1.419   1.663  0.00  0.00     0.016 C 
ENDROOT
BRANCH   2  17
ATOM     17  C15 <0> d           0.041   1.052   2.486  0.00  0.00     0.173 C 
BRANCH  17  18
ATOM     18  O4  <0> d           1.409   1.451   2.384  0.00  0.00    -0.400 OA
ATOM     19  H22 <0> d           1.963   1.147   3.116  0.00  0.00     0.209 HD
ENDBRANCH  17  18
ENDBRANCH   2  17
BRANCH   8  20
ATOM     20  O3  <0> d          -2.931  -0.971   0.248  0.00  0.00    -0.391 OA
ATOM     21  H16 <0> d          -2.949  -1.937   0.206  0.00  0.00     0.210 HD
ENDBRANCH   8  20
TORSDOF 3
