REMARK  9 active torsions:
REMARK  status: ('A' for Active; 'I' for Inactive)
REMARK    1  A    between atoms: C2_2  and  C4_4 
REMARK    2  A    between atoms: C4_4  and  N1_5 
REMARK    3  A    between atoms: N1_5  and  C5_6 
REMARK    4  A    between atoms: N3_12  and  C16_23 
REMARK    5  A    between atoms: C10_13  and  C14_19 
REMARK    6  A    between atoms: C11_14  and  N4_15 
REMARK       I    between atoms: N4_15  and  C12_16 
REMARK    7  A    between atoms: C14_19  and  O3_21 
REMARK    8  A    between atoms: C16_23  and  C17_24 
REMARK    9  A    between atoms: C17_24  and  C18_25 
ROOT
ATOM      1  C5  <0> d          -2.620  -2.708  -0.130  0.00  0.00     0.044 A 
ATOM      2  C6  <0> d          -2.619  -4.098  -0.246  0.00  0.00     0.043 A 
ATOM      3  C7  <0> d          -3.832  -4.759  -0.256  0.00  0.00     0.013 A 
ATOM      4  C8  <0> d          -5.016  -4.041  -0.152  0.00  0.00     0.112 A 
ATOM      5  N2  <0> d          -4.971  -2.714  -0.043  0.00  0.00    -0.350 N 
ATOM      6  C9  <0> d          -3.835  -2.049  -0.024  0.00  0.00     0.119 A 
ATOM      7  N3  <0> d          -6.127  -4.882  -0.180  0.00  0.00    -0.350 N 
ATOM      8  C10 <0> d          -5.702  -6.278  -0.313  0.00  0.00     0.213 A 
ATOM      9  C11 <0> d          -4.166  -6.228  -0.366  0.00  0.00     0.154 A 
ATOM     10  H33 <0> d          -5.804  -2.221   0.029  0.00  0.00     0.166 HD
ENDROOT
BRANCH   7  11
ATOM     11  C16 <0> d          -7.519  -4.434  -0.090  0.00  0.00     0.130 C 
BRANCH  11  12
ATOM     12  C17 <0> d          -8.057  -4.159  -1.496  0.00  0.00     0.056 C 
BRANCH  12  13
ATOM     13  C18 <0> d          -9.489  -3.698  -1.403  0.00  0.00    -0.048 A 
ATOM     14  C25 <0> d         -10.722  -4.571  -1.324  0.00  0.00     0.155 A 
ATOM     15  N5  <0> d         -11.862  -3.651  -1.247  0.00  0.00    -0.385 N 
ATOM     16  C24 <0> d         -11.410  -2.421  -1.282  0.00  0.00     0.038 A 
ATOM     17  H32 <0> d         -12.795  -3.910  -1.184  0.00  0.00     0.160 HD
ATOM     18  C19 <0> d          -9.933  -2.421  -1.380  0.00  0.00    -0.006 A 
ATOM     19  C23 <0> d         -12.077  -1.166  -1.243  0.00  0.00     0.030 A 
ATOM     20  C20 <0> d          -9.242  -1.127  -1.430  0.00  0.00     0.014 A 
ATOM     21  C21 <0> d          -9.973   0.010  -1.387  0.00  0.00     0.001 A 
ATOM     22  C22 <0> d         -11.371  -0.017  -1.294  0.00  0.00     0.002 A 
ENDBRANCH  12  13
ENDBRANCH  11  12
ENDBRANCH   7  11
BRANCH   8  23
ATOM     23  C14 <0> d          -6.160  -7.079   0.879  0.00  0.00     0.283 C 
ATOM     24  O2  <0> d          -6.478  -6.516   1.899  0.00  0.00    -0.263 OA
BRANCH  23  25
ATOM     25  O3  <0> d          -6.215  -8.418   0.806  0.00  0.00    -0.325 OA
ATOM     26  C15 <0> d          -6.659  -9.113   1.973  0.00  0.00     0.213 C 
ENDBRANCH  23  25
ENDBRANCH   8  23
BRANCH   9  27
ATOM     27  N4  <0> d          -3.591  -6.969   0.760  0.00  0.00    -0.350 N 
ATOM     28  C12 <0> d          -2.324  -7.424   0.690  0.00  0.00     0.214 C 
ATOM     29  O1  <0> d          -1.660  -7.220  -0.304  0.00  0.00    -0.274 OA
ATOM     30  C13 <0> d          -1.732  -8.186   1.848  0.00  0.00     0.117 C 
ATOM     31  H15 <0> d          -4.122  -7.133   1.555  0.00  0.00     0.163 HD
ENDBRANCH   9  27
BRANCH   1  32
ATOM     32  N1  <0> d          -1.416  -1.993  -0.116  0.00  0.00    -0.388 N 
ATOM     33  H12 <0> d          -0.572  -2.463  -0.190  0.00  0.00     0.159 HD
BRANCH  32  34
ATOM     34  C4  <0> d          -1.433  -0.534   0.013  0.00  0.00     0.123 C 
BRANCH  34  35
ATOM     35  C2  <0> d           0.002  -0.004   0.002  0.00  0.00    -0.005 C 
ATOM     36  C1  <0> d          -0.019   1.526   0.010  0.00  0.00     0.011 C 
ATOM     37  C3  <0> d           0.742  -0.511   1.242  0.00  0.00     0.011 C 
ENDBRANCH  34  35
ENDBRANCH  32  34
ENDBRANCH   1  32
TORSDOF 9
