REMARK  4 active torsions:
REMARK  status: ('A' for Active; 'I' for Inactive)
REMARK    1  A    between atoms: C2_2  and  C3_3 
REMARK    2  A    between atoms: C9_9  and  N2_20 
REMARK    3  A    between atoms: N1_12  and  C11_13 
REMARK    4  A    between atoms: C11_13  and  C12_14 
ROOT
ATOM      1  C3  <0> d          -1.412  -0.526   0.013  0.00  0.00    -0.058 A 
ATOM      2  C4  <0> d          -2.053  -0.767   1.214  0.00  0.00     0.009 A 
ATOM      3  C5  <0> d          -3.347  -1.244   1.231  0.00  0.00     0.031 A 
ATOM      4  C6  <0> d          -4.018  -1.487   0.034  0.00  0.00     0.046 A 
ATOM      5  C7  <0> d          -3.364  -1.240  -1.166  0.00  0.00     0.011 A 
ATOM      6  C8  <0> d          -2.074  -0.759  -1.180  0.00  0.00     0.019 A 
ATOM      7  C9  <0> d          -4.340  -1.596  -2.263  0.00  0.00     0.344 A 
ATOM      8  C10 <0> d          -5.577  -2.055  -1.521  0.00  0.00     0.262 A 
ATOM      9  O1  <0> d          -6.616  -2.436  -2.018  0.00  0.00    -0.270 OA
ATOM     10  N1  <0> d          -5.308  -1.962  -0.208  0.00  0.00    -0.310 N 
ENDROOT
BRANCH  10  11
ATOM     11  C11 <0> d          -6.259  -2.317   0.848  0.00  0.00     0.178 C 
BRANCH  11  12
ATOM     12  C12 <0> d          -7.077  -1.106   1.216  0.00  0.00     0.002 A 
ATOM     13  S1  <0> d          -6.748   0.140   2.452  0.00  0.00    -0.086 SA
ATOM     14  C15 <0> d          -8.199   1.146   2.188  0.00  0.00     0.051 A 
ATOM     15  C14 <0> d          -8.832   0.471   1.196  0.00  0.00     0.028 A 
ATOM     16 Br1  <0> d          -8.722   2.736   3.068  0.00  0.00    -0.043 Br
ATOM     17  C13 <0> d          -8.256  -0.683   0.698  0.00  0.00     0.018 A 
ENDBRANCH  11  12
ENDBRANCH  10  11
BRANCH   7  18
ATOM     18  N2  <0> d          -4.639  -0.418  -3.088  0.00  0.00     0.096 N 
ATOM     19  H14 <0> d          -5.291  -0.647  -3.824  0.00  0.00     0.314 HD
ATOM     20  H15 <0> d          -4.986   0.342  -2.521  0.00  0.00     0.314 HD
ENDBRANCH   7  18
BRANCH   1  21
ATOM     21  C2  <0> d           0.002  -0.004   0.002  0.00  0.00     0.034 C 
ATOM     22  C1  <0> d          -0.019   1.526   0.010  0.00  0.00     0.010 C 
ENDBRANCH   1  21
TORSDOF 4
