REMARK  9 active torsions:
REMARK  status: ('A' for Active; 'I' for Inactive)
REMARK    1  A    between atoms: C2_2  and  C3_3 
REMARK    2  A    between atoms: C3_3  and  N1_4 
REMARK    3  A    between atoms: N1_4  and  C4_5 
REMARK    4  A    between atoms: N1_4  and  C17_24 
REMARK    5  A    between atoms: C4_5  and  C5_6 
REMARK    6  A    between atoms: C8_9  and  C10_14 
REMARK       I    between atoms: C10_14  and  N3_16 
REMARK    7  A    between atoms: N3_16  and  C11_17 
REMARK    8  A    between atoms: C14_20  and  O3_23 
REMARK    9  A    between atoms: C17_24  and  C18_25 
ROOT
ATOM      1  C5  <0> d           6.098   3.006   0.243  0.00  0.00     0.038 A 
ATOM      2  C6  <0> d           5.637   2.105   1.148  0.00  0.00     0.028 A 
ATOM      3  C7  <0> d           4.273   1.824   1.223  0.00  0.00     0.025 A 
ATOM      4  C8  <0> d           3.400   2.481   0.358  0.00  0.00     0.100 A 
ATOM      5  C9  <0> d           3.931   3.409  -0.575  0.00  0.00     0.261 A 
ATOM      6  O1  <0> d           3.189   3.993  -1.346  0.00  0.00    -0.267 OA
ATOM      7  N2  <0> d           5.256   3.648  -0.601  0.00  0.00    -0.325 N 
ATOM      8  H1  <0> d           5.651   4.378  -1.323  0.00  0.00     0.169 HD
ENDROOT
BRANCH   4   9
ATOM      9  C10 <0> d           1.955   2.211   0.406  0.00  0.00     0.257 C 
ATOM     10  O2  <0> d           1.500   1.489   1.272  0.00  0.00    -0.267 OA
ATOM     11  N3  <0> d           1.136   2.765  -0.510  0.00  0.00    -0.352 N 
ATOM     12  H13 <0> d           1.535   3.478  -1.246  0.00  0.00     0.163 HD
BRANCH  11  13
ATOM     13  C11 <0> d          -0.287   2.416  -0.525  0.00  0.00     0.084 C 
ATOM     14  C16 <0> d          -0.850   2.635  -1.931  0.00  0.00     0.028 C 
ATOM     15  C15 <0> d          -2.336   2.271  -1.947  0.00  0.00     0.034 C 
ATOM     16  C14 <0> d          -3.089   3.157  -0.953  0.00  0.00     0.118 C 
ATOM     17  C13 <0> d          -2.526   2.939   0.453  0.00  0.00     0.034 C 
ATOM     18  C12 <0> d          -1.040   3.303   0.469  0.00  0.00     0.028 C 
BRANCH  16  19
ATOM     19  O3  <0> d          -2.931   4.528  -1.322  0.00  0.00    -0.396 OA
ATOM     20  H24 <0> d          -3.279   4.877  -2.305  0.00  0.00     0.210 HD
ENDBRANCH  16  19
ENDBRANCH  11  13
ENDBRANCH   4   9
BRANCH   1  21
ATOM     21  C4  <0> d           7.576   3.297   0.177  0.00  0.00     0.291 C 
BRANCH  21  22
ATOM     22  N1  <0> d           8.104   2.855  -1.121  0.00  0.00    -0.066 N 
ATOM     23  H32 <0> d           7.476   3.296  -1.909  0.00  0.00     0.280 HD
BRANCH  22  24
ATOM     24  C3  <0> d           8.030   1.393  -1.248  0.00  0.00     0.235 C 
BRANCH  24  25
ATOM     25  C2  <0> d           8.887   0.742  -0.162  0.00  0.00     0.023 C 
ATOM     26  C1  <0> d           8.874  -0.777  -0.344  0.00  0.00     0.007 C 
ENDBRANCH  24  25
ENDBRANCH  22  24
BRANCH  22  27
ATOM     27  C17 <0> d           9.479   3.332  -1.319  0.00  0.00     0.239 C 
BRANCH  27  28
ATOM     28  C18 <0> d           9.869   3.165  -2.789  0.00  0.00     0.011 A 
ATOM     29  C20 <0> d          11.234   3.704  -3.223  0.00  0.00     0.007 A 
ATOM     30  C19 <0> d          11.007   2.195  -3.113  0.00  0.00     0.007 A 
ENDBRANCH  27  28
ENDBRANCH  22  27
ENDBRANCH  21  22
ENDBRANCH   1  21
TORSDOF 9
