REMARK  7 active torsions:
REMARK  status: ('A' for Active; 'I' for Inactive)
REMARK    1  A    between atoms: C2_2  and  O1_3 
REMARK    2  A    between atoms: O1_3  and  C3_4 
REMARK    3  A    between atoms: C3_4  and  C4_6 
REMARK    4  A    between atoms: C5_7  and  C9_18 
REMARK    5  A    between atoms: C7_12  and  C8_13 
REMARK    6  A    between atoms: C7_12  and  O3_17 
REMARK    7  A    between atoms: C12_21  and  O4_24 
ROOT
ATOM      1  C4  <0> d          -0.985   1.868  -3.788  0.00  0.00     0.177 C 
ATOM      2  C5  <0> d          -0.169   1.421  -5.006  0.00  0.00     0.136 C 
ATOM      3  N1  <0> d          -0.996   1.539  -6.208  0.00  0.00    -0.358 N 
ATOM      4  C6  <0> d          -2.330   1.410  -6.152  0.00  0.00     0.170 C 
ATOM      5  S1  <0> d          -3.230   1.546  -7.603  0.00  0.00    -0.041 SA
ATOM      6  N2  <0> d          -2.987   1.179  -5.006  0.00  0.00    -0.328 N 
ATOM      7  C7  <0> d          -2.276   1.044  -3.733  0.00  0.00     0.249 C 
ATOM      8  H8  <0> d          -0.571   1.713  -7.062  0.00  0.00     0.162 HD
ATOM      9  H9  <0> d          -3.954   1.102  -5.019  0.00  0.00     0.165 HD
ENDROOT
BRANCH   2  10
ATOM     10  C9  <0> d           1.049   2.297  -5.145  0.00  0.00    -0.034 A 
ATOM     11  C14 <0> d           2.277   1.849  -4.694  0.00  0.00     0.012 A 
ATOM     12  C13 <0> d           3.395   2.650  -4.820  0.00  0.00     0.037 A 
ATOM     13  C12 <0> d           3.285   3.906  -5.400  0.00  0.00     0.065 A 
ATOM     14  C11 <0> d           2.052   4.354  -5.851  0.00  0.00     0.037 A 
ATOM     15  C10 <0> d           0.938   3.546  -5.728  0.00  0.00     0.012 A 
BRANCH  13  16
ATOM     16  O4  <0> d           4.384   4.696  -5.525  0.00  0.00    -0.361 OA
ATOM     17  H15 <0> d           4.865   4.573  -6.355  0.00  0.00     0.217 HD
ENDBRANCH  13  16
ENDBRANCH   2  10
BRANCH   1  18
ATOM     18  C3  <0> d          -0.185   1.641  -2.532  0.00  0.00     0.270 C 
ATOM     19  O2  <0> d           0.426   0.609  -2.383  0.00  0.00    -0.265 OA
BRANCH  18  20
ATOM     20  O1  <0> d          -0.152   2.584  -1.577  0.00  0.00    -0.321 OA
BRANCH  20  21
ATOM     21  C2  <0> d           0.639   2.297  -0.394  0.00  0.00     0.174 C 
ATOM     22  C1  <0> d           0.557   3.480   0.573  0.00  0.00     0.034 C 
ENDBRANCH  20  21
ENDBRANCH  18  20
ENDBRANCH   1  18
BRANCH   7  23
ATOM     23  C8  <0> d          -3.160   1.555  -2.593  0.00  0.00     0.438 C 
ATOM     24  F1  <0> d          -3.371   2.930  -2.747  0.00  0.00    -0.166 F 
ATOM     25  F2  <0> d          -4.389   0.888  -2.621  0.00  0.00    -0.166 F 
ATOM     26  F3  <0> d          -2.527   1.315  -1.369  0.00  0.00    -0.166 F 
ENDBRANCH   7  23
BRANCH   7  27
ATOM     27  O3  <0> d          -1.956  -0.331  -3.511  0.00  0.00    -0.363 OA
ATOM     28  H10 <0> d          -2.728  -0.911  -3.465  0.00  0.00     0.213 HD
ENDBRANCH   7  27
TORSDOF 7
