REMARK  3 active torsions:
REMARK  status: ('A' for Active; 'I' for Inactive)
REMARK    1  A    between atoms: C10_12  and  N2_13 
REMARK    2  A    between atoms: C13_16  and  C16_19 
REMARK    3  A    between atoms: C16_19  and  N3_20 
ROOT
ATOM      1  C1  <0> d           1.139  -5.239   5.866  0.00  0.00     0.049 C 
ATOM      2  C2  <0> d           0.783  -4.936   4.433  0.00  0.00    -0.054 A 
ATOM      3  C3  <0> d          -0.375  -4.237   4.145  0.00  0.00     0.008 A 
ATOM      4  C4  <0> d          -0.701  -3.958   2.830  0.00  0.00     0.012 A 
ATOM      5  C5  <0> d           0.128  -4.376   1.813  0.00  0.00     0.009 A 
ATOM      6  C6  <0> d           1.294  -5.079   2.089  0.00  0.00     0.050 A 
ATOM      7  C7  <0> d           1.618  -5.351   3.417  0.00  0.00    -0.029 A 
ATOM      8  C8  <0> d           2.881  -6.106   3.742  0.00  0.00     0.051 C 
ATOM      9  N1  <0> d           1.961  -5.391   0.904  0.00  0.00    -0.324 N 
ATOM     10  C9  <0> d           1.311  -4.937  -0.180  0.00  0.00     0.258 A 
ATOM     11  O1  <0> d           1.659  -5.065  -1.335  0.00  0.00    -0.270 OA
ATOM     12  C10 <0> d           0.061  -4.237   0.310  0.00  0.00     0.314 A 
ATOM     13  H10 <0> d           2.798  -5.879   0.868  0.00  0.00     0.169 HD
ENDROOT
BRANCH  12  14
ATOM     14  N2  <0> d          -1.140  -4.900  -0.216  0.00  0.00    -0.054 N 
ATOM     15  C15 <0> d          -1.252  -4.636  -1.656  0.00  0.00     0.236 C 
ATOM     16  C14 <0> d          -2.544  -5.256  -2.193  0.00  0.00     0.034 C 
ATOM     17  C13 <0> d          -2.518  -6.768  -1.949  0.00  0.00     0.014 C 
ATOM     18  C12 <0> d          -2.326  -7.031  -0.453  0.00  0.00     0.034 C 
ATOM     19  C11 <0> d          -1.042  -6.345   0.020  0.00  0.00     0.236 C 
ATOM     20  H25 <0> d          -1.956  -4.538   0.255  0.00  0.00     0.281 HD
BRANCH  17  21
ATOM     21  C16 <0> d          -3.840  -7.383  -2.412  0.00  0.00     0.234 C 
BRANCH  21  22
ATOM     22  N3  <0> d          -3.966  -7.235  -3.868  0.00  0.00    -0.079 N 
ATOM     23  H22 <0> d          -3.949  -6.256  -4.109  0.00  0.00     0.274 HD
ATOM     24  H23 <0> d          -3.199  -7.707  -4.321  0.00  0.00     0.274 HD
ATOM     25  H24 <0> d          -4.838  -7.641  -4.172  0.00  0.00     0.274 HD
ENDBRANCH  21  22
ENDBRANCH  17  21
ENDBRANCH  12  14
TORSDOF 3
