REMARK  6 active torsions:
REMARK  status: ('A' for Active; 'I' for Inactive)
REMARK       I    between atoms: N1_2  and  C3_4 
REMARK    1  A    between atoms: C3_4  and  C4_6 
REMARK    2  A    between atoms: C4_6  and  N2_7 
REMARK       I    between atoms: N2_7  and  C5_8 
REMARK       I    between atoms: C5_8  and  N3_10 
REMARK    3  A    between atoms: N3_10  and  C6_11 
REMARK    4  A    between atoms: C6_11  and  C7_12 
REMARK    5  A    between atoms: C7_12  and  C8_13 
REMARK    6  A    between atoms: C8_13  and  C9_14 
ROOT
ATOM      1  N2  <0> d           0.014  -2.659  -2.561  0.00  0.00    -0.334 N 
ATOM      2  C5  <0> d           0.030  -3.983  -2.814  0.00  0.00     0.316 C 
ATOM      3  O2  <0> d           0.049  -4.778  -1.895  0.00  0.00    -0.247 OA
ATOM      4  N3  <0> d           0.024  -4.425  -4.088  0.00  0.00    -0.343 N 
ATOM      5  H9  <0> d          -0.002  -2.025  -3.295  0.00  0.00     0.164 HD
ATOM      6  H10 <0> d           0.008  -3.791  -4.821  0.00  0.00     0.164 HD
ENDROOT
BRANCH   4   7
ATOM      7  C6  <0> d           0.041  -5.864  -4.363  0.00  0.00     0.125 C 
BRANCH   7   8
ATOM      8  C7  <0> d           0.029  -6.094  -5.876  0.00  0.00     0.026 C 
BRANCH   8   9
ATOM      9  C8  <0> d           0.047  -7.596  -6.164  0.00  0.00     0.069 C 
BRANCH   9  10
ATOM     10  C9  <0> d           0.036  -7.822  -7.654  0.00  0.00     0.075 A 
ATOM     11  S1  <0> d          -1.292  -7.998  -8.677  0.00  0.00    -0.077 SA
ATOM     12  C11 <0> d          -0.391  -8.210 -10.186  0.00  0.00     0.009 A 
ATOM     13  C10 <0> d           0.901  -8.136  -9.770  0.00  0.00     0.048 A 
ATOM     14  C12 <0> d          -0.891  -8.422 -11.575  0.00  0.00     0.048 C 
ATOM     15  N4  <0> d           1.056  -7.936  -8.466  0.00  0.00    -0.249 NA
ATOM     16  C15 <0> d           2.044  -8.279 -10.765  0.00  0.00     0.060 C 
ATOM     17  C14 <0> d           1.506  -8.940 -12.037  0.00  0.00     0.006 C 
ATOM     18  C13 <0> d           0.277  -8.183 -12.546  0.00  0.00     0.006 C 
ENDBRANCH   9  10
ENDBRANCH   8   9
ENDBRANCH   7   8
ENDBRANCH   4   7
BRANCH   1  19
ATOM     19  C4  <0> d           0.021  -2.178  -1.177  0.00  0.00     0.227 C 
BRANCH  19  20
ATOM     20  C3  <0> d           0.000  -0.672  -1.169  0.00  0.00     0.236 C 
ATOM     21  N1  <0> d           0.002  -0.004   0.002  0.00  0.00    -0.359 N 
ATOM     22  C1  <0> d          -0.018   1.461   0.010  0.00  0.00     0.152 C 
ATOM     23  C2  <0> d           0.024  -0.743   1.267  0.00  0.00     0.152 C 
ATOM     24  O1  <0> d          -0.018  -0.060  -2.216  0.00  0.00    -0.272 OA
ENDBRANCH  19  20
ENDBRANCH   1  19
TORSDOF 6
