REMARK  2 active torsions:
REMARK  status: ('A' for Active; 'I' for Inactive)
REMARK    1  A    between atoms: C4_4  and  C7_7 
REMARK    2  A    between atoms: C11_11  and  C19_22 
ROOT
ATOM      1  C7  <0> d           1.151   3.592   0.010  0.00  0.00     0.031 C 
ATOM      2  C8  <0> d           1.887   4.112   1.246  0.00  0.00     0.068 C 
ATOM      3  C9  <0> d           1.903   5.622   1.232  0.00  0.00     0.039 C 
ATOM      4  C10 <0> d           1.917   6.304   0.067  0.00  0.00     0.039 C 
ATOM      5  C11 <0> d           1.931   7.815   0.018  0.00  0.00     0.181 C 
ATOM      6  N1  <0> d           2.275   8.359   1.329  0.00  0.00    -0.165 N 
ATOM      7  C12 <0> d           2.656   9.621   1.683  0.00  0.00     0.082 A 
ATOM      8  C13 <0> d           2.852  10.788   0.954  0.00  0.00     0.032 A 
ATOM      9  C14 <0> d           3.250  11.913   1.658  0.00  0.00     0.002 A 
ATOM     10  C15 <0> d           3.448  11.889   3.028  0.00  0.00     0.002 A 
ATOM     11  C16 <0> d           3.260  10.741   3.776  0.00  0.00     0.034 A 
ATOM     12  C17 <0> d           2.858   9.592   3.086  0.00  0.00     0.103 A 
ATOM     13  N2  <0> d           2.595   8.337   3.503  0.00  0.00    -0.062 NA
ATOM     14  C18 <0> d           2.255   7.603   2.479  0.00  0.00     0.709 A 
ATOM     15  N3  <0> d           1.911   6.263   2.448  0.00  0.00    -0.193 N 
ATOM     16  C24 <0> d           1.914   5.626  -1.166  0.00  0.00     0.160 C 
ATOM     17  O1  <0> d           1.952   6.268  -2.197  0.00  0.00    -0.293 OA
ATOM     18  C25 <0> d           1.865   4.125  -1.237  0.00  0.00     0.093 C 
ATOM     19  H14 <0> d           1.681   5.788   3.262  0.00  0.00     0.184 HD
ENDROOT
BRANCH   1  20
ATOM     20  C4  <0> d           1.171   2.086   0.002  0.00  0.00    -0.053 A 
ATOM     21  C3  <0> d          -0.017   1.378   0.010  0.00  0.00     0.007 A 
ATOM     22  C2  <0> d           0.002  -0.004   0.002  0.00  0.00     0.001 A 
ATOM     23  C1  <0> d           1.208  -0.679  -0.014  0.00  0.00     0.000 A 
ATOM     24  C6  <0> d           2.396   0.029  -0.021  0.00  0.00     0.001 A 
ATOM     25  C5  <0> d           2.377   1.411  -0.014  0.00  0.00     0.007 A 
ENDBRANCH   1  20
BRANCH   5  26
ATOM     26  C19 <0> d           0.568   8.314  -0.387  0.00  0.00    -0.012 A 
ATOM     27  C23 <0> d          -0.541   8.027   0.386  0.00  0.00     0.125 A 
ATOM     28  N4  <0> d          -1.736   8.465   0.041  0.00  0.00    -0.272 NA
ATOM     29  C22 <0> d          -1.924   9.179  -1.052  0.00  0.00     0.116 A 
ATOM     30  C21 <0> d          -0.863   9.501  -1.878  0.00  0.00     0.020 A 
ATOM     31  C20 <0> d           0.409   9.062  -1.544  0.00  0.00     0.012 A 
ENDBRANCH   5  26
TORSDOF 2
