REMARK  6 active torsions:
REMARK  status: ('A' for Active; 'I' for Inactive)
REMARK    1  A    between atoms: C2_2  and  C3_3 
REMARK    2  A    between atoms: C7_7  and  C25_32 
REMARK    3  A    between atoms: C8_8  and  N1_9 
REMARK    4  A    between atoms: C11_13  and  C17_23 
REMARK    5  A    between atoms: C12_15  and  C16_20 
REMARK    6  A    between atoms: C20_26  and  O5_30 
ROOT
ATOM      1  N1  <0> d          -1.312  -0.338   2.505  0.00  0.00    -0.251 N 
ATOM      2  C9  <0> d          -1.788   0.909   2.825  0.00  0.00     0.238 C 
ATOM      3  O1  <0> d          -1.167   1.950   2.866  0.00  0.00    -0.272 OA
ATOM      4  C10 <0> d          -3.189   0.709   3.101  0.00  0.00     0.130 C 
ATOM      5  C11 <0> d          -4.454   1.461   3.166  0.00  0.00     0.234 C 
ATOM      6  N2  <0> d          -5.469   0.359   3.287  0.00  0.00    -0.046 N 
ATOM      7  C12 <0> d          -4.861  -0.886   2.732  0.00  0.00     0.222 C 
ATOM      8  C13 <0> d          -3.558  -0.424   2.062  0.00  0.00     0.141 C 
ATOM      9  C14 <0> d          -2.311  -1.239   2.267  0.00  0.00     0.239 C 
ATOM     10  O2  <0> d          -2.213  -2.447   2.231  0.00  0.00    -0.272 OA
ATOM     11  C15 <0> d          -4.582  -1.886   3.856  0.00  0.00     0.059 C 
ATOM     12  H12 <0> d          -5.708   0.220   4.258  0.00  0.00     0.279 HD
ATOM     13  H30 <0> d          -6.297   0.598   2.762  0.00  0.00     0.279 HD
ENDROOT
BRANCH   1  14
ATOM     14  C8  <0> d           0.052  -0.652   2.425  0.00  0.00     0.058 A 
ATOM     15  C3  <0> d           0.731  -0.503   1.223  0.00  0.00    -0.030 A 
ATOM     16  C4  <0> d           2.076  -0.808   1.149  0.00  0.00     0.009 A 
ATOM     17  C5  <0> d           2.746  -1.266   2.268  0.00  0.00     0.001 A 
ATOM     18  C6  <0> d           2.071  -1.420   3.466  0.00  0.00     0.009 A 
ATOM     19  C7  <0> d           0.726  -1.117   3.546  0.00  0.00    -0.030 A 
BRANCH  15  20
ATOM     20  C2  <0> d           0.002  -0.004   0.002  0.00  0.00     0.036 C 
ATOM     21  C1  <0> d          -0.019   1.526   0.010  0.00  0.00     0.010 C 
ENDBRANCH  15  20
BRANCH  19  22
ATOM     22  C25 <0> d          -0.008  -1.285   4.851  0.00  0.00     0.036 C 
ATOM     23  C26 <0> d          -0.689  -2.655   4.881  0.00  0.00     0.010 C 
ENDBRANCH  19  22
ENDBRANCH   1  14
BRANCH   7  24
ATOM     24  C16 <0> d          -5.774  -1.499   1.702  0.00  0.00     0.211 C 
ATOM     25  O3  <0> d          -6.850  -0.981   1.456  0.00  0.00    -0.646 OA
ATOM     26  O4  <0> d          -5.436  -2.513   1.114  0.00  0.00    -0.646 OA
ENDBRANCH   7  24
BRANCH   5  27
ATOM     27  C17 <0> d          -4.484   2.358   4.377  0.00  0.00    -0.026 A 
ATOM     28  C22 <0> d          -4.203   3.705   4.246  0.00  0.00     0.019 A 
ATOM     29  C21 <0> d          -4.236   4.530   5.354  0.00  0.00    -0.028 A 
ATOM     30  C20 <0> d          -4.541   4.003   6.600  0.00  0.00     0.077 A 
ATOM     31  C23 <0> d          -3.936   5.999   5.209  0.00  0.00     0.051 C 
ATOM     32  C19 <0> d          -4.817   2.650   6.730  0.00  0.00    -0.028 A 
ATOM     33  C18 <0> d          -4.788   1.830   5.619  0.00  0.00     0.019 A 
ATOM     34  C24 <0> d          -5.149   2.074   8.083  0.00  0.00     0.051 C 
BRANCH  30  35
ATOM     35  O5  <0> d          -4.569   4.811   7.692  0.00  0.00    -0.360 OA
ATOM     36  H21 <0> d          -3.721   4.884   8.150  0.00  0.00     0.217 HD
ENDBRANCH  30  35
ENDBRANCH   5  27
TORSDOF 6
