REMARK  3 active torsions:
REMARK  status: ('A' for Active; 'I' for Inactive)
REMARK    1  A    between atoms: C5_6  and  C6_7 
REMARK       I    between atoms: C6_7  and  N2_9 
REMARK    2  A    between atoms: N2_9  and  C7_10 
REMARK    3  A    between atoms: C13_16  and  N3_17 
ROOT
ATOM      1  C7  <0> d          -0.399   1.389   4.176  0.00  0.00     0.115 C 
ATOM      2  C8  <0> d          -1.799   1.148   4.773  0.00  0.00     0.027 C 
ATOM      3  C9  <0> d          -2.035   1.948   6.026  0.00  0.00     0.002 C 
ATOM      4  C10 <0> d          -2.740   3.265   5.641  0.00  0.00     0.000 C 
ATOM      5  C11 <0> d          -1.811   4.261   5.126  0.00  0.00     0.002 C 
ATOM      6  C12 <0> d          -1.107   3.796   3.835  0.00  0.00     0.035 C 
ATOM      7  C13 <0> d           0.016   2.872   4.210  0.00  0.00     0.206 C 
ENDROOT
BRANCH   1   8
ATOM      8  N2  <0> d          -0.393   0.929   2.785  0.00  0.00    -0.349 N 
ATOM      9  C6  <0> d          -0.189  -0.374   2.507  0.00  0.00     0.268 C 
ATOM     10  O1  <0> d          -0.101  -1.183   3.412  0.00  0.00    -0.266 OA
ATOM     11  H8  <0> d          -0.537   1.562   2.064  0.00  0.00     0.163 HD
BRANCH   9  12
ATOM     12  C5  <0> d          -0.072  -0.817   1.113  0.00  0.00     0.103 A 
ATOM     13  N1  <0> d           0.043  -2.118   0.680  0.00  0.00    -0.355 N 
ATOM     14  C1  <0> d           0.070  -3.305   1.539  0.00  0.00     0.156 C 
ATOM     15  C2  <0> d           0.122  -2.119  -0.673  0.00  0.00     0.110 A 
ATOM     16  C3  <0> d           0.065  -0.840  -1.117  0.00  0.00     0.028 A 
ATOM     17  C4  <0> d          -0.055  -0.005  -0.001  0.00  0.00     0.056 A 
ATOM     18 Br1  <0> d           0.134  -0.283  -2.922  0.00  0.00    -0.050 Br
ENDBRANCH   9  12
ENDBRANCH   1   8
BRANCH   7  19
ATOM     19  N3  <0> d           1.129   3.076   3.273  0.00  0.00    -0.073 N 
ATOM     20  H19 <0> d           0.834   2.826   2.341  0.00  0.00     0.274 HD
ATOM     21  H20 <0> d           1.409   4.045   3.289  0.00  0.00     0.274 HD
ATOM     22  H21 <0> d           1.909   2.497   3.546  0.00  0.00     0.274 HD
ENDBRANCH   7  19
TORSDOF 3
