REMARK  3 active torsions:
REMARK  status: ('A' for Active; 'I' for Inactive)
REMARK    1  A    between atoms: C4_4  and  C15_18 
REMARK    2  A    between atoms: N1_6  and  C6_7 
REMARK       I    between atoms: C15_18  and  N2_20 
REMARK    3  A    between atoms: N2_20  and  C16_21 
ROOT
ATOM      1  C1  <0> d           4.426   0.133   2.246  0.00  0.00     0.068 C 
ATOM      2  C2  <0> d           4.551  -0.636   0.956  0.00  0.00     0.014 A 
ATOM      3  C3  <0> d           5.594  -1.409   0.603  0.00  0.00     0.044 A 
ATOM      4  C4  <0> d           5.280  -1.946  -0.725  0.00  0.00     0.056 A 
ATOM      5  C5  <0> d           4.052  -1.444  -1.059  0.00  0.00     0.029 A 
ATOM      6  N1  <0> d           3.623  -0.664  -0.046  0.00  0.00    -0.319 N 
ATOM      7  C14 <0> d           3.306  -1.716  -2.340  0.00  0.00     0.070 C 
ENDROOT
BRANCH   4   8
ATOM      8  C15 <0> d           6.118  -2.845  -1.536  0.00  0.00     0.254 C 
ATOM      9  O3  <0> d           5.732  -3.216  -2.629  0.00  0.00    -0.268 OA
ATOM     10  N2  <0> d           7.313  -3.257  -1.069  0.00  0.00    -0.351 N 
ATOM     11  H16 <0> d           7.662  -2.922  -0.081  0.00  0.00     0.163 HD
BRANCH  10  12
ATOM     12  C16 <0> d           8.147  -4.151  -1.876  0.00  0.00     0.099 C 
ATOM     13  C19 <0> d           9.640  -3.982  -1.474  0.00  0.00     0.165 C 
ATOM     14  S1  <0> d          10.345  -5.554  -2.126  0.00  0.00     0.146 S 
ATOM     15  C18 <0> d           8.811  -6.566  -2.204  0.00  0.00     0.142 C 
ATOM     16  O4  <0> d          10.822  -5.335  -3.447  0.00  0.00    -0.228 OA
ATOM     17  O5  <0> d          11.217  -6.109  -1.151  0.00  0.00    -0.228 OA
ATOM     18  C17 <0> d           7.745  -5.612  -1.616  0.00  0.00     0.041 C 
ENDBRANCH  10  12
ENDBRANCH   4   8
BRANCH   6  19
ATOM     19  C6  <0> d           2.401   0.025  -0.027  0.00  0.00     0.042 A 
ATOM     20  C11 <0> d           2.386   1.412  -0.018  0.00  0.00     0.069 A 
ATOM     21  C10 <0> d           1.178   2.093   0.002  0.00  0.00     0.104 A 
ATOM     22  C9  <0> d          -0.017   1.383   0.010  0.00  0.00     0.102 A 
ATOM     23  O1  <0> d           1.180   3.454   0.018  0.00  0.00    -0.346 OA
ATOM     24  C8  <0> d           0.002  -0.004   0.002  0.00  0.00     0.042 A 
ATOM     25  O2  <0> d          -1.213   2.034   0.019  0.00  0.00    -0.346 OA
ATOM     26  C7  <0> d           1.206  -0.681  -0.016  0.00  0.00     0.033 A 
ATOM     27  C13 <0> d          -1.192   3.412   0.409  0.00  0.00     0.202 C 
ATOM     28  C12 <0> d          -0.044   4.104  -0.339  0.00  0.00     0.202 C 
ENDBRANCH   6  19
TORSDOF 3
