REMARK  6 active torsions:
REMARK  status: ('A' for Active; 'I' for Inactive)
REMARK    1  A    between atoms: C2_2  and  C3_3 
REMARK    2  A    between atoms: C2_2  and  N3_12 
REMARK       I    between atoms: C3_3  and  N1_5 
REMARK       I    between atoms: N1_5  and  C4_6 
REMARK       I    between atoms: C4_6  and  N2_8 
REMARK    3  A    between atoms: N2_8  and  C5_9 
REMARK    4  A    between atoms: C5_9  and  C6_10 
REMARK    5  A    between atoms: N3_12  and  C9_14 
REMARK    6  A    between atoms: C9_14  and  C10_15 
ROOT
ATOM      1  C1  <0> d           2.934  -4.386  -1.127  0.00  0.00     0.050 C 
ATOM      2  C2  <0> d           1.457  -4.250  -1.501  0.00  0.00     0.275 C 
ENDROOT
BRANCH   2   3
ATOM      3  C3  <0> d           1.263  -4.665  -2.937  0.00  0.00     0.256 C 
ATOM      4  O1  <0> d           1.062  -3.826  -3.789  0.00  0.00    -0.271 OA
ATOM      5  N1  <0> d           1.313  -5.969  -3.273  0.00  0.00    -0.278 N 
ATOM      6  C4  <0> d           1.139  -6.341  -4.557  0.00  0.00     0.323 C 
ATOM      7  H5  <0> d           1.495  -6.730  -2.500  0.00  0.00     0.173 HD
ATOM      8  O2  <0> d           0.937  -5.500  -5.411  0.00  0.00    -0.247 OA
ATOM      9  N2  <0> d           1.189  -7.645  -4.894  0.00  0.00    -0.339 N 
ATOM     10  H6  <0> d           1.371  -8.406  -4.121  0.00  0.00     0.164 HD
BRANCH   9  11
ATOM     11  C5  <0> d           1.000  -8.049  -6.289  0.00  0.00     0.150 C 
BRANCH  11  12
ATOM     12  C6  <0> d           1.101  -9.549  -6.396  0.00  0.00    -0.018 C 
ATOM     13  C7  <0> d           0.126 -10.235  -6.939  0.00  0.00     0.008 C 
ENDBRANCH  11  12
ENDBRANCH   9  11
ENDBRANCH   2   3
BRANCH   2  14
ATOM     14  N3  <0> d           1.037  -2.852  -1.335  0.00  0.00    -0.059 N 
ATOM     15  C8  <0> d           0.853  -2.523   0.085  0.00  0.00     0.271 C 
ATOM     16  H21 <0> d           0.067  -2.728  -1.839  0.00  0.00     0.280 HD
BRANCH  14  17
ATOM     17  C9  <0> d           1.994  -1.935  -1.968  0.00  0.00     0.274 C 
BRANCH  17  18
ATOM     18  C10 <0> d           1.416  -0.544  -1.994  0.00  0.00    -0.033 A 
ATOM     19  C15 <0> d           0.659  -0.131  -3.075  0.00  0.00     0.010 A 
ATOM     20  C14 <0> d           0.128   1.145  -3.099  0.00  0.00     0.019 A 
ATOM     21  C13 <0> d           0.354   2.009  -2.043  0.00  0.00     0.011 A 
ATOM     22  C12 <0> d           1.111   1.595  -0.962  0.00  0.00     0.019 A 
ATOM     23 Br1  <0> d          -0.371   3.755  -2.076  0.00  0.00    -0.051 Br
ATOM     24  C11 <0> d           1.641   0.319  -0.938  0.00  0.00     0.010 A 
ENDBRANCH  17  18
ENDBRANCH  14  17
ENDBRANCH   2  14
TORSDOF 6
