REMARK  7 active torsions:
REMARK  status: ('A' for Active; 'I' for Inactive)
REMARK    1  A    between atoms: C4_4  and  N1_7 
REMARK    2  A    between atoms: C9_10  and  C10_12 
REMARK       I    between atoms: C10_12  and  N3_14 
REMARK    3  A    between atoms: N3_14  and  N4_15 
REMARK       I    between atoms: N4_15  and  C11_16 
REMARK       I    between atoms: C11_16  and  N5_18 
REMARK    4  A    between atoms: N5_18  and  C12_19 
REMARK    5  A    between atoms: C12_19  and  C13_20 
REMARK    6  A    between atoms: C13_20  and  C14_21 
REMARK    7  A    between atoms: C14_21  and  N6_22 
ROOT
ATOM      1  C10 <0> d           7.032  -1.013  -1.007  0.00  0.00     0.291 C 
ATOM      2  O1  <0> d           7.846  -1.883  -0.767  0.00  0.00    -0.264 OA
ATOM      3  N3  <0> d           7.381   0.046  -1.764  0.00  0.00    -0.261 N 
ATOM      4  H6  <0> d           6.731   0.741  -1.955  0.00  0.00     0.190 HD
ENDROOT
BRANCH   3   5
ATOM      5  N4  <0> d           8.681   0.144  -2.275  0.00  0.00    -0.249 N 
ATOM      6  C11 <0> d           9.030   1.203  -3.032  0.00  0.00     0.334 C 
ATOM      7  O2  <0> d          10.159   1.288  -3.476  0.00  0.00    -0.246 OA
ATOM      8  N5  <0> d           8.127   2.168  -3.297  0.00  0.00    -0.342 N 
ATOM      9  H8  <0> d           7.227   2.101  -2.943  0.00  0.00     0.164 HD
ATOM     10  H7  <0> d           9.331  -0.550  -2.084  0.00  0.00     0.192 HD
BRANCH   8  11
ATOM     11  C12 <0> d           8.506   3.320  -4.120  0.00  0.00     0.126 C 
BRANCH  11  12
ATOM     12  C13 <0> d           7.307   4.258  -4.267  0.00  0.00     0.040 C 
BRANCH  12  13
ATOM     13  C14 <0> d           7.703   5.461  -5.126  0.00  0.00     0.130 C 
BRANCH  13  14
ATOM     14  N6  <0> d           6.555   6.360  -5.267  0.00  0.00    -0.352 N 
ATOM     15  C17 <0> d           6.237   7.388  -4.450  0.00  0.00     0.182 A 
ATOM     16  N7  <0> d           5.151   7.957  -4.897  0.00  0.00    -0.361 N 
ATOM     17  C16 <0> d           4.736   7.313  -5.998  0.00  0.00     0.106 A 
ATOM     18  H24 <0> d           4.712   8.721  -4.494  0.00  0.00     0.166 HD
ATOM     19  C15 <0> d           5.600   6.311  -6.246  0.00  0.00     0.108 A 
ENDBRANCH  13  14
ENDBRANCH  12  13
ENDBRANCH  11  12
ENDBRANCH   8  11
ENDBRANCH   3   5
BRANCH   1  20
ATOM     20  C9  <0> d           5.661  -1.116  -0.468  0.00  0.00     0.154 A 
ATOM     21  C8  <0> d           5.150  -2.160   0.337  0.00  0.00     0.003 A 
ATOM     22  C7  <0> d           3.864  -1.835   0.589  0.00  0.00     0.045 A 
ATOM     23  C18 <0> d           5.505  -3.469   1.000  0.00  0.00     0.043 C 
ATOM     24  N1  <0> d           3.623  -0.652  -0.037  0.00  0.00    -0.237 N 
ATOM     25  C20 <0> d           3.217  -2.896   1.451  0.00  0.00     0.060 C 
ATOM     26  N2  <0> d           4.680  -0.254  -0.650  0.00  0.00    -0.161 NA
ATOM     27  C19 <0> d           4.393  -3.700   2.049  0.00  0.00     0.011 C 
BRANCH  24  28
ATOM     28  C4  <0> d           2.400   0.031  -0.021  0.00  0.00     0.058 A 
ATOM     29  C3  <0> d           2.377   1.419  -0.013  0.00  0.00     0.031 A 
ATOM     30  C2  <0> d           1.170   2.089   0.002  0.00  0.00     0.002 A 
ATOM     31  C1  <0> d          -0.017   1.379   0.010  0.00  0.00     0.000 A 
ATOM     32  C6  <0> d           0.002  -0.004   0.002  0.00  0.00     0.002 A 
ATOM     33  C5  <0> d           1.207  -0.680  -0.013  0.00  0.00     0.031 A 
ENDBRANCH  24  28
ENDBRANCH   1  20
TORSDOF 7
