REMARK  4 active torsions:
REMARK  status: ('A' for Active; 'I' for Inactive)
REMARK    1  A    between atoms: C3_3  and  C14_17 
REMARK       I    between atoms: C14_17  and  N1_19 
REMARK    2  A    between atoms: N1_19  and  C15_20 
REMARK    3  A    between atoms: C15_20  and  C16_21 
REMARK    4  A    between atoms: C16_21  and  C17_22 
ROOT
ATOM      1  C1  <0> d          -1.537  -3.284   0.013  0.00  0.00     0.077 C 
ATOM      2  C2  <0> d          -0.652  -2.064  -0.017  0.00  0.00     0.056 C 
ATOM      3  C3  <0> d          -1.116  -0.783  -0.003  0.00  0.00     0.053 C 
ATOM      4  C4  <0> d           0.114   0.075  -0.026  0.00  0.00     0.139 C 
ATOM      5  C5  <0> d           1.092  -0.918  -0.739  0.00  0.00     0.219 C 
ATOM      6  O1  <0> d           0.715  -2.109  -0.056  0.00  0.00    -0.341 OA
ATOM      7  C6  <0> d           2.458  -0.340  -0.551  0.00  0.00     0.190 C 
ATOM      8  O2  <0> d           3.380  -0.975  -0.085  0.00  0.00    -0.289 OA
ATOM      9  C7  <0> d           2.596   1.078  -0.985  0.00  0.00     0.026 A 
ATOM     10  C8  <0> d           3.853   1.630  -1.198  0.00  0.00     0.016 A 
ATOM     11  C9  <0> d           3.961   2.940  -1.631  0.00  0.00     0.001 A 
ATOM     12  C10 <0> d           2.828   3.703  -1.857  0.00  0.00     0.001 A 
ATOM     13  C11 <0> d           1.567   3.175  -1.638  0.00  0.00     0.016 A 
ATOM     14  C12 <0> d           1.439   1.867  -1.187  0.00  0.00     0.024 A 
ATOM     15  C13 <0> d           0.103   1.316  -0.865  0.00  0.00     0.172 C 
ATOM     16  O3  <0> d          -0.920   1.822  -1.275  0.00  0.00    -0.291 OA
ENDROOT
BRANCH   3  17
ATOM     17  C14 <0> d          -2.467  -0.354   0.026  0.00  0.00     0.251 C 
ATOM     18  O4  <0> d          -2.728   0.829   0.145  0.00  0.00    -0.268 OA
ATOM     19  N1  <0> d          -3.463  -1.257  -0.077  0.00  0.00    -0.357 N 
ATOM     20  H10 <0> d          -3.258  -2.205  -0.095  0.00  0.00     0.162 HD
BRANCH  19  21
ATOM     21  C15 <0> d          -4.854  -0.806  -0.164  0.00  0.00     0.127 C 
BRANCH  21  22
ATOM     22  C16 <0> d          -5.778  -2.021  -0.273  0.00  0.00     0.056 C 
BRANCH  22  23
ATOM     23  C17 <0> d          -7.209  -1.557  -0.361  0.00  0.00    -0.048 A 
ATOM     24  C24 <0> d          -8.128  -1.219   0.791  0.00  0.00     0.155 A 
ATOM     25  N2  <0> d          -9.404  -0.821   0.184  0.00  0.00    -0.385 N 
ATOM     26  C23 <0> d          -9.292  -0.908  -1.119  0.00  0.00     0.038 A 
ATOM     27  H21 <0> d         -10.198  -0.543   0.667  0.00  0.00     0.160 HD
ATOM     28  C18 <0> d          -7.933  -1.365  -1.488  0.00  0.00    -0.006 A 
ATOM     29  C22 <0> d         -10.216  -0.646  -2.168  0.00  0.00     0.030 A 
ATOM     30  C19 <0> d          -7.617  -1.524  -2.912  0.00  0.00     0.014 A 
ATOM     31  C20 <0> d          -8.571  -1.248  -3.830  0.00  0.00     0.001 A 
ATOM     32  C21 <0> d          -9.851  -0.815  -3.457  0.00  0.00     0.002 A 
ENDBRANCH  22  23
ENDBRANCH  21  22
ENDBRANCH  19  21
ENDBRANCH   3  17
TORSDOF 4
