REMARK  5 active torsions:
REMARK  status: ('A' for Active; 'I' for Inactive)
REMARK    1  A    between atoms: N2_9  and  O1_10 
REMARK    2  A    between atoms: O1_10  and  C7_11 
REMARK    3  A    between atoms: C7_11  and  C8_12 
REMARK       I    between atoms: C8_12  and  N3_14 
REMARK    4  A    between atoms: N3_14  and  C9_15 
REMARK    5  A    between atoms: C9_15  and  C10_16 
ROOT
ATOM      1  C1  <0> d          -1.268   2.188  -0.509  0.00  0.00     0.052 C 
ATOM      2  C2  <0> d          -0.019   1.387  -0.248  0.00  0.00    -0.017 C 
ATOM      3  C3  <0> d          -0.053   0.045  -0.242  0.00  0.00     0.099 C 
ATOM      4  N1  <0> d           1.069  -0.705  -0.008  0.00  0.00    -0.351 N 
ATOM      5  H1  <0> d           0.976  -1.777   0.221  0.00  0.00     0.166 HD
ATOM      6  C4  <0> d           2.317  -0.169  -0.048  0.00  0.00     0.129 A 
ATOM      7  C5  <0> d           2.478   1.214  -0.039  0.00  0.00     0.105 A 
ATOM      8  C6  <0> d           1.272   2.061   0.001  0.00  0.00     0.081 C 
ATOM      9  N2  <0> d           1.341   3.350   0.245  0.00  0.00    -0.265 N 
ATOM     10  C14 <0> d           3.781   1.764  -0.072  0.00  0.00     0.267 A 
ATOM     11  O4  <0> d           3.945   2.970  -0.061  0.00  0.00    -0.267 OA
ATOM     12  N4  <0> d           4.839   0.925  -0.117  0.00  0.00    -0.270 N 
ATOM     13  C15 <0> d           4.660  -0.407  -0.130  0.00  0.00     0.332 A 
ATOM     14  O5  <0> d           5.635  -1.132  -0.174  0.00  0.00    -0.246 OA
ATOM     15  N5  <0> d           3.435  -0.962  -0.097  0.00  0.00    -0.289 N 
ATOM     16  C16 <0> d           3.294  -2.420  -0.114  0.00  0.00     0.163 C 
ATOM     17  C17 <0> d           6.197   1.474  -0.151  0.00  0.00     0.164 C 
ATOM     18  H24 <0> d           0.534   4.018  -0.090  0.00  0.00     0.194 HD
ENDROOT
BRANCH   9  19
ATOM     19  O1  <0> d           2.455   3.880   0.941  0.00  0.00    -0.271 OA
BRANCH  19  20
ATOM     20  C7  <0> d           2.399   5.295   1.136  0.00  0.00     0.303 C 
BRANCH  20  21
ATOM     21  C8  <0> d           3.627   5.747   1.882  0.00  0.00     0.243 C 
ATOM     22  O2  <0> d           4.468   4.939   2.214  0.00  0.00    -0.271 OA
ATOM     23  N3  <0> d           3.792   7.051   2.181  0.00  0.00    -0.357 N 
ATOM     24  H9  <0> d           3.029   7.785   1.881  0.00  0.00     0.162 HD
BRANCH  23  25
ATOM     25  C9  <0> d           4.986   7.492   2.906  0.00  0.00     0.154 C 
BRANCH  25  26
ATOM     26  C10 <0> d           4.926   9.006   3.116  0.00  0.00     0.139 C 
ATOM     27  O3  <0> d           4.911   9.675   1.844  0.00  0.00    -0.384 OA
ATOM     28  C13 <0> d           5.640  10.912   2.012  0.00  0.00     0.168 C 
ATOM     29  C12 <0> d           6.832  10.513   2.918  0.00  0.00     0.029 C 
ATOM     30  C11 <0> d           6.183   9.481   3.872  0.00  0.00     0.035 C 
ENDBRANCH  25  26
ENDBRANCH  23  25
ENDBRANCH  20  21
ENDBRANCH  19  20
ENDBRANCH   9  19
TORSDOF 5
