REMARK  5 active torsions:
REMARK  status: ('A' for Active; 'I' for Inactive)
REMARK    1  A    between atoms: N1_2  and  C2_3 
REMARK    2  A    between atoms: C4_5  and  S1_9 
REMARK    3  A    between atoms: S1_9  and  N3_12 
REMARK    4  A    between atoms: C9_15  and  C12_18 
REMARK    5  A    between atoms: C12_18  and  N4_19 
ROOT
ATOM      1  S1  <0> d          -5.141   0.073   0.039  0.00  0.00     0.261 S 
ATOM      2  O1  <0> d          -6.078  -0.839   0.596  0.00  0.00    -0.200 OA
ATOM      3  O2  <0> d          -4.914   1.363   0.591  0.00  0.00    -0.200 OA
ENDROOT
BRANCH   1   4
ATOM      4  C4  <0> d          -3.583  -0.750   0.027  0.00  0.00     0.084 A 
ATOM      5  C3  <0> d          -2.403  -0.030   0.019  0.00  0.00     0.075 A 
ATOM      6  C2  <0> d          -1.192  -0.715   0.010  0.00  0.00     0.124 A 
ATOM      7  N2  <0> d          -1.167  -2.039   0.002  0.00  0.00    -0.244 NA
ATOM      8  C6  <0> d          -2.278  -2.752   0.015  0.00  0.00     0.120 A 
ATOM      9  C5  <0> d          -3.514  -2.137   0.024  0.00  0.00     0.044 A 
BRANCH   6  10
ATOM     10  N1  <0> d           0.002  -0.004   0.002  0.00  0.00    -0.379 N 
ATOM     11  C1  <0> d          -0.018   1.461   0.010  0.00  0.00     0.147 C 
ATOM     12  H4  <0> d           0.849  -0.478  -0.009  0.00  0.00     0.160 HD
ENDBRANCH   6  10
ENDBRANCH   1   4
BRANCH   1  13
ATOM     13  N3  <0> d          -5.585   0.305  -1.539  0.00  0.00    -0.307 N 
ATOM     14  C11 <0> d          -6.377  -0.708  -2.250  0.00  0.00     0.136 C 
ATOM     15  C10 <0> d          -7.622  -0.029  -2.841  0.00  0.00     0.027 C 
ATOM     16  C9  <0> d          -7.187   1.152  -3.711  0.00  0.00     0.014 C 
ATOM     17  C8  <0> d          -6.444   2.176  -2.849  0.00  0.00     0.027 C 
ATOM     18  C7  <0> d          -5.190   1.524  -2.257  0.00  0.00     0.136 C 
BRANCH  16  19
ATOM     19  C12 <0> d          -8.421   1.810  -4.332  0.00  0.00     0.238 C 
BRANCH  19  20
ATOM     20  N4  <0> d          -9.068   0.865  -5.252  0.00  0.00    -0.078 N 
ATOM     21  C13 <0> d         -10.318   1.450  -5.757  0.00  0.00     0.269 C 
ATOM     22  C14 <0> d          -8.168   0.585  -6.379  0.00  0.00     0.269 C 
ATOM     23  H25 <0> d          -9.273   0.006  -4.764  0.00  0.00     0.278 HD
ENDBRANCH  19  20
ENDBRANCH  16  19
ENDBRANCH   1  13
TORSDOF 5
