REMARK  8 active torsions:
REMARK  status: ('A' for Active; 'I' for Inactive)
REMARK    1  A    between atoms: C8_8  and  N1_9 
REMARK    2  A    between atoms: N1_9  and  C9_10 
REMARK    3  A    between atoms: C9_10  and  C10_11 
REMARK    4  A    between atoms: C9_10  and  C14_18 
REMARK    5  A    between atoms: C10_11  and  C11_12 
REMARK    6  A    between atoms: C16_22  and  C17_24 
REMARK    7  A    between atoms: C20_27  and  O5_32 
REMARK    8  A    between atoms: C21_28  and  O4_30 
ROOT
ATOM      1  C1  <0> d          -0.088   1.503   0.012  0.00  0.00     0.048 C 
ATOM      2  C2  <0> d          -0.054  -0.004   0.003  0.00  0.00    -0.061 A 
ATOM      3  C3  <0> d          -0.055  -0.687  -1.202  0.00  0.00     0.009 A 
ATOM      4  C4  <0> d          -0.023  -2.066  -1.229  0.00  0.00     0.039 A 
ATOM      5  C5  <0> d           0.011  -2.781  -0.039  0.00  0.00     0.088 A 
ATOM      6  C6  <0> d           0.012  -2.088   1.179  0.00  0.00     0.025 A 
ATOM      7  C7  <0> d          -0.015  -0.697   1.195  0.00  0.00     0.023 A 
ATOM      8  C8  <0> d           0.048  -2.872   2.436  0.00  0.00     0.044 A 
ATOM      9  C15 <0> d           0.079  -4.291   2.319  0.00  0.00     0.068 A 
ATOM     10  C16 <0> d           0.075  -4.857   1.088  0.00  0.00     0.088 A 
ATOM     11  O3  <0> d           0.041  -4.132  -0.044  0.00  0.00    -0.309 OA
ENDROOT
BRANCH   8  12
ATOM     12  N1  <0> d           0.051  -2.282   3.611  0.00  0.00    -0.374 N 
ATOM     13  H21 <0> d           0.115  -1.316   3.668  0.00  0.00     0.160 HD
BRANCH  12  14
ATOM     14  C9  <0> d          -0.042  -3.083   4.834  0.00  0.00     0.189 C 
BRANCH  14  15
ATOM     15  C10 <0> d           1.132  -2.748   5.755  0.00  0.00     0.094 C 
BRANCH  15  16
ATOM     16  C11 <0> d           2.422  -3.170   5.099  0.00  0.00     0.028 A 
ATOM     17  N3  <0> d           3.228  -2.386   4.369  0.00  0.00    -0.354 N 
ATOM     18  C13 <0> d           4.253  -3.083   3.961  0.00  0.00     0.180 A 
ATOM     19  H22 <0> d           3.075  -1.448   4.176  0.00  0.00     0.166 HD
ATOM     20  N2  <0> d           4.125  -4.348   4.416  0.00  0.00    -0.360 N 
ATOM     21  C12 <0> d           2.963  -4.403   5.138  0.00  0.00     0.114 A 
ATOM     22  H2  <0> d           4.741  -5.081   4.261  0.00  0.00     0.166 HD
ENDBRANCH  15  16
ENDBRANCH  14  15
BRANCH  14  23
ATOM     23  C14 <0> d          -1.338  -2.775   5.539  0.00  0.00     0.197 C 
ATOM     24  O1  <0> d          -2.111  -1.961   5.064  0.00  0.00    -0.646 OA
ATOM     25  O2  <0> d          -1.613  -3.339   6.584  0.00  0.00    -0.646 OA
ENDBRANCH  14  23
ENDBRANCH  12  14
ENDBRANCH   8  12
BRANCH  10  26
ATOM     26  C17 <0> d           0.108  -6.329   0.985  0.00  0.00     0.001 A 
ATOM     27  C22 <0> d           0.104  -6.944  -0.270  0.00  0.00     0.054 A 
ATOM     28  C21 <0> d           0.141  -8.322  -0.361  0.00  0.00     0.102 A 
ATOM     29  C20 <0> d           0.169  -9.096   0.797  0.00  0.00     0.099 A 
ATOM     30  C19 <0> d           0.167  -8.486   2.044  0.00  0.00     0.040 A 
ATOM     31  C18 <0> d           0.137  -7.112   2.142  0.00  0.00     0.017 A 
BRANCH  28  32
ATOM     32  O4  <0> d           0.144  -8.923  -1.581  0.00  0.00    -0.353 OA
ATOM     33  C23 <0> d           0.113  -8.068  -2.725  0.00  0.00     0.210 C 
ENDBRANCH  28  32
BRANCH  29  34
ATOM     34  O5  <0> d           0.200 -10.452   0.706  0.00  0.00    -0.358 OA
ATOM     35  H20 <0> d          -0.675 -10.864   0.688  0.00  0.00     0.217 HD
ENDBRANCH  29  34
ENDBRANCH  10  26
TORSDOF 8
