REMARK  3 active torsions:
REMARK  status: ('A' for Active; 'I' for Inactive)
REMARK    1  A    between atoms: C8_10  and  C9_12 
REMARK    2  A    between atoms: C9_12  and  C10_13 
REMARK       I    between atoms: C10_13  and  N2_15 
REMARK    3  A    between atoms: N2_15  and  C11_16 
ROOT
ATOM      1  C1  <0> d           2.359   1.438   0.004  0.00  0.00     0.002 A 
ATOM      2  C2  <0> d           1.146   2.102   0.018  0.00  0.00     0.003 A 
ATOM      3  C3  <0> d          -0.039   1.389   0.021  0.00  0.00     0.039 A 
ATOM      4  C4  <0> d          -0.011   0.004   0.010  0.00  0.00     0.096 A 
ATOM      5  C5  <0> d           1.211  -0.665  -0.017  0.00  0.00     0.068 A 
ATOM      6  C6  <0> d           2.395   0.056  -0.014  0.00  0.00     0.032 A 
ATOM      7  N1  <0> d           1.229  -2.065  -0.066  0.00  0.00    -0.323 N 
ATOM      8  C7  <0> d           0.079  -2.732  -0.299  0.00  0.00     0.252 C 
ATOM      9  O1  <0> d           0.055  -3.943  -0.238  0.00  0.00    -0.270 OA
ATOM     10  C8  <0> d          -1.175  -1.966  -0.637  0.00  0.00     0.229 C 
ATOM     11  O2  <0> d          -1.169  -0.709   0.043  0.00  0.00    -0.334 OA
ATOM     12  H6  <0> d           2.059  -2.550   0.067  0.00  0.00     0.169 HD
ENDROOT
BRANCH  10  13
ATOM     13  C9  <0> d          -1.234  -1.727  -2.147  0.00  0.00     0.145 C 
BRANCH  13  14
ATOM     14  C10 <0> d          -2.544  -1.071  -2.500  0.00  0.00     0.225 C 
ATOM     15  O3  <0> d          -3.351  -0.819  -1.630  0.00  0.00    -0.273 OA
ATOM     16  N2  <0> d          -2.820  -0.764  -3.783  0.00  0.00    -0.327 N 
ATOM     17  H9  <0> d          -2.149  -0.903  -4.470  0.00  0.00     0.169 HD
BRANCH  16  18
ATOM     18  C11 <0> d          -4.073  -0.244  -4.125  0.00  0.00     0.034 A 
ATOM     19  C16 <0> d          -4.735   0.607  -3.250  0.00  0.00     0.031 A 
ATOM     20  C15 <0> d          -5.972   1.119  -3.589  0.00  0.00     0.021 A 
ATOM     21  C14 <0> d          -6.552   0.785  -4.800  0.00  0.00     0.011 A 
ATOM     22  C13 <0> d          -5.894  -0.063  -5.674  0.00  0.00     0.021 A 
ATOM     23 Br1  <0> d          -8.246   1.488  -5.262  0.00  0.00    -0.051 Br
ATOM     24  C12 <0> d          -4.655  -0.574  -5.342  0.00  0.00     0.031 A 
ENDBRANCH  16  18
ENDBRANCH  13  14
ENDBRANCH  10  13
TORSDOF 3
