REMARK  4 active torsions:
REMARK  status: ('A' for Active; 'I' for Inactive)
REMARK    1  A    between atoms: N1_10  and  C10_11 
REMARK    2  A    between atoms: C11_12  and  N5_25 
REMARK    3  A    between atoms: C12_13  and  N4_17 
REMARK    4  A    between atoms: N4_17  and  C14_18 
ROOT
ATOM      1  C10 <0> d           4.759   0.056  -0.292  0.00  0.00     0.162 A 
ATOM      2  C11 <0> d           4.752   1.392  -0.698  0.00  0.00     0.117 A 
ATOM      3  C12 <0> d           5.977   2.011  -0.953  0.00  0.00     0.137 A 
ATOM      4  N2  <0> d           7.098   1.309  -0.800  0.00  0.00    -0.335 N 
ATOM      5  C13 <0> d           7.061   0.049  -0.415  0.00  0.00     0.211 A 
ATOM      6  N3  <0> d           5.926  -0.570  -0.159  0.00  0.00    -0.224 NA
ATOM      7  H19 <0> d           7.954   1.730  -0.975  0.00  0.00     0.168 HD
ENDROOT
BRANCH   1   8
ATOM      8  N1  <0> d           3.567  -0.608  -0.026  0.00  0.00    -0.329 N 
ATOM      9  C4  <0> d           3.067  -0.676   1.280  0.00  0.00     0.042 A 
ATOM     10  C3  <0> d           3.897  -0.331   2.342  0.00  0.00     0.030 A 
ATOM     11  C5  <0> d           1.764  -1.080   1.522  0.00  0.00    -0.031 A 
ATOM     12  C2  <0> d           3.422  -0.387   3.636  0.00  0.00     0.002 A 
ATOM     13  C1  <0> d           2.120  -0.787   3.876  0.00  0.00     0.001 A 
ATOM     14  C6  <0> d           1.294  -1.132   2.824  0.00  0.00     0.009 A 
ATOM     15  C7  <0> d           0.840  -1.472   0.398  0.00  0.00     0.042 C 
ATOM     16  C8  <0> d           1.331  -0.887  -0.926  0.00  0.00     0.025 C 
ATOM     17  C9  <0> d           2.811  -1.248  -1.110  0.00  0.00     0.131 C 
ENDBRANCH   1   8
BRANCH   2  18
ATOM     18  N5  <0> d           3.545   2.094  -0.847  0.00  0.00    -0.393 N 
ATOM     19  H17 <0> d           2.707   1.676  -0.595  0.00  0.00     0.156 HD
ATOM     20  H18 <0> d           3.549   2.997  -1.201  0.00  0.00     0.156 HD
ENDBRANCH   2  18
BRANCH   3  21
ATOM     21  N4  <0> d           6.026   3.339  -1.360  0.00  0.00    -0.338 N 
ATOM     22  H12 <0> d           5.214   3.869  -1.387  0.00  0.00     0.167 HD
BRANCH  21  23
ATOM     23  C14 <0> d           7.247   3.913  -1.731  0.00  0.00     0.072 A 
ATOM     24  C19 <0> d           7.912   3.463  -2.867  0.00  0.00     0.143 A 
ATOM     25  C18 <0> d           9.115   4.037  -3.233  0.00  0.00     0.044 A 
ATOM     26  F1  <0> d           7.379   2.472  -3.615  0.00  0.00    -0.204 F 
ATOM     27  C17 <0> d           9.664   5.047  -2.464  0.00  0.00     0.003 A 
ATOM     28  C16 <0> d           9.008   5.491  -1.331  0.00  0.00     0.002 A 
ATOM     29  C15 <0> d           7.802   4.927  -0.962  0.00  0.00     0.033 A 
ENDBRANCH  21  23
ENDBRANCH   3  21
TORSDOF 4
