REMARK  5 active torsions:
REMARK  status: ('A' for Active; 'I' for Inactive)
REMARK    1  A    between atoms: C2_2  and  N1_4 
REMARK    2  A    between atoms: C8_10  and  N3_15 
REMARK    3  A    between atoms: C9_11  and  C10_12 
REMARK       I    between atoms: C10_12  and  N2_14 
REMARK       I    between atoms: N3_15  and  C11_16 
REMARK    4  A    between atoms: C11_16  and  C12_18 
REMARK    5  A    between atoms: C16_22  and  N4_27 
ROOT
ATOM      1  N1  <0> d           0.639  -0.222  -1.304  0.00  0.00    -0.063 N 
ATOM      2  C4  <0> d           0.580  -1.649  -1.645  0.00  0.00     0.240 C 
ATOM      3  C5  <0> d           0.948  -1.856  -3.118  0.00  0.00     0.068 C 
ATOM      4  C6  <0> d           2.274  -1.153  -3.371  0.00  0.00    -0.023 A 
ATOM      5  C7  <0> d           2.731  -0.228  -2.497  0.00  0.00     0.018 A 
ATOM      6  S1  <0> d           4.271   0.309  -3.178  0.00  0.00    -0.074 SA
ATOM      7  C8  <0> d           4.319  -0.642  -4.562  0.00  0.00     0.093 A 
ATOM      8  C9  <0> d           3.146  -1.381  -4.507  0.00  0.00     0.073 A 
ATOM      9  C20 <0> d           2.046   0.215  -1.242  0.00  0.00     0.282 C 
ATOM     10  H21 <0> d           0.152   0.312  -2.008  0.00  0.00     0.280 HD
ENDROOT
BRANCH   7  11
ATOM     11  N3  <0> d           5.303  -0.678  -5.536  0.00  0.00    -0.316 N 
ATOM     12  C11 <0> d           6.386   0.116  -5.429  0.00  0.00     0.263 C 
ATOM     13  O2  <0> d           6.500   0.866  -4.478  0.00  0.00    -0.267 OA
ATOM     14  H14 <0> d           5.213  -1.276  -6.294  0.00  0.00     0.169 HD
BRANCH  12  15
ATOM     15  C12 <0> d           7.431   0.077  -6.462  0.00  0.00     0.074 A 
ATOM     16  S2  <0> d           7.499  -0.924  -7.937  0.00  0.00    -0.084 SA
ATOM     17  C19 <0> d           9.050  -0.341  -8.573  0.00  0.00     0.016 A 
ATOM     18  C14 <0> d           9.465   0.608  -7.609  0.00  0.00    -0.015 A 
ATOM     19  C18 <0> d           9.804  -0.630  -9.691  0.00  0.00     0.022 A 
ATOM     20  C13 <0> d           8.586   0.791  -6.526  0.00  0.00     0.037 A 
ATOM     21  C15 <0> d          10.706   1.253  -7.852  0.00  0.00     0.048 A 
ATOM     22  C16 <0> d          11.436   0.958  -8.957  0.00  0.00     0.103 A 
ATOM     23  C17 <0> d          11.004   0.021  -9.888  0.00  0.00     0.037 A 
BRANCH  22  24
ATOM     24  N4  <0> d          12.725   1.652  -9.177  0.00  0.00    -0.116 N 
ATOM     25  O3  <0> d          13.115   2.471  -8.377  0.00  0.00    -0.532 OA
ATOM     26  O4  <0> d          13.388   1.401 -10.156  0.00  0.00    -0.532 OA
ENDBRANCH  22  24
ENDBRANCH  12  15
ENDBRANCH   7  11
BRANCH   8  27
ATOM     27  C10 <0> d           2.802  -2.350  -5.552  0.00  0.00     0.252 C 
ATOM     28  O1  <0> d           2.158  -1.997  -6.522  0.00  0.00    -0.268 OA
ATOM     29  N2  <0> d           3.200  -3.633  -5.438  0.00  0.00    -0.366 N 
ATOM     30  H12 <0> d           3.714  -3.915  -4.665  0.00  0.00     0.159 HD
ATOM     31  H13 <0> d           2.974  -4.274  -6.129  0.00  0.00     0.159 HD
ENDBRANCH   8  27
BRANCH   1  32
ATOM     32  C2  <0> d           0.002  -0.004   0.002  0.00  0.00     0.180 C 
ATOM     33  C1  <0> d           0.156   1.464   0.406  0.00  0.00     0.039 C 
ATOM     34  C3  <0> d          -1.484  -0.355  -0.091  0.00  0.00     0.039 C 
ENDBRANCH   1  32
TORSDOF 5
