REMARK  3 active torsions:
REMARK  status: ('A' for Active; 'I' for Inactive)
REMARK    1  A    between atoms: N1_2  and  C2_3 
REMARK    2  A    between atoms: N1_2  and  C11_16 
REMARK    3  A    between atoms: C2_3  and  C3_4 
ROOT
ATOM      1  C3  <0> d           0.119  -2.727  -0.013  0.00  0.00     0.120 A 
ATOM      2  N2  <0> d          -1.110  -2.147   0.002  0.00  0.00    -0.310 N 
ATOM      3  H1  <0> d          -1.904  -2.703   0.007  0.00  0.00     0.170 HD
ATOM      4  C4  <0> d          -1.235  -0.799   0.010  0.00  0.00     0.259 A 
ATOM      5  O1  <0> d          -2.329  -0.266   0.024  0.00  0.00    -0.267 OA
ATOM      6  C5  <0> d           0.002  -0.004   0.002  0.00  0.00     0.061 A 
ATOM      7  C6  <0> d          -0.017   1.389   0.010  0.00  0.00     0.019 A 
ATOM      8  C7  <0> d           1.173   2.084   0.002  0.00  0.00     0.001 A 
ATOM      9  C8  <0> d           2.386   1.408  -0.013  0.00  0.00     0.002 A 
ATOM     10  C9  <0> d           2.426   0.032  -0.021  0.00  0.00     0.032 A 
ATOM     11  C10 <0> d           1.234  -0.695  -0.013  0.00  0.00     0.074 A 
ATOM     12  N3  <0> d           1.227  -2.051  -0.020  0.00  0.00    -0.233 NA
ENDROOT
BRANCH   1  13
ATOM     13  C2  <0> d           0.198  -4.232  -0.022  0.00  0.00     0.175 C 
BRANCH  13  14
ATOM     14  N1  <0> d           1.607  -4.648  -0.038  0.00  0.00    -0.264 NA
ATOM     15  C1  <0> d           2.257  -4.256  -1.296  0.00  0.00     0.118 C 
BRANCH  14  16
ATOM     16  C11 <0> d           1.725  -6.011   0.178  0.00  0.00     0.126 A 
ATOM     17  N5  <0> d           0.645  -6.768   0.372  0.00  0.00    -0.228 NA
ATOM     18  C16 <0> d           0.776  -8.068   0.571  0.00  0.00     0.235 A 
ATOM     19  N4  <0> d           1.930  -8.682   0.603  0.00  0.00    -0.241 NA
ATOM     20  C13 <0> d           3.094  -8.009   0.423  0.00  0.00     0.079 A 
ATOM     21  C12 <0> d           2.967  -6.621   0.204  0.00  0.00     0.074 A 
ATOM     22  C14 <0> d           4.411  -8.501   0.425  0.00  0.00     0.040 A 
ATOM     23  S1  <0> d           4.645  -6.082   0.015  0.00  0.00    -0.096 SA
ATOM     24  C15 <0> d           5.446  -7.663   0.226  0.00  0.00     0.053 A 
ENDBRANCH  14  16
ENDBRANCH  13  14
ENDBRANCH   1  13
TORSDOF 3
