REMARK  3 active torsions:
REMARK  status: ('A' for Active; 'I' for Inactive)
REMARK    1  A    between atoms: C4_4  and  C9_11 
REMARK    2  A    between atoms: C9_11  and  N1_12 
REMARK    3  A    between atoms: C15_18  and  N2_20 
ROOT
ATOM      1  N1  <0> d           3.732  -1.294  -1.417  0.00  0.00     0.102 N 
ATOM      2  C10 <0> d           2.875  -2.450  -1.792  0.00  0.00     0.226 C 
ATOM      3  C11 <0> d           3.463  -3.634  -0.991  0.00  0.00     0.038 C 
ATOM      4  C12 <0> d           4.936  -3.249  -0.741  0.00  0.00     0.038 C 
ATOM      5  C13 <0> d           5.104  -1.867  -1.413  0.00  0.00     0.226 C 
ATOM      6  C14 <0> d           5.503  -2.102  -2.879  0.00  0.00     0.068 C 
ATOM      7  C15 <0> d           4.569  -3.154  -3.484  0.00  0.00     0.187 C 
ATOM      8  C16 <0> d           3.100  -2.717  -3.289  0.00  0.00     0.068 C 
ENDROOT
BRANCH   1   9
ATOM      9  C9  <0> d           3.372  -0.781  -0.088  0.00  0.00     0.315 C 
BRANCH   9  10
ATOM     10  C4  <0> d           2.086   0.000  -0.182  0.00  0.00     0.006 A 
ATOM     11  C3  <0> d           0.913  -0.539   0.308  0.00  0.00     0.035 A 
ATOM     12  C2  <0> d          -0.267   0.178   0.223  0.00  0.00     0.035 A 
ATOM     13  C1  <0> d          -0.274   1.435  -0.354  0.00  0.00     0.036 A 
ATOM     14 Cl1  <0> d          -1.740  -0.500   0.842  0.00  0.00    -0.084 Cl
ATOM     15  C6  <0> d           0.897   1.977  -0.849  0.00  0.00     0.001 A 
ATOM     16  C5  <0> d           2.081   1.261  -0.762  0.00  0.00     0.088 A 
ATOM     17  C7  <0> d           0.876   3.345  -1.483  0.00  0.00     0.212 C 
ATOM     18  O2  <0> d           3.242   1.785  -1.239  0.00  0.00    -0.325 OA
ATOM     19  C8  <0> d           3.130   2.895  -2.135  0.00  0.00     0.345 C 
ATOM     20  O1  <0> d           2.214   3.844  -1.575  0.00  0.00    -0.362 OA
ENDBRANCH   9  10
ENDBRANCH   1   9
BRANCH   7  21
ATOM     21  N2  <0> d           4.795  -4.446  -2.824  0.00  0.00    -0.075 N 
ATOM     22  H20 <0> d           4.604  -4.357  -1.837  0.00  0.00     0.274 HD
ATOM     23  H21 <0> d           4.181  -5.140  -3.224  0.00  0.00     0.274 HD
ATOM     24  H22 <0> d           5.754  -4.729  -2.956  0.00  0.00     0.274 HD
ENDBRANCH   7  21
TORSDOF 3
