REMARK  3 active torsions:
REMARK  status: ('A' for Active; 'I' for Inactive)
REMARK    1  A    between atoms: C6_7  and  C7_8 
REMARK    2  A    between atoms: C7_8  and  N2_10 
REMARK    3  A    between atoms: N2_10  and  C9_11 
ROOT
ATOM      1  N2  <0> d          -0.929  -0.720   3.247  0.00  0.00    -0.059 N 
ATOM      2  H10 <0> d          -1.672  -1.258   2.826  0.00  0.00     0.278 HD
ATOM      3  H25 <0> d          -0.216  -1.345   3.592  0.00  0.00     0.278 HD
ENDROOT
BRANCH   1   4
ATOM      4  C7  <0> d          -0.347   0.180   2.244  0.00  0.00     0.218 C 
ATOM      5  C8  <0> d           0.895   0.859   2.826  0.00  0.00     0.045 C 
BRANCH   4   6
ATOM      6  C6  <0> d           0.041  -0.612   1.022  0.00  0.00     0.002 A 
ATOM      7  C2  <0> d           0.751  -1.796   1.149  0.00  0.00    -0.050 A 
ATOM      8  C1  <0> d           1.150  -2.314   2.507  0.00  0.00     0.049 C 
ATOM      9  C3  <0> d           1.081  -2.494  -0.002  0.00  0.00     0.034 A 
ATOM     10  C4  <0> d           0.699  -1.988  -1.230  0.00  0.00     0.031 A 
ATOM     11  N1  <0> d           0.028  -0.856  -1.314  0.00  0.00    -0.258 NA
ATOM     12  C18 <0> d           1.052  -2.739  -2.488  0.00  0.00     0.070 C 
ATOM     13  C5  <0> d          -0.302  -0.165  -0.240  0.00  0.00     0.040 A 
ATOM     14  C17 <0> d          -1.068   1.124  -0.391  0.00  0.00     0.071 C 
ENDBRANCH   4   6
ENDBRANCH   1   4
BRANCH   1  15
ATOM     15  C9  <0> d          -1.468   0.071   4.361  0.00  0.00     0.222 C 
ATOM     16  C14 <0> d          -1.948  -0.850   5.452  0.00  0.00     0.004 A 
ATOM     17  C13 <0> d          -3.111  -0.705   6.120  0.00  0.00     0.061 A 
ATOM     18  C15 <0> d          -1.310  -1.992   5.972  0.00  0.00     0.036 A 
ATOM     19  C12 <0> d          -4.096   0.410   5.863  0.00  0.00     0.066 C 
ATOM     20  O1  <0> d          -3.212  -1.699   7.010  0.00  0.00    -0.326 OA
ATOM     21  C11 <0> d          -3.381   1.516   5.078  0.00  0.00     0.009 C 
ATOM     22  C10 <0> d          -2.660   0.905   3.873  0.00  0.00     0.038 C 
ATOM     23  C16 <0> d          -2.121  -2.484   6.929  0.00  0.00     0.142 A 
ENDBRANCH   1  15
TORSDOF 3
