REMARK  7 active torsions:
REMARK  status: ('A' for Active; 'I' for Inactive)
REMARK    1  A    between atoms: C2_2  and  N1_4 
REMARK    2  A    between atoms: N1_4  and  S1_5 
REMARK    3  A    between atoms: S1_5  and  C4_8 
REMARK    4  A    between atoms: C8_12  and  C10_14 
REMARK    5  A    between atoms: C10_14  and  N2_15 
REMARK    6  A    between atoms: N2_15  and  C11_16 
REMARK    7  A    between atoms: C11_16  and  C12_17 
ROOT
ATOM      1  C10 <0> d          -1.421  -5.731   2.721  0.00  0.00     0.271 C 
ENDROOT
BRANCH   1   2
ATOM      2  C8  <0> d          -0.780  -4.961   1.596  0.00  0.00    -0.031 A 
ATOM      3  C7  <0> d           0.492  -5.292   1.168  0.00  0.00     0.009 A 
ATOM      4  C6  <0> d           1.079  -4.585   0.135  0.00  0.00     0.002 A 
ATOM      5  C5  <0> d           0.395  -3.548  -0.470  0.00  0.00     0.025 A 
ATOM      6  C4  <0> d          -0.878  -3.218  -0.043  0.00  0.00     0.080 A 
ATOM      7  C9  <0> d          -1.463  -3.921   0.993  0.00  0.00     0.034 A 
BRANCH   6   8
ATOM      8  S1  <0> d          -1.750  -1.895  -0.814  0.00  0.00     0.259 S 
ATOM      9  O1  <0> d          -3.133  -2.137  -0.591  0.00  0.00    -0.201 OA
ATOM     10  O2  <0> d          -1.202  -1.753  -2.117  0.00  0.00    -0.201 OA
BRANCH   8  11
ATOM     11  N1  <0> d          -1.372  -0.511   0.012  0.00  0.00    -0.311 N 
ATOM     12  H8  <0> d          -2.061  -0.036   0.503  0.00  0.00     0.172 HD
BRANCH  11  13
ATOM     13  C2  <0> d           0.002  -0.004   0.002  0.00  0.00     0.085 C 
ATOM     14  C1  <0> d          -0.019   1.526   0.010  0.00  0.00     0.032 C 
ATOM     15  C3  <0> d           0.742  -0.511   1.242  0.00  0.00     0.032 C 
ENDBRANCH  11  13
ENDBRANCH   8  11
ENDBRANCH   6   8
ENDBRANCH   1   2
BRANCH   1  16
ATOM     16  N2  <0> d          -1.090  -5.093   4.002  0.00  0.00    -0.067 N 
ATOM     17  H15 <0> d          -0.089  -5.087   4.126  0.00  0.00     0.277 HD
ATOM     18  H25 <0> d          -1.435  -4.145   4.005  0.00  0.00     0.277 HD
BRANCH  16  19
ATOM     19  C11 <0> d          -1.715  -5.844   5.099  0.00  0.00     0.278 C 
BRANCH  19  20
ATOM     20  C12 <0> d          -1.376  -5.189   6.414  0.00  0.00     0.051 A 
ATOM     21  C15 <0> d          -0.164  -5.498   7.077  0.00  0.00     0.260 A 
ATOM     22  N4  <0> d           0.121  -4.896   8.249  0.00  0.00    -0.270 N 
ATOM     23  O4  <0> d           0.616  -6.298   6.592  0.00  0.00    -0.267 OA
ATOM     24  C14 <0> d          -0.744  -4.016   8.788  0.00  0.00     0.330 A 
ATOM     25  C16 <0> d           1.374  -5.203   8.942  0.00  0.00     0.164 C 
ATOM     26  N3  <0> d          -1.902  -3.718   8.170  0.00  0.00    -0.313 N 
ATOM     27  O3  <0> d          -0.476  -3.484   9.848  0.00  0.00    -0.246 OA
ATOM     28  C13 <0> d          -2.226  -4.304   6.976  0.00  0.00     0.109 A 
ATOM     29  C17 <0> d          -2.824  -2.757   8.781  0.00  0.00     0.160 C 
ENDBRANCH  19  20
ENDBRANCH  16  19
ENDBRANCH   1  16
TORSDOF 7
