REMARK  4 active torsions:
REMARK  status: ('A' for Active; 'I' for Inactive)
REMARK    1  A    between atoms: C3_3  and  N3_17 
REMARK    2  A    between atoms: C6_6  and  N1_7 
REMARK    3  A    between atoms: N1_7  and  C7_8 
REMARK    4  A    between atoms: N2_11  and  C11_13 
ROOT
ATOM      1  N1  <0> d          -1.197  -0.720   0.010  0.00  0.00    -0.384 N 
ATOM      2  H5  <0> d          -2.044  -0.248   0.021  0.00  0.00     0.160 HD
ENDROOT
BRANCH   1   3
ATOM      3  C6  <0> d           0.002  -0.004   0.002  0.00  0.00     0.029 A 
ATOM      4  C1  <0> d          -0.017   1.385   0.010  0.00  0.00     0.031 A 
ATOM      5  C2  <0> d           1.171   2.090   0.002  0.00  0.00     0.039 A 
ATOM      6  C3  <0> d           2.377   1.416  -0.013  0.00  0.00     0.119 A 
ATOM      7  C4  <0> d           2.400   0.032  -0.021  0.00  0.00     0.041 A 
ATOM      8  C5  <0> d           1.216  -0.679  -0.014  0.00  0.00     0.049 A 
ATOM      9  I1  <0> d           4.232  -0.984  -0.045  0.00  0.00    -0.042 I 
BRANCH   6  10
ATOM     10  N3  <0> d           3.648   2.175  -0.022  0.00  0.00    -0.114 N 
ATOM     11  O1  <0> d           3.630   3.384  -0.016  0.00  0.00    -0.532 OA
ATOM     12  O2  <0> d           4.704   1.587  -0.036  0.00  0.00    -0.532 OA
ENDBRANCH   6  10
ENDBRANCH   1   3
BRANCH   1  13
ATOM     13  C7  <0> d          -1.175  -2.185   0.002  0.00  0.00     0.109 C 
ATOM     14  C10 <0> d          -2.496  -2.736  -0.566  0.00  0.00     0.260 C 
ATOM     15  N2  <0> d          -3.109  -3.568   0.495  0.00  0.00    -0.065 N 
ATOM     16  C9  <0> d          -2.577  -3.044   1.779  0.00  0.00     0.237 C 
ATOM     17  H17 <0> d          -2.844  -4.534   0.376  0.00  0.00     0.280 HD
ATOM     18  C8  <0> d          -1.097  -2.729   1.447  0.00  0.00     0.054 C 
BRANCH  15  19
ATOM     19  C11 <0> d          -4.572  -3.435   0.461  0.00  0.00     0.188 A 
ATOM     20  C13 <0> d          -5.294  -3.895  -0.807  0.00  0.00     0.035 A 
ATOM     21  C12 <0> d          -5.399  -4.722   0.476  0.00  0.00     0.035 A 
ENDBRANCH  15  19
ENDBRANCH   1  13
TORSDOF 4
