REMARK  5 active torsions:
REMARK  status: ('A' for Active; 'I' for Inactive)
REMARK    1  A    between atoms: C7_7  and  O1_8 
REMARK    2  A    between atoms: O1_8  and  C8_9 
REMARK    3  A    between atoms: C8_9  and  C9_10 
REMARK    4  A    between atoms: C8_9  and  C13_16 
REMARK    5  A    between atoms: C13_16  and  N1_18 
ROOT
ATOM      1  C8  <0> d          -0.064  -0.817   3.572  0.00  0.00     0.199 C 
ENDROOT
BRANCH   1   2
ATOM      2  O1  <0> d           0.025  -0.033   2.381  0.00  0.00    -0.338 OA
BRANCH   2   3
ATOM      3  C7  <0> d          -0.029  -0.700   1.198  0.00  0.00     0.075 A 
ATOM      4  C2  <0> d          -0.071   0.004   0.004  0.00  0.00    -0.029 A 
ATOM      5  C1  <0> d          -0.057   1.511   0.017  0.00  0.00     0.051 C 
ATOM      6  C3  <0> d          -0.121  -0.676  -1.197  0.00  0.00     0.009 A 
ATOM      7  C4  <0> d          -0.135  -2.058  -1.210  0.00  0.00     0.001 A 
ATOM      8  C5  <0> d          -0.099  -2.763  -0.021  0.00  0.00     0.003 A 
ATOM      9  C6  <0> d          -0.049  -2.088   1.183  0.00  0.00     0.037 A 
ENDBRANCH   2   3
ENDBRANCH   1   2
BRANCH   1  10
ATOM     10  C9  <0> d          -0.868  -0.071   4.605  0.00  0.00     0.015 A 
ATOM     11  S1  <0> d          -0.942   1.685   4.920  0.00  0.00    -0.085 SA
ATOM     12  C12 <0> d          -2.110   1.651   6.269  0.00  0.00     0.051 A 
ATOM     13  C11 <0> d          -2.356   0.323   6.393  0.00  0.00     0.028 A 
ATOM     14 Br1  <0> d          -2.816   3.091   7.270  0.00  0.00    -0.043 Br
ATOM     15  C10 <0> d          -1.719  -0.559   5.540  0.00  0.00     0.019 A 
ENDBRANCH   1  10
BRANCH   1  16
ATOM     16  C13 <0> d           1.342  -1.082   4.115  0.00  0.00     0.213 C 
ATOM     17  C14 <0> d           1.247  -1.921   5.391  0.00  0.00     0.043 C 
BRANCH  16  18
ATOM     18  N1  <0> d           2.127  -1.809   3.108  0.00  0.00    -0.073 N 
ATOM     19  H15 <0> d           2.190  -1.256   2.267  0.00  0.00     0.274 HD
ATOM     20  H16 <0> d           3.054  -1.983   3.466  0.00  0.00     0.274 HD
ATOM     21  H17 <0> d           1.676  -2.687   2.900  0.00  0.00     0.274 HD
ENDBRANCH  16  18
ENDBRANCH   1  16
TORSDOF 5
