REMARK  4 active torsions:
REMARK  status: ('A' for Active; 'I' for Inactive)
REMARK    1  A    between atoms: C6_9  and  C7_10 
REMARK    2  A    between atoms: C7_10  and  N2_11 
REMARK       I    between atoms: N2_11  and  C8_12 
REMARK    3  A    between atoms: C8_12  and  C9_14 
REMARK    4  A    between atoms: C13_18  and  O4_23 
ROOT
ATOM      1  N2  <0> d           6.566   2.149  -0.049  0.00  0.00    -0.351 N 
ATOM      2  C8  <0> d           5.979   0.936  -0.050  0.00  0.00     0.276 C 
ATOM      3  O2  <0> d           6.663  -0.070  -0.062  0.00  0.00    -0.265 OA
ATOM      4  H8  <0> d           6.021   2.952  -0.040  0.00  0.00     0.163 HD
ENDROOT
BRANCH   2   5
ATOM      5  C9  <0> d           4.514   0.829  -0.037  0.00  0.00     0.150 A 
ATOM      6  O3  <0> d           3.659   1.872  -0.023  0.00  0.00    -0.304 OA
ATOM      7  C16 <0> d           2.380   1.446  -0.013  0.00  0.00     0.087 A 
ATOM      8  C11 <0> d           2.402   0.039  -0.021  0.00  0.00     0.009 A 
ATOM      9  C15 <0> d           1.158   2.108   0.002  0.00  0.00     0.041 A 
ATOM     10  C10 <0> d           3.815  -0.336  -0.036  0.00  0.00    -0.009 A 
ATOM     11  C12 <0> d           1.205  -0.682  -0.013  0.00  0.00     0.051 A 
ATOM     12  C18 <0> d           4.382  -1.732  -0.050  0.00  0.00     0.052 C 
ATOM     13  C13 <0> d           0.002  -0.004   0.002  0.00  0.00     0.069 A 
ATOM     14  C14 <0> d          -0.017   1.389   0.010  0.00  0.00     0.039 A 
BRANCH  13  15
ATOM     15  O4  <0> d          -1.167  -0.698   0.010  0.00  0.00    -0.356 OA
ATOM     16  C17 <0> d          -2.375   0.066   0.026  0.00  0.00     0.210 C 
ENDBRANCH  13  15
ENDBRANCH   2   5
BRANCH   1  17
ATOM     17  C7  <0> d           8.027   2.256  -0.063  0.00  0.00     0.167 C 
BRANCH  17  18
ATOM     18  C6  <0> d           8.424   3.710  -0.059  0.00  0.00     0.033 A 
ATOM     19  C2  <0> d           8.711   4.343   1.115  0.00  0.00    -0.047 A 
ATOM     20  C1  <0> d           8.634   3.596   2.422  0.00  0.00     0.049 C 
ATOM     21  C3  <0> d           9.082   5.695   1.092  0.00  0.00     0.032 A 
ATOM     22  C4  <0> d           9.143   6.359  -0.086  0.00  0.00     0.009 A 
ATOM     23  N1  <0> d           8.853   5.728  -1.253  0.00  0.00    -0.327 N 
ATOM     24  C19 <0> d           9.538   7.813  -0.102  0.00  0.00     0.068 C 
ATOM     25  H1  <0> d           8.904   6.234  -2.114  0.00  0.00     0.169 HD
ATOM     26  C5  <0> d           8.498   4.429  -1.264  0.00  0.00     0.254 A 
ATOM     27  O1  <0> d           8.240   3.876  -2.321  0.00  0.00    -0.268 OA
ENDBRANCH  17  18
ENDBRANCH   1  17
TORSDOF 4
