REMARK  7 active torsions:
REMARK  status: ('A' for Active; 'I' for Inactive)
REMARK    1  A    between atoms: C2_2  and  C4_4 
REMARK    2  A    between atoms: C4_4  and  C5_5 
REMARK    3  A    between atoms: C4_4  and  N2_9 
REMARK    4  A    between atoms: C5_5  and  N1_6 
REMARK    5  A    between atoms: N2_9  and  S1_10 
REMARK    6  A    between atoms: S1_10  and  C8_13 
REMARK    7  A    between atoms: C13_18  and  N3_19 
ROOT
ATOM      1  S1  <0> d          -2.192   1.696  -1.838  0.00  0.00     0.261 S 
ATOM      2  O1  <0> d          -1.466   2.744  -1.210  0.00  0.00    -0.200 OA
ATOM      3  O2  <0> d          -2.243   1.545  -3.250  0.00  0.00    -0.200 OA
ENDROOT
BRANCH   1   4
ATOM      4  N2  <0> d          -1.594   0.276  -1.231  0.00  0.00    -0.309 N 
ATOM      5  H17 <0> d          -1.372  -0.453  -1.831  0.00  0.00     0.172 HD
BRANCH   4   6
ATOM      6  C4  <0> d          -1.401   0.121   0.213  0.00  0.00     0.122 C 
BRANCH   6   7
ATOM      7  C2  <0> d           0.088   0.248   0.545  0.00  0.00     0.002 C 
ATOM      8  C1  <0> d           0.571   1.656   0.189  0.00  0.00     0.011 C 
ATOM      9  C3  <0> d           0.301  -0.001   2.039  0.00  0.00     0.011 C 
ENDBRANCH   6   7
BRANCH   6  10
ATOM     10  C5  <0> d          -1.905  -1.256   0.650  0.00  0.00     0.260 C 
BRANCH  10  11
ATOM     11  N1  <0> d          -3.328  -1.387   0.310  0.00  0.00    -0.077 N 
ATOM     12  C6  <0> d          -3.773  -2.759   0.587  0.00  0.00     0.269 C 
ATOM     13  C7  <0> d          -4.113  -0.445   1.119  0.00  0.00     0.269 C 
ATOM     14  H23 <0> d          -3.460  -1.181  -0.668  0.00  0.00     0.279 HD
ENDBRANCH  10  11
ENDBRANCH   6  10
ENDBRANCH   4   6
ENDBRANCH   1   4
BRANCH   1  15
ATOM     15  C8  <0> d          -3.860   1.838  -1.286  0.00  0.00     0.106 A 
ATOM     16  C13 <0> d          -4.821   0.945  -1.743  0.00  0.00     0.049 A 
ATOM     17  C12 <0> d          -6.133   1.056  -1.301  0.00  0.00     0.032 A 
ATOM     18  C11 <0> d          -6.481   2.060  -0.419  0.00  0.00     0.021 A 
ATOM     19  C10 <0> d          -5.522   2.951   0.029  0.00  0.00     0.012 A 
ATOM     20  C9  <0> d          -4.213   2.840  -0.404  0.00  0.00     0.046 A 
ATOM     21 Br1  <0> d          -6.002   4.324   1.238  0.00  0.00    -0.051 Br
BRANCH  16  22
ATOM     22  N3  <0> d          -4.467  -0.066  -2.640  0.00  0.00    -0.398 N 
ATOM     23  H21 <0> d          -3.537  -0.194  -2.884  0.00  0.00     0.156 HD
ATOM     24  H22 <0> d          -5.151  -0.640  -3.018  0.00  0.00     0.156 HD
ENDBRANCH  16  22
ENDBRANCH   1  15
TORSDOF 7
