REMARK  8 active torsions:
REMARK  status: ('A' for Active; 'I' for Inactive)
REMARK    1  A    between atoms: N1_2  and  C2_3 
REMARK    2  A    between atoms: N1_2  and  S1_8 
REMARK    3  A    between atoms: C2_3  and  C3_4 
REMARK    4  A    between atoms: C3_4  and  C4_5 
REMARK    5  A    between atoms: C4_5  and  O1_6 
REMARK    6  A    between atoms: S1_8  and  C6_11 
REMARK    7  A    between atoms: C8_13  and  S2_18 
REMARK    8  A    between atoms: C11_16  and  N2_17 
ROOT
ATOM      1  C6  <0> d           1.682  -1.059  -1.905  0.00  0.00     0.107 A 
ATOM      2  C7  <0> d           2.208  -2.334  -1.976  0.00  0.00     0.051 A 
ATOM      3  C8  <0> d           3.528  -2.520  -2.343  0.00  0.00     0.060 A 
ATOM      4  C9  <0> d           4.326  -1.430  -2.641  0.00  0.00     0.026 A 
ATOM      5  C10 <0> d           3.806  -0.153  -2.573  0.00  0.00     0.032 A 
ATOM      6  C11 <0> d           2.478   0.037  -2.209  0.00  0.00     0.049 A 
ENDROOT
BRANCH   1   7
ATOM      7  S1  <0> d          -0.000  -0.824  -1.437  0.00  0.00     0.262 S 
ATOM      8  O2  <0> d          -0.531  -2.115  -1.167  0.00  0.00    -0.200 OA
ATOM      9  O3  <0> d          -0.572   0.049  -2.401  0.00  0.00    -0.200 OA
BRANCH   7  10
ATOM     10  N1  <0> d           0.002  -0.004   0.002  0.00  0.00    -0.311 N 
ATOM     11  C1  <0> d          -0.018   1.461   0.010  0.00  0.00     0.163 C 
BRANCH  10  12
ATOM     12  C2  <0> d           0.024  -0.743   1.267  0.00  0.00     0.137 C 
BRANCH  12  13
ATOM     13  C3  <0> d          -1.406  -0.912   1.784  0.00  0.00     0.046 C 
BRANCH  13  14
ATOM     14  C4  <0> d          -1.383  -1.684   3.105  0.00  0.00     0.168 C 
BRANCH  14  15
ATOM     15  O1  <0> d          -2.719  -1.841   3.588  0.00  0.00    -0.396 OA
ATOM     16  C5  <0> d          -2.809  -2.553   4.824  0.00  0.00     0.201 C 
ENDBRANCH  14  15
ENDBRANCH  13  14
ENDBRANCH  12  13
ENDBRANCH  10  12
ENDBRANCH   7  10
ENDBRANCH   1   7
BRANCH   6  17
ATOM     17  N2  <0> d           1.948   1.327  -2.144  0.00  0.00    -0.398 N 
ATOM     18  H16 <0> d           1.022   1.459  -1.887  0.00  0.00     0.156 HD
ATOM     19  H17 <0> d           2.505   2.092  -2.357  0.00  0.00     0.156 HD
ENDBRANCH   6  17
BRANCH   3  20
ATOM     20  S2  <0> d           4.196  -4.148  -2.430  0.00  0.00     0.171 S 
ATOM     21  O4  <0> d           5.590  -3.981  -2.213  0.00  0.00    -0.223 OA
ATOM     22  O5  <0> d           3.409  -4.912  -1.527  0.00  0.00    -0.223 OA
ATOM     23  C12 <0> d           3.890  -4.686  -4.136  0.00  0.00     0.167 C 
ENDBRANCH   3  20
TORSDOF 8
