REMARK  6 active torsions:
REMARK  status: ('A' for Active; 'I' for Inactive)
REMARK    1  A    between atoms: C4_4  and  C11_15 
REMARK    2  A    between atoms: C5_5  and  C7_7 
REMARK    3  A    between atoms: C7_7  and  N1_8 
REMARK       I    between atoms: C11_15  and  N3_17 
REMARK    4  A    between atoms: N3_17  and  C12_18 
REMARK    5  A    between atoms: C12_18  and  C13_19 
REMARK    6  A    between atoms: C13_19  and  C14_20 
ROOT
ATOM      1  C1  <0> d           0.420   1.987  -0.065  0.00  0.00     0.001 A 
ATOM      2  C2  <0> d           1.738   2.409  -0.057  0.00  0.00     0.001 A 
ATOM      3  C3  <0> d           2.762   1.485  -0.044  0.00  0.00     0.017 A 
ATOM      4  C4  <0> d           2.466   0.121  -0.038  0.00  0.00     0.040 A 
ATOM      5  C5  <0> d           1.136  -0.299  -0.046  0.00  0.00    -0.024 A 
ATOM      6  C6  <0> d           0.121   0.636  -0.059  0.00  0.00     0.010 A 
ENDROOT
BRANCH   4   7
ATOM      7  C11 <0> d           3.559  -0.875  -0.024  0.00  0.00     0.252 C 
ATOM      8  O3  <0> d           3.302  -2.058   0.088  0.00  0.00    -0.268 OA
ATOM      9  N3  <0> d           4.840  -0.472  -0.136  0.00  0.00    -0.356 N 
ATOM     10  H10 <0> d           5.045   0.472  -0.225  0.00  0.00     0.162 HD
BRANCH   9  11
ATOM     11  C12 <0> d           5.923  -1.459  -0.122  0.00  0.00     0.129 C 
BRANCH  11  12
ATOM     12  C13 <0> d           7.267  -0.743  -0.263  0.00  0.00     0.086 C 
BRANCH  12  13
ATOM     13  C14 <0> d           8.381  -1.758  -0.249  0.00  0.00     0.076 A 
ATOM     14  S1  <0> d           9.234  -2.356   1.073  0.00  0.00    -0.085 SA
ATOM     15  C16 <0> d          10.314  -3.467   0.185  0.00  0.00     0.070 A 
ATOM     16  C15 <0> d           9.899  -3.254  -1.090  0.00  0.00     0.124 A 
ATOM     17  N4  <0> d           8.923  -2.385  -1.263  0.00  0.00    -0.258 NA
ENDBRANCH  12  13
ENDBRANCH  11  12
ENDBRANCH   9  11
ENDBRANCH   4   7
BRANCH   5  18
ATOM     18  C7  <0> d           0.807  -1.769  -0.040  0.00  0.00     0.176 C 
BRANCH  18  19
ATOM     19  N1  <0> d          -0.642  -1.947  -0.157  0.00  0.00    -0.264 N 
ATOM     20  C10 <0> d          -1.284  -2.144  -1.314  0.00  0.00     0.325 A 
ATOM     21  N2  <0> d          -2.612  -2.280  -1.148  0.00  0.00    -0.334 N 
ATOM     22  O2  <0> d          -0.730  -2.197  -2.394  0.00  0.00    -0.247 OA
ATOM     23  C9  <0> d          -2.872  -2.148   0.296  0.00  0.00     0.227 A 
ATOM     24  H9  <0> d          -3.271  -2.433  -1.843  0.00  0.00     0.164 HD
ATOM     25  C8  <0> d          -1.494  -1.926   0.887  0.00  0.00     0.245 A 
ATOM     26  O1  <0> d          -1.216  -1.764   2.056  0.00  0.00    -0.271 OA
ENDBRANCH  18  19
ENDBRANCH   5  18
TORSDOF 6
