REMARK  4 active torsions:
REMARK  status: ('A' for Active; 'I' for Inactive)
REMARK    1  A    between atoms: C6_6  and  C8_8 
REMARK    2  A    between atoms: C8_8  and  N1_9 
REMARK    3  A    between atoms: N2_18  and  C17_20 
REMARK    4  A    between atoms: C18_21  and  C22_26 
REMARK       I    between atoms: C22_26  and  N4_28 
ROOT
ATOM      1  N1  <0> d           2.926   2.790   1.822  0.00  0.00    -0.347 N 
ATOM      2  C9  <0> d           3.370   3.941   1.046  0.00  0.00     0.126 C 
ATOM      3  C10 <0> d           3.145   3.707  -0.448  0.00  0.00     0.021 C 
ATOM      4  C11 <0> d           1.689   3.272  -0.666  0.00  0.00     0.022 C 
ATOM      5  C12 <0> d           1.488   1.913  -0.011  0.00  0.00     0.054 C 
ATOM      6  C13 <0> d           2.060   1.879   1.369  0.00  0.00     0.230 C 
ATOM      7  O1  <0> d           1.722   0.982   2.112  0.00  0.00    -0.272 OA
ATOM      8  C14 <0> d          -0.011   1.543   0.010  0.00  0.00     0.035 C 
ATOM      9  C15 <0> d           0.013  -0.001   0.004  0.00  0.00     0.098 C 
ATOM     10  N2  <0> d           1.321  -0.417  -0.537  0.00  0.00    -0.266 NA
ATOM     11  C16 <0> d           2.095   0.796  -0.884  0.00  0.00     0.116 C 
ENDROOT
BRANCH  10  12
ATOM     12  C17 <0> d           1.164  -1.237  -1.638  0.00  0.00     0.120 A 
ATOM     13  N3  <0> d           0.448  -0.822  -2.672  0.00  0.00    -0.248 NA
ATOM     14  C21 <0> d           0.273  -1.573  -3.742  0.00  0.00     0.118 A 
ATOM     15  C20 <0> d           0.834  -2.835  -3.832  0.00  0.00     0.020 A 
ATOM     16  C19 <0> d           1.592  -3.320  -2.781  0.00  0.00     0.022 A 
ATOM     17  C18 <0> d           1.770  -2.505  -1.658  0.00  0.00     0.072 A 
BRANCH  17  18
ATOM     18  C22 <0> d           2.574  -2.971  -0.513  0.00  0.00     0.252 C 
ATOM     19  O2  <0> d           2.639  -2.297   0.498  0.00  0.00    -0.268 OA
ATOM     20  N4  <0> d           3.236  -4.142  -0.586  0.00  0.00    -0.366 N 
ATOM     21  H25 <0> d           3.836  -4.489   0.268  0.00  0.00     0.159 HD
ATOM     22  H26 <0> d           3.177  -4.751  -1.500  0.00  0.00     0.159 HD
ENDBRANCH  17  18
ENDBRANCH  10  12
BRANCH   1  23
ATOM     23  C8  <0> d           3.459   2.623   3.177  0.00  0.00     0.164 C 
BRANCH  23  24
ATOM     24  C6  <0> d           2.563   3.332   4.160  0.00  0.00    -0.040 A 
ATOM     25  C5  <0> d           1.506   2.658   4.742  0.00  0.00     0.009 A 
ATOM     26  C4  <0> d           0.684   3.307   5.644  0.00  0.00     0.001 A 
ATOM     27  C3  <0> d           0.920   4.631   5.964  0.00  0.00     0.007 A 
ATOM     28  C2  <0> d           1.977   5.305   5.382  0.00  0.00    -0.061 A 
ATOM     29  C1  <0> d           2.234   6.749   5.732  0.00  0.00     0.048 C 
ATOM     30  C7  <0> d           2.802   4.654   4.484  0.00  0.00     0.015 A 
ENDBRANCH  23  24
ENDBRANCH   1  23
TORSDOF 4
