REMARK  7 active torsions:
REMARK  status: ('A' for Active; 'I' for Inactive)
REMARK    1  A    between atoms: C5_6  and  N5_21 
REMARK    2  A    between atoms: C8_10  and  C9_11 
REMARK    3  A    between atoms: C9_11  and  C10_12 
REMARK    4  A    between atoms: C13_15  and  C16_18 
REMARK    5  A    between atoms: C16_18  and  N3_19 
REMARK    6  A    between atoms: N5_21  and  S1_22 
REMARK    7  A    between atoms: S1_22  and  C17_25 
ROOT
ATOM      1  C1  <0> d          -0.018   1.461   0.010  0.00  0.00     0.158 C 
ATOM      2  N1  <0> d           0.002  -0.004   0.002  0.00  0.00    -0.337 N 
ATOM      3  C2  <0> d           0.009  -0.818  -1.116  0.00  0.00     0.064 A 
ATOM      4  C3  <0> d          -0.001  -0.577  -2.483  0.00  0.00     0.034 A 
ATOM      5  C4  <0> d           0.010  -1.633  -3.367  0.00  0.00     0.035 A 
ATOM      6  C5  <0> d           0.029  -2.946  -2.898  0.00  0.00     0.072 A 
ATOM      7  C6  <0> d           0.039  -3.201  -1.540  0.00  0.00     0.066 A 
ATOM      8  C7  <0> d           0.029  -2.137  -0.634  0.00  0.00     0.088 A 
ATOM      9  N2  <0> d           0.034  -2.063   0.722  0.00  0.00    -0.233 NA
ATOM     10  C8  <0> d           0.024  -0.816   1.093  0.00  0.00     0.111 A 
ENDROOT
BRANCH  10  11
ATOM     11  C9  <0> d           0.030  -0.341   2.523  0.00  0.00     0.117 C 
BRANCH  11  12
ATOM     12  C10 <0> d          -1.388  -0.202   3.013  0.00  0.00    -0.051 A 
ATOM     13  C15 <0> d          -2.017  -1.277   3.615  0.00  0.00     0.008 A 
ATOM     14  C14 <0> d          -3.314  -1.155   4.070  0.00  0.00     0.016 A 
ATOM     15  C13 <0> d          -3.994   0.053   3.913  0.00  0.00     0.007 A 
ATOM     16  C12 <0> d          -3.357   1.131   3.300  0.00  0.00     0.016 A 
ATOM     17  C11 <0> d          -2.058   0.998   2.853  0.00  0.00     0.008 A 
BRANCH  15  18
ATOM     18  C16 <0> d          -5.387   0.189   4.395  0.00  0.00     0.102 C 
ATOM     19  N4  <0> d          -6.034   1.343   4.243  0.00  0.00    -0.385 N 
ATOM     20  H14 <0> d          -5.592   2.095   3.817  0.00  0.00     0.157 HD
ATOM     21  H15 <0> d          -6.946   1.433   4.559  0.00  0.00     0.157 HD
BRANCH  18  22
ATOM     22  N3  <0> d          -5.993  -0.842   4.980  0.00  0.00    -0.385 N 
ATOM     23  H13 <0> d          -5.522  -1.683   5.090  0.00  0.00     0.157 HD
ATOM     24  H20 <0> d          -6.906  -0.752   5.295  0.00  0.00     0.157 HD
ENDBRANCH  18  22
ENDBRANCH  15  18
ENDBRANCH  11  12
ENDBRANCH  10  11
BRANCH   6  25
ATOM     25  N5  <0> d           0.039  -4.010  -3.806  0.00  0.00    -0.160 NA
BRANCH  25  26
ATOM     26  S1  <0> d           0.028  -3.708  -5.434  0.00  0.00     0.285 S 
ATOM     27  O1  <0> d          -1.227  -3.109  -5.728  0.00  0.00    -0.198 OA
ATOM     28  O2  <0> d           1.263  -3.076  -5.739  0.00  0.00    -0.198 OA
BRANCH  26  29
ATOM     29  C17 <0> d           0.045  -5.268  -6.253  0.00  0.00     0.099 A 
ATOM     30  C21 <0> d          -1.140  -5.904  -6.573  0.00  0.00     0.141 A 
ATOM     31  N6  <0> d          -1.135  -7.069  -7.191  0.00  0.00    -0.272 NA
ATOM     32  C20 <0> d          -0.011  -7.676  -7.517  0.00  0.00     0.116 A 
ATOM     33  C19 <0> d           1.213  -7.104  -7.224  0.00  0.00     0.021 A 
ATOM     34  C18 <0> d           1.248  -5.877  -6.580  0.00  0.00     0.028 A 
ENDBRANCH  26  29
ENDBRANCH  25  26
ENDBRANCH   6  25
TORSDOF 7
