REMARK  7 active torsions:
REMARK  status: ('A' for Active; 'I' for Inactive)
REMARK    1  A    between atoms: C2_2  and  C3_3 
REMARK    2  A    between atoms: C3_3  and  C4_4 
REMARK    3  A    between atoms: C4_4  and  C5_5 
REMARK       I    between atoms: C5_5  and  N1_7 
REMARK    4  A    between atoms: C7_9  and  C14_17 
REMARK       I    between atoms: C14_17  and  N3_19 
REMARK    5  A    between atoms: N3_19  and  C15_20 
REMARK    6  A    between atoms: C15_20  and  C16_21 
REMARK    7  A    between atoms: C16_21  and  C17_22 
ROOT
ATOM      1  C5  <0> d           1.554  -2.530  -2.627  0.00  0.00     0.219 C 
ATOM      2  O1  <0> d           1.958  -1.756  -3.469  0.00  0.00    -0.273 OA
ATOM      3  N1  <0> d           1.645  -3.859  -2.835  0.00  0.00    -0.351 N 
ATOM      4  C6  <0> d           1.204  -4.951  -1.935  0.00  0.00     0.140 C 
ATOM      5  C7  <0> d           0.599  -6.015  -2.880  0.00  0.00     0.106 C 
ATOM      6  C8  <0> d           1.264  -5.753  -4.242  0.00  0.00    -0.007 C 
ATOM      7  C9  <0> d           2.202  -4.558  -4.018  0.00  0.00     0.136 C 
ATOM      8  C10 <0> d           2.061  -6.976  -4.685  0.00  0.00     0.039 C 
ATOM      9  C11 <0> d           2.664  -6.713  -6.067  0.00  0.00     0.233 C 
ATOM     10  N2  <0> d           1.589  -6.431  -7.027  0.00  0.00    -0.075 N 
ATOM     11  C12 <0> d           0.887  -5.200  -6.643  0.00  0.00     0.233 C 
ATOM     12  C13 <0> d           0.208  -5.399  -5.285  0.00  0.00     0.039 C 
ATOM     13  H19 <0> d           1.984  -6.318  -7.948  0.00  0.00     0.277 HD
ATOM     14  H38 <0> d           0.936  -7.200  -7.035  0.00  0.00     0.277 HD
ENDROOT
BRANCH   5  15
ATOM     15  C14 <0> d           0.931  -7.401  -2.389  0.00  0.00     0.224 C 
ATOM     16  O2  <0> d           1.963  -7.599  -1.785  0.00  0.00    -0.273 OA
ATOM     17  N3  <0> d           0.080  -8.419  -2.622  0.00  0.00    -0.360 N 
ATOM     18  H24 <0> d          -0.746  -8.260  -3.106  0.00  0.00     0.162 HD
BRANCH  17  19
ATOM     19  C15 <0> d           0.402  -9.767  -2.145  0.00  0.00     0.127 C 
BRANCH  19  20
ATOM     20  C16 <0> d          -0.721 -10.729  -2.538  0.00  0.00     0.058 C 
BRANCH  20  21
ATOM     21  C17 <0> d          -0.389 -12.115  -2.048  0.00  0.00    -0.050 A 
ATOM     22  C22 <0> d          -0.706 -12.484  -0.754  0.00  0.00    -0.056 A 
ATOM     23  C21 <0> d          -0.406 -13.757  -0.306  0.00  0.00     0.008 A 
ATOM     24  C23 <0> d          -1.382 -11.501   0.166  0.00  0.00     0.049 C 
ATOM     25  C20 <0> d           0.219 -14.657  -1.148  0.00  0.00     0.007 A 
ATOM     26  C19 <0> d           0.540 -14.286  -2.441  0.00  0.00    -0.061 A 
ATOM     27  C18 <0> d           0.236 -13.015  -2.890  0.00  0.00     0.014 A 
ATOM     28  C24 <0> d           1.221 -15.267  -3.359  0.00  0.00     0.048 C 
ENDBRANCH  20  21
ENDBRANCH  19  20
ENDBRANCH  17  19
ENDBRANCH   5  15
BRANCH   1  29
ATOM     29  C4  <0> d           0.950  -2.007  -1.350  0.00  0.00     0.103 C 
BRANCH  29  30
ATOM     30  C3  <0> d           0.967  -0.477  -1.367  0.00  0.00     0.009 C 
BRANCH  30  31
ATOM     31  C2  <0> d           0.354   0.054  -0.070  0.00  0.00    -0.004 C 
ATOM     32  C1  <0> d           0.371   1.584  -0.087  0.00  0.00     0.005 C 
ENDBRANCH  30  31
ENDBRANCH  29  30
ENDBRANCH   1  29
TORSDOF 7
