REMARK  9 active torsions:
REMARK  status: ('A' for Active; 'I' for Inactive)
REMARK    1  A    between atoms: C6_6  and  C8_8 
REMARK       I    between atoms: C8_8  and  N1_10 
REMARK    2  A    between atoms: N1_10  and  C9_11 
REMARK    3  A    between atoms: C9_11  and  C10_12 
REMARK    4  A    between atoms: C10_12  and  N2_13 
REMARK    5  A    between atoms: N2_13  and  C11_14 
REMARK    6  A    between atoms: C11_14  and  C12_15 
REMARK    7  A    between atoms: C17_20  and  O2_21 
REMARK    8  A    between atoms: O2_21  and  C18_22 
REMARK    9  A    between atoms: C18_22  and  C19_23 
REMARK       I    between atoms: C19_23  and  N3_25 
ROOT
ATOM      1  N2  <0> d           0.120  -7.185   4.678  0.00  0.00    -0.070 N 
ATOM      2  H13 <0> d           0.943  -6.935   5.206  0.00  0.00     0.277 HD
ATOM      3  H26 <0> d          -0.705  -6.957   5.214  0.00  0.00     0.277 HD
ENDROOT
BRANCH   1   4
ATOM      4  C10 <0> d           0.104  -6.439   3.413  0.00  0.00     0.252 C 
BRANCH   4   5
ATOM      5  C9  <0> d           0.086  -4.937   3.707  0.00  0.00     0.150 C 
BRANCH   5   6
ATOM      6  N1  <0> d           0.070  -4.193   2.445  0.00  0.00    -0.355 N 
ATOM      7  C8  <0> d           0.052  -2.845   2.458  0.00  0.00     0.251 C 
ATOM      8  O1  <0> d           0.049  -2.248   3.516  0.00  0.00    -0.268 OA
ATOM      9  H8  <0> d           0.072  -4.670   1.601  0.00  0.00     0.162 HD
BRANCH   7  10
ATOM     10  C6  <0> d           0.036  -2.095   1.184  0.00  0.00     0.032 A 
ATOM     11  C5  <0> d           0.040  -2.778  -0.033  0.00  0.00     0.017 A 
ATOM     12  C4  <0> d           0.025  -2.071  -1.218  0.00  0.00     0.002 A 
ATOM     13  C3  <0> d           0.006  -0.688  -1.201  0.00  0.00     0.007 A 
ATOM     14  C2  <0> d           0.002  -0.004   0.002  0.00  0.00    -0.061 A 
ATOM     15  C1  <0> d          -0.018   1.503   0.010  0.00  0.00     0.048 C 
ATOM     16  C7  <0> d           0.023  -0.699   1.194  0.00  0.00     0.023 A 
ENDBRANCH   7  10
ENDBRANCH   5   6
ENDBRANCH   4   5
ENDBRANCH   1   4
BRANCH   1  17
ATOM     17  C11 <0> d           0.138  -8.626   4.397  0.00  0.00     0.273 C 
BRANCH  17  18
ATOM     18  C12 <0> d           0.154  -9.392   5.695  0.00  0.00     0.001 A 
ATOM     19  C17 <0> d          -1.024  -9.581   6.404  0.00  0.00     0.077 A 
ATOM     20  C16 <0> d          -1.006 -10.291   7.596  0.00  0.00     0.037 A 
ATOM     21  C15 <0> d           0.184 -10.799   8.079  0.00  0.00     0.003 A 
ATOM     22  C14 <0> d           1.357 -10.604   7.373  0.00  0.00     0.001 A 
ATOM     23  C13 <0> d           1.342  -9.902   6.182  0.00  0.00     0.011 A 
BRANCH  19  24
ATOM     24  O2  <0> d          -2.192  -9.075   5.929  0.00  0.00    -0.342 OA
BRANCH  24  25
ATOM     25  C18 <0> d          -3.365  -9.308   6.712  0.00  0.00     0.278 C 
BRANCH  25  26
ATOM     26  C19 <0> d          -4.555  -8.679   6.034  0.00  0.00     0.241 C 
ATOM     27  O3  <0> d          -4.412  -8.089   4.984  0.00  0.00    -0.271 OA
ATOM     28  N3  <0> d          -5.777  -8.771   6.595  0.00  0.00    -0.364 N 
ATOM     29  C20 <0> d          -6.933  -8.160   5.936  0.00  0.00     0.149 C 
ATOM     30  H22 <0> d          -5.891  -9.243   7.435  0.00  0.00     0.161 HD
ENDBRANCH  25  26
ENDBRANCH  24  25
ENDBRANCH  19  24
ENDBRANCH  17  18
ENDBRANCH   1  17
TORSDOF 9
