REMARK  5 active torsions:
REMARK  status: ('A' for Active; 'I' for Inactive)
REMARK    1  A    between atoms: C3_3  and  C5_6 
REMARK    2  A    between atoms: C12_14  and  C13_15 
REMARK    3  A    between atoms: C12_14  and  N3_29 
REMARK    4  A    between atoms: C16_18  and  C19_24 
REMARK    5  A    between atoms: C18_20  and  N1_21 
REMARK       I    between atoms: C19_24  and  N2_26 
ROOT
ATOM      1  C5  <0> d           1.408   5.429  -1.458  0.00  0.00     0.262 C 
ATOM      2  C6  <0> d           1.811   5.609  -2.918  0.00  0.00    -0.009 A 
ATOM      3  C7  <0> d           2.579   6.673  -3.387  0.00  0.00     0.018 A 
ATOM      4  C8  <0> d           2.890   6.756  -4.701  0.00  0.00     0.051 A 
ATOM      5  S2  <0> d           2.096   5.298  -5.361  0.00  0.00    -0.106 SA
ATOM      6  C9  <0> d           1.413   4.693  -3.844  0.00  0.00    -0.007 A 
ATOM      7  C10 <0> d           0.591   3.470  -3.593  0.00  0.00     0.074 C 
ATOM      8  C11 <0> d           0.567   3.226  -2.075  0.00  0.00     0.241 C 
ATOM      9  N3  <0> d           0.245   4.512  -1.409  0.00  0.00    -0.054 N 
ATOM     10  H18 <0> d          -0.543   4.950  -1.901  0.00  0.00     0.281 HD
ENDROOT
BRANCH   9  11
ATOM     11  C12 <0> d          -0.142   4.267  -0.006  0.00  0.00     0.277 C 
BRANCH  11  12
ATOM     12  C13 <0> d          -1.519   3.655   0.010  0.00  0.00     0.001 A 
ATOM     13  C18 <0> d          -2.075   3.242   1.208  0.00  0.00     0.111 A 
ATOM     14  C17 <0> d          -3.333   2.676   1.229  0.00  0.00     0.053 A 
ATOM     15  C16 <0> d          -4.050   2.532   0.041  0.00  0.00     0.034 A 
ATOM     16  C15 <0> d          -3.484   2.952  -1.165  0.00  0.00     0.018 A 
ATOM     17  C14 <0> d          -2.223   3.510  -1.173  0.00  0.00     0.012 A 
BRANCH  13  18
ATOM     18  N1  <0> d          -1.315   3.400   2.468  0.00  0.00    -0.115 N 
ATOM     19  O1  <0> d          -1.837   3.123   3.533  0.00  0.00    -0.532 OA
ATOM     20  O2  <0> d          -0.166   3.803   2.440  0.00  0.00    -0.532 OA
ENDBRANCH  13  18
BRANCH  15  21
ATOM     21  C19 <0> d          -5.402   1.933   0.057  0.00  0.00     0.249 C 
ATOM     22  O3  <0> d          -5.892   1.568   1.107  0.00  0.00    -0.268 OA
ATOM     23  N2  <0> d          -6.090   1.791  -1.093  0.00  0.00    -0.366 N 
ATOM     24  H16 <0> d          -5.698   2.082  -1.932  0.00  0.00     0.159 HD
ATOM     25  H17 <0> d          -6.976   1.397  -1.083  0.00  0.00     0.159 HD
ENDBRANCH  15  21
ENDBRANCH  11  12
ENDBRANCH   9  11
BRANCH   1  26
ATOM     26  C3  <0> d           1.001   6.759  -0.878  0.00  0.00     0.018 A 
ATOM     27  C2  <0> d           1.710   7.594  -0.079  0.00  0.00     0.017 A 
ATOM     28  C1  <0> d           1.129   8.778   0.335  0.00  0.00     0.008 A 
ATOM     29  C4  <0> d          -0.135   9.064  -0.061  0.00  0.00     0.050 A 
ATOM     30  S1  <0> d          -0.541   7.639  -1.057  0.00  0.00    -0.104 SA
ENDBRANCH   1  26
TORSDOF 5
