REMARK  3 active torsions:
REMARK  status: ('A' for Active; 'I' for Inactive)
REMARK    1  A    between atoms: C4_4  and  N1_9 
REMARK    2  A    between atoms: N1_9  and  C9_10 
REMARK    3  A    between atoms: N2_12  and  C10_13 
ROOT
ATOM      1  N1  <0> d           2.422  -4.078  -0.247  0.00  0.00    -0.362 N 
ATOM      2  H15 <0> d           1.589  -4.573  -0.242  0.00  0.00     0.162 HD
ENDROOT
BRANCH   1   3
ATOM      3  C4  <0> d           3.700  -4.791  -0.374  0.00  0.00     0.088 C 
ATOM      4  C3  <0> d           3.529  -6.223   0.132  0.00  0.00     0.063 C 
ATOM      5  C2  <0> d           4.837  -6.997  -0.009  0.00  0.00     0.121 C 
ATOM      6  C1  <0> d           5.816  -6.552   1.083  0.00  0.00     0.046 C 
ATOM      7  C16 <0> d           4.523  -8.490   0.239  0.00  0.00     0.046 C 
ATOM      8  N3  <0> d           5.460  -6.934  -1.359  0.00  0.00    -0.059 N 
ATOM      9  C6  <0> d           5.420  -5.598  -2.011  0.00  0.00     0.121 C 
ATOM     10  H24 <0> d           4.970  -7.600  -1.967  0.00  0.00     0.279 HD
ATOM     11  H25 <0> d           6.444  -7.214  -1.268  0.00  0.00     0.279 HD
ATOM     12  C5  <0> d           4.104  -4.842  -1.847  0.00  0.00     0.063 C 
ATOM     13  C7  <0> d           6.581  -4.711  -1.547  0.00  0.00     0.046 C 
ATOM     14  C8  <0> d           5.620  -5.861  -3.521  0.00  0.00     0.046 C 
ENDBRANCH   1   3
BRANCH   1  15
ATOM     15  C9  <0> d           2.409  -2.735  -0.138  0.00  0.00     0.172 C 
ATOM     16  S1  <0> d           3.881  -1.860  -0.147  0.00  0.00    -0.041 SA
ATOM     17  N2  <0> d           1.237  -2.080  -0.021  0.00  0.00    -0.333 N 
ATOM     18  H16 <0> d           0.409  -2.578   0.065  0.00  0.00     0.168 HD
BRANCH  17  19
ATOM     19  C10 <0> d           1.214  -0.681  -0.025  0.00  0.00     0.034 A 
ATOM     20  C15 <0> d           0.393   0.004   0.863  0.00  0.00     0.031 A 
ATOM     21  C14 <0> d           0.373   1.384   0.858  0.00  0.00     0.021 A 
ATOM     22  C13 <0> d           1.169   2.086  -0.030  0.00  0.00     0.011 A 
ATOM     23  C12 <0> d           1.987   1.407  -0.915  0.00  0.00     0.021 A 
ATOM     24 Br1  <0> d           1.138   3.977  -0.034  0.00  0.00    -0.051 Br
ATOM     25  C11 <0> d           2.011   0.026  -0.915  0.00  0.00     0.031 A 
ENDBRANCH  17  19
ENDBRANCH   1  15
TORSDOF 3
