REMARK  2 active torsions:
REMARK  status: ('A' for Active; 'I' for Inactive)
REMARK    1  A    between atoms: C4_5  and  C5_8 
REMARK    2  A    between atoms: N2_6  and  O1_7 
ROOT
ATOM      1  C1  <0> d          -0.013   1.086   0.008  0.00  0.00     0.043 C 
ATOM      2  C2  <0> d          -0.729   1.579   1.267  0.00  0.00     0.081 A 
ATOM      3  C3  <0> d          -2.196   1.106   1.278  0.00  0.00     0.084 A 
ATOM      4  N1  <0> d          -2.960   2.368   1.272  0.00  0.00    -0.194 N 
ATOM      5  C4  <0> d          -2.117   3.388   1.262  0.00  0.00     0.164 A 
ATOM      6  N2  <0> d          -0.839   3.046   1.259  0.00  0.00    -0.230 N 
ATOM      7  O4  <0> d          -4.372   2.471   1.276  0.00  0.00    -0.083 OA
ATOM      8  C12 <0> d          -2.506   0.281   0.027  0.00  0.00     0.043 C 
ATOM      9  C13 <0> d          -2.493   0.299   2.544  0.00  0.00     0.043 C 
ATOM     10  C14 <0> d           0.002   1.100   2.523  0.00  0.00     0.043 C 
ENDROOT
BRANCH   5  11
ATOM     11  C5  <0> d          -2.568   4.795   1.256  0.00  0.00     0.015 A 
ATOM     12  C10 <0> d          -3.778   5.146   1.858  0.00  0.00     0.055 A 
ATOM     13  C9  <0> d          -4.193   6.463   1.855  0.00  0.00     0.105 A 
ATOM     14  C8  <0> d          -3.408   7.440   1.241  0.00  0.00     0.105 A 
ATOM     15  O2  <0> d          -5.309   7.060   2.367  0.00  0.00    -0.323 OA
ATOM     16  C7  <0> d          -2.208   7.089   0.638  0.00  0.00     0.040 A 
ATOM     17  O3  <0> d          -4.034   8.645   1.369  0.00  0.00    -0.323 OA
ATOM     18  C6  <0> d          -1.787   5.777   0.643  0.00  0.00     0.018 A 
ATOM     19  C11 <0> d          -5.400   8.336   1.706  0.00  0.00     0.352 C 
ENDBRANCH   5  11
BRANCH   6  20
ATOM     20  O1  <0> d           0.251   3.950   1.248  0.00  0.00    -0.285 OA
ATOM     21  H18 <0> d           0.066   5.035   1.243  0.00  0.00     0.245 HD
ENDBRANCH   6  20
TORSDOF 2
