REMARK  5 active torsions:
REMARK  status: ('A' for Active; 'I' for Inactive)
REMARK    1  A    between atoms: C2_2  and  C4_4 
REMARK    2  A    between atoms: C4_4  and  C5_5 
REMARK    3  A    between atoms: C4_4  and  N1_8 
REMARK       I    between atoms: N1_8  and  C7_9 
REMARK    4  A    between atoms: C7_9  and  C8_11 
REMARK    5  A    between atoms: C8_11  and  N2_12 
ROOT
ATOM      1  N1  <0> d          -2.105  -0.148  -1.230  0.00  0.00    -0.348 N 
ATOM      2  C7  <0> d          -1.970  -0.910  -2.334  0.00  0.00     0.238 C 
ATOM      3  O2  <0> d          -1.291  -1.915  -2.297  0.00  0.00    -0.272 OA
ATOM      4  H12 <0> d          -2.648   0.655  -1.260  0.00  0.00     0.163 HD
ENDROOT
BRANCH   2   5
ATOM      5  C8  <0> d          -2.661  -0.514  -3.613  0.00  0.00     0.257 C 
BRANCH   5   6
ATOM      6  N2  <0> d          -2.359  -1.497  -4.656  0.00  0.00    -0.225 N 
ATOM      7  N3  <0> d          -1.330  -1.320  -5.403  0.00  0.00    -0.180 NA
ATOM      8  C12 <0> d          -0.998  -2.155  -6.347  0.00  0.00     0.164 A 
ATOM      9  C11 <0> d          -1.778  -3.299  -6.594  0.00  0.00     0.080 A 
ATOM     10  C10 <0> d          -2.883  -3.509  -5.815  0.00  0.00     0.126 A 
ATOM     11 Cl1  <0> d          -1.349  -4.415  -7.852  0.00  0.00    -0.081 Cl
ATOM     12  C9  <0> d          -3.171  -2.560  -4.811  0.00  0.00     0.287 A 
ATOM     13 Cl2  <0> d          -3.898  -4.897  -6.055  0.00  0.00    -0.076 Cl
ATOM     14  O3  <0> d          -4.146  -2.701  -4.090  0.00  0.00    -0.265 OA
ENDBRANCH   5   6
ENDBRANCH   2   5
BRANCH   1  15
ATOM     15  C4  <0> d          -1.433  -0.534   0.013  0.00  0.00     0.157 C 
BRANCH  15  16
ATOM     16  C2  <0> d           0.002  -0.004   0.002  0.00  0.00     0.007 C 
ATOM     17  C1  <0> d          -0.019   1.526   0.010  0.00  0.00     0.012 C 
ATOM     18  C3  <0> d           0.742  -0.511   1.242  0.00  0.00     0.012 C 
ENDBRANCH  15  16
BRANCH  15  19
ATOM     19  C5  <0> d          -2.175   0.051   1.187  0.00  0.00     0.145 C 
ATOM     20  O1  <0> d          -2.987   0.928   1.012  0.00  0.00    -0.296 OA
ATOM     21  C6  <0> d          -1.905  -0.459   2.579  0.00  0.00     0.093 C 
ENDBRANCH  15  19
ENDBRANCH   1  15
TORSDOF 5
