REMARK  5 active torsions:
REMARK  status: ('A' for Active; 'I' for Inactive)
REMARK    1  A    between atoms: C7_7  and  O1_8 
REMARK    2  A    between atoms: O1_8  and  C8_9 
REMARK    3  A    between atoms: C8_9  and  C9_10 
REMARK    4  A    between atoms: C8_9  and  C13_16 
REMARK    5  A    between atoms: C13_16  and  N1_18 
ROOT
ATOM      1  C8  <0> d          -0.064  -0.817   3.572  0.00  0.00     0.199 C 
ENDROOT
BRANCH   1   2
ATOM      2  O1  <0> d           0.025  -0.033   2.381  0.00  0.00    -0.338 OA
BRANCH   2   3
ATOM      3  C7  <0> d           0.221  -0.703   1.215  0.00  0.00     0.075 A 
ATOM      4  C2  <0> d           0.273  -0.009   0.015  0.00  0.00    -0.029 A 
ATOM      5  C1  <0> d           0.112   1.489   0.003  0.00  0.00     0.051 C 
ATOM      6  C3  <0> d           0.477  -0.693  -1.169  0.00  0.00     0.009 A 
ATOM      7  C4  <0> d           0.624  -2.067  -1.158  0.00  0.00     0.001 A 
ATOM      8  C5  <0> d           0.567  -2.762   0.036  0.00  0.00     0.003 A 
ATOM      9  C6  <0> d           0.363  -2.084   1.222  0.00  0.00     0.037 A 
ENDBRANCH   2   3
ENDBRANCH   1   2
BRANCH   1  10
ATOM     10  C9  <0> d           0.548  -0.056   4.721  0.00  0.00     0.015 A 
ATOM     11  S1  <0> d           0.433   1.684   5.104  0.00  0.00    -0.102 SA
ATOM     12  C12 <0> d           1.430   1.681   6.586  0.00  0.00     0.069 A 
ATOM     13  C11 <0> d           1.784   0.376   6.683  0.00  0.00     0.018 A 
ATOM     14  C10 <0> d           1.332  -0.514   5.727  0.00  0.00     0.037 A 
ATOM     15 Br1  <0> d           2.879  -0.217   8.106  0.00  0.00    -0.051 Br
ENDBRANCH   1  10
BRANCH   1  16
ATOM     16  C13 <0> d          -1.533  -1.111   3.880  0.00  0.00     0.213 C 
ATOM     17  C14 <0> d          -2.154  -1.884   2.714  0.00  0.00     0.043 C 
BRANCH  16  18
ATOM     18  N1  <0> d          -1.625  -1.917   5.105  0.00  0.00    -0.073 N 
ATOM     19  H15 <0> d          -1.215  -1.408   5.874  0.00  0.00     0.274 HD
ATOM     20  H16 <0> d          -2.594  -2.111   5.308  0.00  0.00     0.274 HD
ATOM     21  H17 <0> d          -1.128  -2.785   4.975  0.00  0.00     0.274 HD
ENDBRANCH  16  18
ENDBRANCH   1  16
TORSDOF 5
