REMARK  5 active torsions:
REMARK  status: ('A' for Active; 'I' for Inactive)
REMARK    1  A    between atoms: O1_2  and  C2_3 
REMARK    2  A    between atoms: C6_7  and  N1_9 
REMARK       I    between atoms: N1_9  and  C8_10 
REMARK    3  A    between atoms: C8_10  and  C9_12 
REMARK    4  A    between atoms: C16_22  and  S1_25 
REMARK    5  A    between atoms: S1_25  and  C18_28 
ROOT
ATOM      1  C9  <0> d           2.252  -6.096   3.188  0.00  0.00     0.034 A 
ATOM      2  C10 <0> d           1.674  -6.857   2.165  0.00  0.00     0.018 A 
ATOM      3  C11 <0> d           1.814  -8.215   2.151  0.00  0.00     0.019 A 
ATOM      4  C12 <0> d           2.537  -8.850   3.161  0.00  0.00     0.043 A 
ATOM      5  C13 <0> d           3.123  -8.099   4.193  0.00  0.00     0.049 A 
ATOM      6  C14 <0> d           2.981  -6.716   4.198  0.00  0.00     0.047 A 
ATOM      7  N2  <0> d           3.835  -8.742   5.184  0.00  0.00    -0.332 N 
ATOM      8  H1  <0> d           4.238  -8.218   5.895  0.00  0.00     0.168 HD
ATOM      9  C15 <0> d           3.985 -10.091   5.189  0.00  0.00     0.205 A 
ATOM     10  O3  <0> d           4.692 -10.665   6.187  0.00  0.00    -0.170 OA
ATOM     11  C16 <0> d           3.446 -10.887   4.224  0.00  0.00     0.168 A 
ATOM     12  C17 <0> d           2.706 -10.317   3.173  0.00  0.00     0.210 A 
ATOM     13  O4  <0> d           2.216 -11.014   2.299  0.00  0.00    -0.286 OA
ENDROOT
BRANCH   1  14
ATOM     14  C8  <0> d           2.093  -4.625   3.191  0.00  0.00     0.256 C 
ATOM     15  N1  <0> d           1.387  -4.022   2.214  0.00  0.00    -0.323 N 
ATOM     16  H9  <0> d           0.920  -4.556   1.552  0.00  0.00     0.169 HD
ATOM     17  O2  <0> d           2.598  -3.961   4.075  0.00  0.00    -0.267 OA
BRANCH  15  18
ATOM     18  C6  <0> d           1.329  -2.626   2.154  0.00  0.00     0.037 A 
ATOM     19  C5  <0> d           0.180  -1.998   1.691  0.00  0.00     0.029 A 
ATOM     20  C4  <0> d           0.122  -0.618   1.632  0.00  0.00     0.005 A 
ATOM     21  C3  <0> d           1.206   0.139   2.034  0.00  0.00     0.037 A 
ATOM     22  C2  <0> d           2.356  -0.484   2.498  0.00  0.00     0.070 A 
ATOM     23  C7  <0> d           2.420  -1.867   2.553  0.00  0.00     0.066 A 
BRANCH  22  24
ATOM     24  O1  <0> d           3.421   0.263   2.892  0.00  0.00    -0.356 OA
ATOM     25  C1  <0> d           3.285   1.683   2.808  0.00  0.00     0.210 C 
ENDBRANCH  22  24
ENDBRANCH  15  18
ENDBRANCH   1  14
BRANCH  11  26
ATOM     26  S1  <0> d           3.678 -12.632   4.290  0.00  0.00     0.215 S 
ATOM     27  O5  <0> d           4.112 -13.034   2.998  0.00  0.00    -0.217 OA
ATOM     28  O6  <0> d           4.434 -12.897   5.464  0.00  0.00    -0.217 OA
BRANCH  26  29
ATOM     29  C18 <0> d           2.093 -13.360   4.538  0.00  0.00     0.064 A 
ATOM     30  C23 <0> d           1.316 -13.711   3.450  0.00  0.00     0.024 A 
ATOM     31  C22 <0> d           0.074 -14.285   3.644  0.00  0.00     0.002 A 
ATOM     32  C21 <0> d          -0.396 -14.500   4.926  0.00  0.00     0.000 A 
ATOM     33  C20 <0> d           0.379 -14.144   6.014  0.00  0.00     0.002 A 
ATOM     34  C19 <0> d           1.623 -13.574   5.820  0.00  0.00     0.024 A 
ENDBRANCH  26  29
ENDBRANCH  11  26
TORSDOF 5
