REMARK  6 active torsions:
REMARK  status: ('A' for Active; 'I' for Inactive)
REMARK    1  A    between atoms: C3_3  and  C12_18 
REMARK    2  A    between atoms: C5_7  and  S1_9 
REMARK    3  A    between atoms: S1_9  and  C6_10 
REMARK    4  A    between atoms: C6_10  and  C7_11 
REMARK       I    between atoms: C7_11  and  N3_13 
REMARK    5  A    between atoms: N3_13  and  C8_14 
REMARK    6  A    between atoms: C12_18  and  C13_19 
ROOT
ATOM      1  C1  <0> d          -0.018   1.503   0.010  0.00  0.00     0.071 C 
ATOM      2  C2  <0> d           0.002  -0.004   0.002  0.00  0.00     0.045 A 
ATOM      3  C3  <0> d          -1.171  -0.701   0.004  0.00  0.00     0.039 A 
ATOM      4  C4  <0> d          -1.128  -2.107  -0.004  0.00  0.00     0.257 A 
ATOM      5  O1  <0> d          -2.158  -2.761  -0.004  0.00  0.00    -0.267 OA
ATOM      6  N1  <0> d           0.076  -2.718  -0.014  0.00  0.00    -0.297 N 
ATOM      7  C5  <0> d           1.214  -1.970  -0.015  0.00  0.00     0.171 A 
ATOM      8  N2  <0> d           1.164  -0.652  -0.013  0.00  0.00    -0.229 NA
ATOM      9  C11 <0> d           0.157  -4.181  -0.022  0.00  0.00     0.161 C 
ENDROOT
BRANCH   7  10
ATOM     10  S1  <0> d           2.781  -2.777  -0.027  0.00  0.00    -0.082 SA
BRANCH  10  11
ATOM     11  C6  <0> d           3.977  -1.414  -0.025  0.00  0.00     0.185 C 
BRANCH  11  12
ATOM     12  C7  <0> d           5.376  -1.973  -0.035  0.00  0.00     0.227 C 
ATOM     13  O2  <0> d           5.550  -3.173  -0.042  0.00  0.00    -0.273 OA
ATOM     14  N3  <0> d           6.435  -1.139  -0.035  0.00  0.00    -0.357 N 
ATOM     15  H6  <0> d           6.296  -0.179  -0.029  0.00  0.00     0.162 HD
BRANCH  14  16
ATOM     16  C8  <0> d           7.795  -1.683  -0.045  0.00  0.00     0.076 C 
ATOM     17  C9  <0> d           8.216  -1.981  -1.485  0.00  0.00     0.032 C 
ATOM     18  C10 <0> d           8.757  -0.661   0.566  0.00  0.00     0.032 C 
ENDBRANCH  14  16
ENDBRANCH  11  12
ENDBRANCH  10  11
ENDBRANCH   7  10
BRANCH   3  19
ATOM     19  C12 <0> d          -2.493   0.023   0.015  0.00  0.00     0.084 C 
BRANCH  19  20
ATOM     20  C13 <0> d          -3.000   0.165  -1.397  0.00  0.00    -0.054 A 
ATOM     21  C18 <0> d          -3.806  -0.816  -1.944  0.00  0.00     0.009 A 
ATOM     22  C17 <0> d          -4.275  -0.685  -3.237  0.00  0.00     0.019 A 
ATOM     23  C16 <0> d          -3.930   0.424  -3.988  0.00  0.00     0.011 A 
ATOM     24  C15 <0> d          -3.119   1.404  -3.443  0.00  0.00     0.019 A 
ATOM     25 Br1  <0> d          -4.566   0.602  -5.760  0.00  0.00    -0.051 Br
ATOM     26  C14 <0> d          -2.655   1.274  -2.147  0.00  0.00     0.009 A 
ENDBRANCH  19  20
ENDBRANCH   3  19
TORSDOF 6
