REMARK  6 active torsions:
REMARK  status: ('A' for Active; 'I' for Inactive)
REMARK    1  A    between atoms: C4_4  and  N5_25 
REMARK    2  A    between atoms: N1_5  and  C5_7 
REMARK    3  A    between atoms: C8_10  and  N3_13 
REMARK       I    between atoms: N3_13  and  C11_14 
REMARK    4  A    between atoms: C11_14  and  C12_16 
REMARK       I    between atoms: C12_16  and  N4_18 
REMARK    5  A    between atoms: N4_18  and  C13_19 
REMARK    6  A    between atoms: C13_19  and  C14_20 
REMARK       I    between atoms: N5_25  and  C18_26 
ROOT
ATOM      1  C5  <0> d           0.035  -3.239   1.466  0.00  0.00     0.060 A 
ATOM      2  C6  <0> d          -0.773  -4.330   1.175  0.00  0.00     0.034 A 
ATOM      3  C7  <0> d          -0.749  -5.444   1.989  0.00  0.00     0.032 A 
ATOM      4  C8  <0> d           0.084  -5.473   3.101  0.00  0.00     0.035 A 
ATOM      5  C9  <0> d           0.893  -4.382   3.392  0.00  0.00     0.032 A 
ATOM      6  C10 <0> d           0.872  -3.270   2.574  0.00  0.00     0.034 A 
ENDROOT
BRANCH   4   7
ATOM      7  N3  <0> d           0.108  -6.601   3.927  0.00  0.00    -0.319 N 
ATOM      8  C11 <0> d          -0.076  -7.827   3.398  0.00  0.00     0.313 C 
ATOM      9  O1  <0> d          -0.168  -7.962   2.195  0.00  0.00    -0.262 OA
ATOM     10  H9  <0> d           0.257  -6.501   4.880  0.00  0.00     0.169 HD
BRANCH   8  11
ATOM     11  C12 <0> d          -0.169  -9.020   4.292  0.00  0.00     0.309 C 
ATOM     12  O2  <0> d          -0.078  -8.885   5.495  0.00  0.00    -0.262 OA
ATOM     13  N4  <0> d          -0.353 -10.246   3.764  0.00  0.00    -0.349 N 
ATOM     14  H10 <0> d          -0.425 -10.354   2.803  0.00  0.00     0.163 HD
BRANCH  13  15
ATOM     15  C13 <0> d          -0.443 -11.415   4.641  0.00  0.00     0.162 C 
BRANCH  15  16
ATOM     16  C14 <0> d          -0.648 -12.654   3.807  0.00  0.00    -0.034 A 
ATOM     17  C17 <0> d           0.416 -13.362   3.355  0.00  0.00     0.058 A 
ATOM     18  S1  <0> d          -0.377 -14.685   2.456  0.00  0.00    -0.113 SA
ATOM     19  C16 <0> d          -2.072 -14.200   2.736  0.00  0.00     0.050 A 
ATOM     20  C15 <0> d          -1.923 -13.082   3.488  0.00  0.00     0.016 A 
ENDBRANCH  15  16
ENDBRANCH  13  15
ENDBRANCH   8  11
ENDBRANCH   4   7
BRANCH   1  21
ATOM     21  N1  <0> d           0.011  -2.107   0.638  0.00  0.00    -0.217 N 
ATOM     22  C4  <0> d          -0.162  -2.105  -0.711  0.00  0.00     0.134 A 
ATOM     23  C3  <0> d          -0.122  -0.808  -1.125  0.00  0.00     0.079 A 
ATOM     24  C2  <0> d           0.080  -0.004  -0.000  0.00  0.00     0.055 A 
ATOM     25  C1  <0> d           0.187   1.499   0.001  0.00  0.00     0.072 C 
ATOM     26  N2  <0> d           0.165  -0.778   1.052  0.00  0.00    -0.171 NA
BRANCH  22  27
ATOM     27  N5  <0> d          -0.346  -3.224  -1.522  0.00  0.00    -0.312 N 
ATOM     28  C18 <0> d          -0.505  -3.075  -2.852  0.00  0.00     0.219 C 
ATOM     29  O3  <0> d          -0.488  -1.966  -3.344  0.00  0.00    -0.274 OA
ATOM     30  C19 <0> d          -0.704  -4.285  -3.727  0.00  0.00     0.117 C 
ATOM     31  H16 <0> d          -0.359  -4.111  -1.128  0.00  0.00     0.170 HD
ENDBRANCH  22  27
ENDBRANCH   1  21
TORSDOF 6
