REMARK  6 active torsions:
REMARK  status: ('A' for Active; 'I' for Inactive)
REMARK    1  A    between atoms: O1_2  and  C2_3 
REMARK    2  A    between atoms: C2_3  and  C3_5 
REMARK    3  A    between atoms: C6_8  and  C9_11 
REMARK    4  A    between atoms: C10_13  and  C20_26 
REMARK    5  A    between atoms: C12_15  and  C13_17 
REMARK    6  A    between atoms: C25_31  and  O5_32 
ROOT
ATOM      1  C9  <0> d          -1.413  -6.381  -0.019  0.00  0.00     0.341 C 
ATOM      2  N1  <0> d          -2.635  -6.820   0.664  0.00  0.00    -0.040 N 
ATOM      3  C10 <0> d          -2.529  -6.488   2.094  0.00  0.00     0.230 C 
ATOM      4  C11 <0> d          -1.449  -7.380   2.715  0.00  0.00     0.098 C 
ATOM      5  C12 <0> d          -0.220  -7.351   1.849  0.00  0.00     0.044 C 
ATOM      6  N2  <0> d          -0.230  -6.910   0.647  0.00  0.00    -0.255 NA
ATOM      7  H10 <0> d          -3.433  -6.348   0.265  0.00  0.00     0.281 HD
ATOM      8  H23 <0> d          -2.743  -7.817   0.555  0.00  0.00     0.281 HD
ENDROOT
BRANCH   1   9
ATOM      9  C6  <0> d          -1.354  -4.875  -0.011  0.00  0.00    -0.007 A 
ATOM     10  C5  <0> d          -0.129  -4.234  -0.014  0.00  0.00     0.012 A 
ATOM     11  C4  <0> d          -0.068  -2.856  -0.007  0.00  0.00     0.018 A 
ATOM     12  C3  <0> d          -1.247  -2.108   0.003  0.00  0.00     0.039 A 
ATOM     13  C8  <0> d          -2.481  -2.762   0.011  0.00  0.00     0.018 A 
ATOM     14  C7  <0> d          -2.527  -4.141  -0.002  0.00  0.00     0.012 A 
BRANCH  12  15
ATOM     15  C2  <0> d          -1.190  -0.632   0.010  0.00  0.00     0.292 C 
ATOM     16  O2  <0> d          -2.217   0.016   0.023  0.00  0.00    -0.259 OA
BRANCH  15  17
ATOM     17  O1  <0> d           0.002  -0.004   0.002  0.00  0.00    -0.323 OA
ATOM     18  C1  <0> d          -0.017   1.425   0.010  0.00  0.00     0.213 C 
ENDBRANCH  15  17
ENDBRANCH  12  15
ENDBRANCH   1   9
BRANCH   5  19
ATOM     19  C13 <0> d           1.049  -7.852   2.408  0.00  0.00    -0.009 A 
ATOM     20  C18 <0> d           2.210  -7.840   1.631  0.00  0.00     0.053 A 
ATOM     21  C17 <0> d           3.399  -8.305   2.160  0.00  0.00     0.105 A 
ATOM     22  C16 <0> d           3.435  -8.796   3.466  0.00  0.00     0.105 A 
ATOM     23  O3  <0> d           4.651  -8.397   1.625  0.00  0.00    -0.323 OA
ATOM     24  C15 <0> d           2.280  -8.813   4.235  0.00  0.00     0.040 A 
ATOM     25  O4  <0> d           4.710  -9.195   3.744  0.00  0.00    -0.323 OA
ATOM     26  C14 <0> d           1.093  -8.345   3.715  0.00  0.00     0.016 A 
ATOM     27  C19 <0> d           5.537  -8.567   2.747  0.00  0.00     0.352 C 
ENDBRANCH   5  19
BRANCH   3  28
ATOM     28  C20 <0> d          -3.850  -6.740   2.774  0.00  0.00     0.006 A 
ATOM     29  C25 <0> d          -4.176  -6.053   3.934  0.00  0.00     0.074 A 
ATOM     30  C24 <0> d          -5.396  -6.283   4.554  0.00  0.00     0.037 A 
ATOM     31  C23 <0> d          -6.278  -7.202   4.021  0.00  0.00     0.003 A 
ATOM     32  C22 <0> d          -5.948  -7.890   2.867  0.00  0.00     0.001 A 
ATOM     33  C21 <0> d          -4.736  -7.659   2.244  0.00  0.00     0.012 A 
BRANCH  29  34
ATOM     34  O5  <0> d          -3.304  -5.153   4.460  0.00  0.00    -0.360 OA
ATOM     35  H22 <0> d          -3.421  -4.252   4.129  0.00  0.00     0.217 HD
ENDBRANCH  29  34
ENDBRANCH   3  28
TORSDOF 6
