REMARK  7 active torsions:
REMARK  status: ('A' for Active; 'I' for Inactive)
REMARK    1  A    between atoms: C4_4  and  C7_7 
REMARK    2  A    between atoms: C7_7  and  C8_8 
REMARK    3  A    between atoms: C7_7  and  C14_14 
REMARK    4  A    between atoms: C7_7  and  O2_31 
REMARK    5  A    between atoms: C14_14  and  C15_15 
REMARK    6  A    between atoms: C14_14  and  N1_22 
REMARK    7  A    between atoms: C20_20  and  O1_21 
ROOT
ATOM      1  C14 <0> d           2.164  -2.079  -0.167  0.00  0.00     0.192 C 
ENDROOT
BRANCH   1   2
ATOM      2  C7  <0> d           2.642  -2.912  -1.358  0.00  0.00     0.139 C 
BRANCH   2   3
ATOM      3  C4  <0> d           3.414  -4.106  -0.859  0.00  0.00    -0.017 A 
ATOM      4  C3  <0> d           4.668  -4.381  -1.370  0.00  0.00     0.011 A 
ATOM      5  C2  <0> d           5.377  -5.476  -0.912  0.00  0.00     0.001 A 
ATOM      6  C1  <0> d           4.830  -6.297   0.057  0.00  0.00     0.000 A 
ATOM      7  C6  <0> d           3.575  -6.022   0.568  0.00  0.00     0.001 A 
ATOM      8  C5  <0> d           2.869  -4.923   0.114  0.00  0.00     0.011 A 
ENDBRANCH   2   3
BRANCH   2   9
ATOM      9  C8  <0> d           1.451  -3.380  -2.154  0.00  0.00    -0.017 A 
ATOM     10  C13 <0> d           1.567  -3.583  -3.517  0.00  0.00     0.011 A 
ATOM     11  C12 <0> d           0.475  -4.013  -4.247  0.00  0.00     0.001 A 
ATOM     12  C11 <0> d          -0.733  -4.240  -3.615  0.00  0.00     0.000 A 
ATOM     13  C10 <0> d          -0.849  -4.036  -2.252  0.00  0.00     0.001 A 
ATOM     14  C9  <0> d           0.244  -3.611  -1.521  0.00  0.00     0.011 A 
ENDBRANCH   2   9
BRANCH   2  15
ATOM     15  O2  <0> d           3.486  -2.112  -2.189  0.00  0.00    -0.377 OA
ATOM     16  H21 <0> d           4.327  -1.869  -1.778  0.00  0.00     0.211 HD
ENDBRANCH   2  15
ENDBRANCH   1   2
BRANCH   1  17
ATOM     17  C15 <0> d           3.341  -1.727   0.705  0.00  0.00     0.003 A 
ATOM     18  C20 <0> d           3.440  -2.253   1.984  0.00  0.00     0.074 A 
ATOM     19  C19 <0> d           4.528  -1.931   2.783  0.00  0.00     0.037 A 
ATOM     20  C18 <0> d           5.505  -1.079   2.306  0.00  0.00     0.003 A 
ATOM     21  C17 <0> d           5.402  -0.551   1.032  0.00  0.00     0.001 A 
ATOM     22  C16 <0> d           4.321  -0.875   0.233  0.00  0.00     0.012 A 
BRANCH  18  23
ATOM     23  O1  <0> d           2.475  -3.087   2.454  0.00  0.00    -0.360 OA
ATOM     24  H16 <0> d           2.593  -4.011   2.193  0.00  0.00     0.217 HD
ENDBRANCH  18  23
ENDBRANCH   1  17
BRANCH   1  25
ATOM     25  N1  <0> d           1.531  -0.851  -0.652  0.00  0.00    -0.236 N 
ATOM     26  N3  <0> d           2.129   0.150  -1.432  0.00  0.00    -0.064 NA
ATOM     27  N2  <0> d           1.270   1.079  -1.668  0.00  0.00    -0.130 NA
ATOM     28  C26 <0> d           0.089   0.783  -1.090  0.00  0.00     0.109 A 
ATOM     29  C21 <0> d           0.234  -0.452  -0.433  0.00  0.00     0.086 A 
ATOM     30  C25 <0> d          -1.145   1.444  -1.037  0.00  0.00     0.036 A 
ATOM     31  C22 <0> d          -0.844  -1.001   0.254  0.00  0.00     0.034 A 
ATOM     32  C23 <0> d          -2.038  -0.338   0.287  0.00  0.00     0.002 A 
ATOM     33  C24 <0> d          -2.187   0.882  -0.360  0.00  0.00     0.003 A 
ENDBRANCH   1  25
TORSDOF 7
