REMARK  3 active torsions:
REMARK  status: ('A' for Active; 'I' for Inactive)
REMARK    1  A    between atoms: C2_2  and  O1_3 
REMARK    2  A    between atoms: O1_3  and  N1_4 
REMARK    3  A    between atoms: C9_12  and  O3_15 
ROOT
ATOM      1  N1  <0> d           0.745  -1.875  -1.279  0.00  0.00    -0.179 N 
ATOM      2  C3  <0> d           1.837  -2.534  -0.726  0.00  0.00     0.141 A 
ATOM      3  C4  <0> d           1.953  -3.909  -0.809  0.00  0.00     0.092 A 
ATOM      4  C5  <0> d           0.907  -4.691  -1.482  0.00  0.00     0.101 A 
ATOM      5  C6  <0> d          -0.192  -3.997  -2.034  0.00  0.00     0.068 A 
ATOM      6  C7  <0> d          -0.246  -2.534  -1.906  0.00  0.00     0.284 A 
ATOM      7  O2  <0> d          -1.187  -1.917  -2.372  0.00  0.00    -0.265 OA
ATOM      8  C8  <0> d          -1.198  -4.716  -2.679  0.00  0.00     0.057 A 
ATOM      9  C9  <0> d          -1.068  -6.098  -2.748  0.00  0.00     0.086 A 
ATOM     10  C10 <0> d           0.046  -6.712  -2.179  0.00  0.00     0.154 A 
ATOM     11  N2  <0> d           0.981  -6.013  -1.575  0.00  0.00    -0.255 NA
ATOM     12  N3  <0> d           3.055  -4.541  -0.264  0.00  0.00    -0.372 N 
ATOM     13  C12 <0> d           4.308  -3.780  -0.146  0.00  0.00     0.161 C 
ATOM     14  C13 <0> d           4.005  -2.470   0.589  0.00  0.00     0.122 C 
ATOM     15  C14 <0> d           2.840  -1.783  -0.073  0.00  0.00     0.183 C 
ATOM     16  O4  <0> d           2.761  -0.571  -0.046  0.00  0.00    -0.291 OA
ATOM     17 Br1  <0> d           5.016  -3.388  -1.938  0.00  0.00    -0.068 Br
ATOM     18  H12 <0> d           3.003  -5.463   0.033  0.00  0.00     0.161 HD
ENDROOT
BRANCH   1  19
ATOM     19  O1  <0> d           0.671  -0.465  -1.174  0.00  0.00    -0.270 OA
BRANCH  19  20
ATOM     20  C2  <0> d           0.002  -0.004   0.002  0.00  0.00     0.197 C 
ATOM     21  C1  <0> d          -0.019   1.526   0.010  0.00  0.00     0.036 C 
ENDBRANCH  19  20
ENDBRANCH   1  19
BRANCH   9  22
ATOM     22  O3  <0> d          -2.021  -6.844  -3.366  0.00  0.00    -0.354 OA
ATOM     23  C11 <0> d          -1.818  -8.258  -3.397  0.00  0.00     0.210 C 
ENDBRANCH   9  22
TORSDOF 3
