REMARK  6 active torsions:
REMARK  status: ('A' for Active; 'I' for Inactive)
REMARK    1  A    between atoms: N1_5  and  C7_8 
REMARK    2  A    between atoms: C7_8  and  C8_9 
REMARK    3  A    between atoms: C7_8  and  C19_27 
REMARK    4  A    between atoms: C8_9  and  N2_10 
REMARK       I    between atoms: N2_10  and  C9_11 
REMARK    5  A    between atoms: C9_11  and  C10_13 
REMARK    6  A    between atoms: N4_19  and  C13_20 
ROOT
ATOM      1  N2  <0> d           2.228   2.143   1.281  0.00  0.00    -0.353 N 
ATOM      2  C9  <0> d           1.858   1.658   2.483  0.00  0.00     0.270 C 
ATOM      3  O1  <0> d           0.678   1.506   2.741  0.00  0.00    -0.266 OA
ATOM      4  H17 <0> d           3.288   2.357   1.077  0.00  0.00     0.162 HD
ENDROOT
BRANCH   1   5
ATOM      5  C8  <0> d           1.220   2.385   0.246  0.00  0.00     0.161 C 
BRANCH   5   6
ATOM      6  C7  <0> d           0.613   3.776   0.441  0.00  0.00     0.245 C 
BRANCH   6   7
ATOM      7  N1  <0> d          -0.457   3.985  -0.544  0.00  0.00    -0.061 N 
ATOM      8  C4  <0> d          -1.095   5.294  -0.358  0.00  0.00     0.236 C 
ATOM      9  C3  <0> d          -2.100   5.538  -1.486  0.00  0.00     0.032 C 
ATOM     10  C2  <0> d          -3.155   4.429  -1.472  0.00  0.00    -0.015 C 
ATOM     11  C1  <0> d          -4.128   4.634  -2.635  0.00  0.00     0.010 C 
ATOM     12  C6  <0> d          -2.460   3.072  -1.619  0.00  0.00     0.032 C 
ATOM     13  C5  <0> d          -1.445   2.900  -0.487  0.00  0.00     0.236 C 
ATOM     14  H26 <0> d          -0.003   3.973  -1.546  0.00  0.00     0.280 HD
ENDBRANCH   6   7
BRANCH   6  15
ATOM     15  C19 <0> d           1.681   4.821   0.252  0.00  0.00     0.015 A 
ATOM     16  S2  <0> d           2.353   5.481  -1.265  0.00  0.00    -0.104 SA
ATOM     17  C22 <0> d           3.521   6.624  -0.547  0.00  0.00     0.050 A 
ATOM     18  C21 <0> d           3.329   6.424   0.780  0.00  0.00     0.008 A 
ATOM     19  C20 <0> d           2.386   5.500   1.189  0.00  0.00     0.017 A 
ENDBRANCH   6  15
ENDBRANCH   5   6
ENDBRANCH   1   5
BRANCH   2  20
ATOM     20  C10 <0> d           2.876   1.315   3.481  0.00  0.00     0.125 A 
ATOM     21  N4  <0> d           4.262   1.323   3.289  0.00  0.00    -0.282 N 
ATOM     22  C12 <0> d           4.836   0.946   4.448  0.00  0.00     0.183 A 
ATOM     23  N3  <0> d           3.865   0.705   5.349  0.00  0.00    -0.340 N 
ATOM     24  S1  <0> d           6.519   0.798   4.728  0.00  0.00    -0.040 SA
ATOM     25  C11 <0> d           2.651   0.936   4.759  0.00  0.00     0.126 A 
ATOM     26  H2  <0> d           3.914   0.378   6.398  0.00  0.00     0.167 HD
BRANCH  21  27
ATOM     27  C13 <0> d           4.931   1.661   2.106  0.00  0.00     0.042 A 
ATOM     28  C18 <0> d           5.611   2.869   2.012  0.00  0.00     0.033 A 
ATOM     29  C17 <0> d           6.271   3.200   0.845  0.00  0.00     0.044 A 
ATOM     30  C16 <0> d           6.254   2.330  -0.232  0.00  0.00     0.116 A 
ATOM     31  C15 <0> d           5.577   1.125  -0.141  0.00  0.00     0.044 A 
ATOM     32  F1  <0> d           6.900   2.656  -1.373  0.00  0.00    -0.206 F 
ATOM     33  C14 <0> d           4.921   0.788   1.026  0.00  0.00     0.033 A 
ENDBRANCH  21  27
ENDBRANCH   2  20
TORSDOF 6
