REMARK  4 active torsions:
REMARK  status: ('A' for Active; 'I' for Inactive)
REMARK    1  A    between atoms: C2_2  and  C4_4 
REMARK    2  A    between atoms: C4_4  and  N1_5 
REMARK       I    between atoms: N1_5  and  C5_6 
REMARK    3  A    between atoms: C5_6  and  C6_8 
REMARK       I    between atoms: N2_10  and  C14_18 
REMARK    4  A    between atoms: C14_18  and  C15_20 
ROOT
ATOM      1  C6  <0> d          -2.638  -2.451  -2.803  0.00  0.00     0.106 C 
ATOM      2  C7  <0> d          -3.679  -3.366  -2.122  0.00  0.00     0.141 C 
ATOM      3  N2  <0> d          -4.604  -3.757  -3.212  0.00  0.00    -0.345 N 
ATOM      4  C8  <0> d          -3.722  -3.975  -4.383  0.00  0.00     0.136 C 
ATOM      5  C9  <0> d          -2.668  -2.854  -4.287  0.00  0.00    -0.007 C 
ATOM      6  C10 <0> d          -3.082  -1.665  -5.149  0.00  0.00     0.039 C 
ATOM      7  C11 <0> d          -3.050  -2.075  -6.624  0.00  0.00     0.233 C 
ATOM      8  N3  <0> d          -1.697  -2.516  -6.982  0.00  0.00    -0.075 N 
ATOM      9  C12 <0> d          -1.342  -3.716  -6.214  0.00  0.00     0.233 C 
ATOM     10  C13 <0> d          -1.302  -3.376  -4.721  0.00  0.00     0.039 C 
ATOM     11  C14 <0> d          -5.944  -3.886  -3.152  0.00  0.00     0.270 C 
ATOM     12  O2  <0> d          -6.548  -4.401  -4.074  0.00  0.00    -0.266 OA
ATOM     13  H18 <0> d          -1.663  -2.728  -7.968  0.00  0.00     0.277 HD
ATOM     14  H29 <0> d          -1.039  -1.780  -6.776  0.00  0.00     0.277 HD
ENDROOT
BRANCH   1  15
ATOM     15  C5  <0> d          -1.268  -2.691  -2.222  0.00  0.00     0.224 C 
ATOM     16  N1  <0> d          -0.326  -1.730  -2.296  0.00  0.00    -0.357 N 
ATOM     17  H9  <0> d          -0.530  -0.883  -2.724  0.00  0.00     0.162 HD
ATOM     18  O1  <0> d          -1.014  -3.749  -1.688  0.00  0.00    -0.273 OA
BRANCH  16  19
ATOM     19  C4  <0> d           1.005  -1.964  -1.731  0.00  0.00     0.155 C 
BRANCH  19  20
ATOM     20  C2  <0> d           1.862  -0.743  -1.944  0.00  0.00    -0.075 C 
ATOM     21  C1  <0> d           2.604  -0.560  -3.244  0.00  0.00     0.044 C 
ATOM     22  C3  <0> d           1.963   0.160  -1.000  0.00  0.00     0.015 C 
ENDBRANCH  19  20
ENDBRANCH  16  19
ENDBRANCH   1  15
BRANCH  11  23
ATOM     23  C15 <0> d          -6.675  -3.405  -1.975  0.00  0.00     0.102 A 
ATOM     24  N4  <0> d          -7.954  -3.760  -1.610  0.00  0.00    -0.357 N 
ATOM     25  C18 <0> d          -8.275  -3.109  -0.465  0.00  0.00     0.091 A 
ATOM     26  C19 <0> d          -8.823  -4.689  -2.336  0.00  0.00     0.156 C 
ATOM     27  C17 <0> d          -7.227  -2.335  -0.093  0.00  0.00     0.020 A 
ATOM     28  C16 <0> d          -6.209  -2.510  -1.035  0.00  0.00     0.037 A 
ENDBRANCH  11  23
TORSDOF 4
