REMARK  6 active torsions:
REMARK  status: ('A' for Active; 'I' for Inactive)
REMARK    1  A    between atoms: C2_2  and  C9_13 
REMARK    2  A    between atoms: N1_3  and  N2_4 
REMARK       I    between atoms: N2_4  and  C3_5 
REMARK    3  A    between atoms: C3_5  and  C4_7 
REMARK    4  A    between atoms: C11_15  and  O4_23 
REMARK    5  A    between atoms: C12_16  and  O3_21 
REMARK    6  A    between atoms: C13_17  and  O2_19 
ROOT
ATOM      1  C1  <0> d          -0.018   1.503   0.010  0.00  0.00     0.073 C 
ATOM      2  C2  <0> d           0.002  -0.004   0.002  0.00  0.00     0.061 C 
ATOM      3  N1  <0> d           0.022  -0.659   1.123  0.00  0.00    -0.176 NA
ENDROOT
BRANCH   2   4
ATOM      4  C9  <0> d          -0.000  -0.734  -1.278  0.00  0.00    -0.005 A 
ATOM      5  C14 <0> d           0.019  -2.131  -1.288  0.00  0.00     0.053 A 
ATOM      6  C13 <0> d           0.012  -2.813  -2.491  0.00  0.00     0.105 A 
ATOM      7  C12 <0> d          -0.003  -2.110  -3.691  0.00  0.00     0.135 A 
ATOM      8  C11 <0> d          -0.017  -0.718  -3.686  0.00  0.00     0.105 A 
ATOM      9  C10 <0> d          -0.015  -0.030  -2.486  0.00  0.00     0.053 A 
BRANCH   6  10
ATOM     10  O2  <0> d           0.025  -4.173  -2.501  0.00  0.00    -0.353 OA
ATOM     11  C15 <0> d           0.040  -4.831  -1.232  0.00  0.00     0.210 C 
ENDBRANCH   6  10
BRANCH   7  12
ATOM     12  O3  <0> d          -0.005  -2.784  -4.873  0.00  0.00    -0.351 OA
ATOM     13  C16 <0> d           1.267  -3.092  -5.446  0.00  0.00     0.210 C 
ENDBRANCH   7  12
BRANCH   8  14
ATOM     14  O4  <0> d          -0.032  -0.034  -4.861  0.00  0.00    -0.353 OA
ATOM     15  C17 <0> d          -0.046   1.393  -4.781  0.00  0.00     0.210 C 
ENDBRANCH   8  14
ENDBRANCH   2   4
BRANCH   3  16
ATOM     16  N2  <0> d           0.024   0.035   2.340  0.00  0.00    -0.243 N 
ATOM     17  C3  <0> d           0.044  -0.645   3.503  0.00  0.00     0.271 C 
ATOM     18  O1  <0> d           0.060  -1.861   3.497  0.00  0.00    -0.266 OA
ATOM     19  H4  <0> d           0.011   1.005   2.345  0.00  0.00     0.192 HD
BRANCH  17  20
ATOM     20  C4  <0> d           0.046   0.088   4.790  0.00  0.00     0.036 A 
ATOM     21  C8  <0> d           0.067  -0.598   6.008  0.00  0.00     0.036 A 
ATOM     22  C7  <0> d           0.074   0.126   7.184  0.00  0.00     0.117 A 
ATOM     23  N3  <0> d           0.050   1.444   7.168  0.00  0.00    -0.273 NA
ATOM     24  C6  <0> d           0.025   2.130   6.042  0.00  0.00     0.117 A 
ATOM     25  C5  <0> d           0.022   1.486   4.820  0.00  0.00     0.036 A 
ENDBRANCH  17  20
ENDBRANCH   3  16
TORSDOF 6
