REMARK  7 active torsions:
REMARK  status: ('A' for Active; 'I' for Inactive)
REMARK    1  A    between atoms: N1_2  and  S1_3 
REMARK    2  A    between atoms: S1_3  and  C2_6 
REMARK    3  A    between atoms: C5_9  and  C6_11 
REMARK    4  A    between atoms: C6_11  and  N2_12 
REMARK    5  A    between atoms: N2_12  and  C7_13 
REMARK    6  A    between atoms: C7_13  and  C8_14 
REMARK    7  A    between atoms: C10_17  and  C11_19 
ROOT
ATOM      1  N2  <0> d          -0.958   0.485   7.416  0.00  0.00    -0.066 N 
ATOM      2  H9  <0> d          -1.157  -0.502   7.478  0.00  0.00     0.277 HD
ATOM      3  H18 <0> d           0.032   0.621   7.280  0.00  0.00     0.277 HD
ENDROOT
BRANCH   1   4
ATOM      4  C6  <0> d          -1.692   1.063   6.282  0.00  0.00     0.278 C 
BRANCH   4   5
ATOM      5  C5  <0> d          -1.262   0.384   5.007  0.00  0.00     0.009 A 
ATOM      6  C4  <0> d          -1.779  -0.719   4.412  0.00  0.00     0.018 A 
ATOM      7  C3  <0> d          -1.217  -1.168   3.231  0.00  0.00     0.034 A 
ATOM      8  C2  <0> d          -0.166  -0.494   2.705  0.00  0.00     0.120 A 
ATOM      9  S2  <0> d           0.064   0.818   3.894  0.00  0.00    -0.080 SA
BRANCH   8  10
ATOM     10  S1  <0> d           0.742  -0.829   1.233  0.00  0.00     0.265 S 
ATOM     11  O1  <0> d           0.570  -2.212   0.955  0.00  0.00    -0.200 OA
ATOM     12  O2  <0> d           2.024  -0.240   1.403  0.00  0.00    -0.200 OA
BRANCH  10  13
ATOM     13  N1  <0> d           0.002  -0.004   0.002  0.00  0.00    -0.319 N 
ATOM     14  C1  <0> d          -0.018   1.461   0.010  0.00  0.00     0.159 C 
ATOM     15  H4  <0> d          -0.418  -0.491  -0.724  0.00  0.00     0.171 HD
ENDBRANCH  10  13
ENDBRANCH   8  10
ENDBRANCH   4   5
ENDBRANCH   1   4
BRANCH   1  16
ATOM     16  C7  <0> d          -1.377   1.148   8.659  0.00  0.00     0.280 C 
BRANCH  16  17
ATOM     17  C8  <0> d          -0.625   0.555   9.822  0.00  0.00     0.028 A 
ATOM     18  S3  <0> d          -1.048  -0.832  10.869  0.00  0.00    -0.071 SA
ATOM     19  C10 <0> d           0.402  -0.766  11.914  0.00  0.00     0.107 A 
ATOM     20  N3  <0> d           1.047   0.269  11.395  0.00  0.00    -0.252 NA
ATOM     21  C9  <0> d           0.562   0.930  10.370  0.00  0.00     0.134 A 
BRANCH  19  22
ATOM     22  C11 <0> d           0.777  -1.631  13.053  0.00  0.00    -0.000 A 
ATOM     23  C16 <0> d           1.966  -1.399  13.746  0.00  0.00     0.014 A 
ATOM     24  C15 <0> d           2.307  -2.206  14.812  0.00  0.00     0.001 A 
ATOM     25  C14 <0> d           1.479  -3.249  15.187  0.00  0.00     0.000 A 
ATOM     26  C13 <0> d           0.302  -3.487  14.501  0.00  0.00     0.001 A 
ATOM     27  C12 <0> d          -0.054  -2.684  13.437  0.00  0.00     0.014 A 
ENDBRANCH  19  22
ENDBRANCH  16  17
ENDBRANCH   1  16
TORSDOF 7
