REMARK  6 active torsions:
REMARK  status: ('A' for Active; 'I' for Inactive)
REMARK    1  A    between atoms: C7_7  and  N1_8 
REMARK       I    between atoms: N1_8  and  C8_9 
REMARK    2  A    between atoms: C8_9  and  C9_11 
REMARK    3  A    between atoms: C9_11  and  N2_13 
REMARK    4  A    between atoms: C13_17  and  C14_18 
REMARK    5  A    between atoms: C17_21  and  O4_25 
REMARK    6  A    between atoms: C19_23  and  O3_24 
ROOT
ATOM      1  N2  <0> d          -3.455  -2.501  -0.297  0.00  0.00    -0.284 N 
ATOM      2  C11 <0> d          -3.858  -3.162  -1.368  0.00  0.00     0.267 A 
ATOM      3  O2  <0> d          -4.470  -2.611  -2.266  0.00  0.00    -0.266 OA
ATOM      4  C12 <0> d          -3.527  -4.597  -1.425  0.00  0.00     0.076 A 
ATOM      5  C13 <0> d          -3.806  -5.513  -2.389  0.00  0.00     0.038 C 
ATOM      6  S1  <0> d          -2.663  -4.803   0.127  0.00  0.00    -0.055 SA
ATOM      7  C20 <0> d          -2.782  -3.115   0.698  0.00  0.00     0.149 A 
ATOM      8  S2  <0> d          -2.185  -2.440   2.154  0.00  0.00    -0.052 SA
ENDROOT
BRANCH   1   9
ATOM      9  C9  <0> d          -3.750  -1.070  -0.184  0.00  0.00     0.182 C 
ATOM     10  C10 <0> d          -4.602  -0.822   1.062  0.00  0.00     0.043 C 
BRANCH   9  11
ATOM     11  C8  <0> d          -2.460  -0.298  -0.073  0.00  0.00     0.245 C 
ATOM     12  N1  <0> d          -2.486   1.044   0.042  0.00  0.00    -0.325 N 
ATOM     13  H9  <0> d          -3.334   1.507   0.137  0.00  0.00     0.169 HD
ATOM     14  O1  <0> d          -1.399  -0.885  -0.086  0.00  0.00    -0.271 OA
BRANCH  12  15
ATOM     15  C7  <0> d          -1.291   1.772   0.023  0.00  0.00     0.040 A 
ATOM     16  C2  <0> d          -1.224   3.017   0.634  0.00  0.00    -0.035 A 
ATOM     17  C1  <0> d          -2.439   3.586   1.320  0.00  0.00     0.050 C 
ATOM     18  C3  <0> d          -0.044   3.735   0.609  0.00  0.00     0.009 A 
ATOM     19  C4  <0> d           1.071   3.212  -0.019  0.00  0.00     0.001 A 
ATOM     20  C5  <0> d           1.010   1.970  -0.624  0.00  0.00     0.002 A 
ATOM     21  C6  <0> d          -0.167   1.247  -0.602  0.00  0.00     0.030 A 
ENDBRANCH  12  15
ENDBRANCH   9  11
ENDBRANCH   1   9
BRANCH   5  22
ATOM     22  C14 <0> d          -3.487  -6.928  -2.170  0.00  0.00    -0.001 A 
ATOM     23  C19 <0> d          -3.269  -7.780  -3.267  0.00  0.00     0.078 A 
ATOM     24  C18 <0> d          -2.968  -9.113  -3.050  0.00  0.00     0.073 A 
ATOM     25  C17 <0> d          -2.884  -9.605  -1.756  0.00  0.00     0.068 A 
ATOM     26  C16 <0> d          -3.099  -8.764  -0.668  0.00  0.00     0.037 A 
ATOM     27  C15 <0> d          -3.393  -7.435  -0.868  0.00  0.00     0.017 A 
BRANCH  23  28
ATOM     28  O3  <0> d          -3.353  -7.298  -4.532  0.00  0.00    -0.360 OA
ATOM     29  H17 <0> d          -2.516  -6.960  -4.881  0.00  0.00     0.217 HD
ENDBRANCH  23  28
BRANCH  25  30
ATOM     30  O4  <0> d          -2.589 -10.914  -1.549  0.00  0.00    -0.361 OA
ATOM     31  H18 <0> d          -1.643 -11.097  -1.470  0.00  0.00     0.217 HD
ENDBRANCH  25  30
ENDBRANCH   5  22
TORSDOF 6
