REMARK  3 active torsions:
REMARK  status: ('A' for Active; 'I' for Inactive)
REMARK    1  A    between atoms: C2_2  and  C4_4 
REMARK    2  A    between atoms: C5_6  and  C6_9 
REMARK    3  A    between atoms: C6_9  and  N3_10 
ROOT
ATOM      1  N3  <0> d          -4.033  -3.823  -0.999  0.00  0.00    -0.260 N 
ATOM      2  C7  <0> d          -3.173  -4.711  -1.537  0.00  0.00     0.257 A 
ATOM      3  O2  <0> d          -2.376  -4.511  -2.428  0.00  0.00    -0.270 OA
ATOM      4  C8  <0> d          -3.409  -6.009  -0.794  0.00  0.00     0.125 A 
ATOM      5  C9  <0> d          -3.895  -7.086  -1.762  0.00  0.00     0.052 C 
ATOM      6  C10 <0> d          -2.689  -7.898  -2.311  0.00  0.00     0.077 C 
ATOM      7  S1  <0> d          -1.672  -8.019  -0.774  0.00  0.00    -0.166 SA
ATOM      8  C11 <0> d          -2.132  -6.399  -0.027  0.00  0.00     0.115 C 
ATOM      9  N4  <0> d          -4.473  -5.673   0.166  0.00  0.00    -0.324 N 
ATOM     10  C12 <0> d          -4.767  -4.374  -0.026  0.00  0.00     0.326 A 
ATOM     11  O3  <0> d          -5.608  -3.770   0.611  0.00  0.00    -0.247 OA
ATOM     12  H16 <0> d          -4.880  -6.270   0.813  0.00  0.00     0.165 HD
ENDROOT
BRANCH   1  13
ATOM     13  C6  <0> d          -4.145  -2.425  -1.424  0.00  0.00     0.225 C 
BRANCH  13  14
ATOM     14  C5  <0> d          -3.197  -1.577  -0.615  0.00  0.00     0.191 A 
ATOM     15  N1  <0> d          -1.960  -1.305  -0.926  0.00  0.00    -0.207 NA
ATOM     16  C4  <0> d          -1.412  -0.526   0.013  0.00  0.00     0.159 A 
ATOM     17  N2  <0> d          -2.296  -0.296   0.940  0.00  0.00    -0.111 NA
ATOM     18  O1  <0> d          -3.481  -0.973   0.546  0.00  0.00    -0.194 OA
BRANCH  16  19
ATOM     19  C2  <0> d           0.002  -0.004   0.002  0.00  0.00     0.051 C 
ATOM     20  C1  <0> d          -0.019   1.526   0.010  0.00  0.00     0.018 C 
ATOM     21  C3  <0> d           0.742  -0.511   1.242  0.00  0.00     0.018 C 
ENDBRANCH  16  19
ENDBRANCH  13  14
ENDBRANCH   1  13
TORSDOF 3
