REMARK  4 active torsions:
REMARK  status: ('A' for Active; 'I' for Inactive)
REMARK    1  A    between atoms: C2_2  and  N2_6 
REMARK       I    between atoms: N2_6  and  C5_7 
REMARK    2  A    between atoms: C5_7  and  C6_9 
REMARK    3  A    between atoms: C9_12  and  S1_15 
REMARK    4  A    between atoms: S1_15  and  C12_18 
ROOT
ATOM      1  C1  <0> d          -0.019   1.526   0.010  0.00  0.00     0.055 C 
ATOM      2  C2  <0> d           0.002  -0.004   0.002  0.00  0.00     0.115 C 
ATOM      3  C3  <0> d           0.742  -0.511   1.242  0.00  0.00     0.055 C 
ATOM      4  C4  <0> d          -1.379  -0.514   0.013  0.00  0.00     0.090 C 
ATOM      5  N1  <0> d          -2.445  -0.907   0.021  0.00  0.00    -0.195 NA
ENDROOT
BRANCH   2   6
ATOM      6  N2  <0> d           0.688  -0.476  -1.203  0.00  0.00    -0.336 N 
ATOM      7  C5  <0> d           1.972  -0.132  -1.427  0.00  0.00     0.253 C 
ATOM      8  O1  <0> d           2.560   0.570  -0.629  0.00  0.00    -0.268 OA
ATOM      9  H8  <0> d           0.218  -1.037  -1.840  0.00  0.00     0.164 HD
BRANCH   7  10
ATOM     10  C6  <0> d           2.663  -0.609  -2.643  0.00  0.00     0.032 A 
ATOM     11  C11 <0> d           3.993  -0.254  -2.878  0.00  0.00     0.018 A 
ATOM     12  C10 <0> d           4.635  -0.707  -4.012  0.00  0.00     0.024 A 
ATOM     13  C9  <0> d           3.959  -1.502  -4.922  0.00  0.00     0.059 A 
ATOM     14  C8  <0> d           2.640  -1.852  -4.698  0.00  0.00     0.024 A 
ATOM     15  C7  <0> d           1.988  -1.411  -3.565  0.00  0.00     0.018 A 
BRANCH  13  16
ATOM     16  S1  <0> d           4.784  -2.070  -6.372  0.00  0.00     0.180 S 
ATOM     17  O2  <0> d           6.161  -2.091  -6.021  0.00  0.00    -0.222 OA
ATOM     18  O3  <0> d           4.109  -3.269  -6.727  0.00  0.00    -0.222 OA
BRANCH  16  19
ATOM     19  C12 <0> d           4.476  -0.787  -7.617  0.00  0.00     0.128 C 
ATOM     20  C15 <0> d           5.053  -1.237  -8.989  0.00  0.00     0.160 C 
ATOM     21  S2  <0> d           4.113  -0.137 -10.128  0.00  0.00     0.145 S 
ATOM     22  C14 <0> d           2.680   0.268  -9.048  0.00  0.00     0.142 C 
ATOM     23  O4  <0> d           3.655  -0.900 -11.236  0.00  0.00    -0.228 OA
ATOM     24  O5  <0> d           4.867   1.046 -10.358  0.00  0.00    -0.228 OA
ATOM     25  C13 <0> d           2.961  -0.577  -7.781  0.00  0.00     0.036 C 
ENDBRANCH  16  19
ENDBRANCH  13  16
ENDBRANCH   7  10
ENDBRANCH   2   6
TORSDOF 4
