REMARK  6 active torsions:
REMARK  status: ('A' for Active; 'I' for Inactive)
REMARK    1  A    between atoms: C5_5  and  N3_20 
REMARK    2  A    between atoms: C7_7  and  C8_8 
REMARK       I    between atoms: C8_8  and  N1_10 
REMARK    3  A    between atoms: N1_10  and  C9_11 
REMARK    4  A    between atoms: C9_11  and  C10_12 
REMARK    5  A    between atoms: C10_12  and  C12_14 
REMARK    6  A    between atoms: C12_14  and  N2_15 
ROOT
ATOM      1  C8  <0> d           1.239  -1.819   1.349  0.00  0.00     0.222 C 
ATOM      2  O1  <0> d           0.768  -2.343   0.362  0.00  0.00    -0.273 OA
ATOM      3  N1  <0> d           1.698  -2.579   2.362  0.00  0.00    -0.360 N 
ATOM      4  H14 <0> d           2.075  -2.160   3.151  0.00  0.00     0.162 HD
ENDROOT
BRANCH   1   5
ATOM      5  C7  <0> d           1.310  -0.316   1.442  0.00  0.00     0.083 C 
ATOM      6  C2  <0> d           0.727   0.302   0.170  0.00  0.00    -0.005 C 
ATOM      7  C1  <0> d           0.799   1.828   0.265  0.00  0.00     0.011 C 
ATOM      8  C3  <0> d           1.531  -0.172  -1.042  0.00  0.00     0.007 C 
ATOM      9  C4  <0> d           2.990   0.261  -0.887  0.00  0.00     0.033 C 
ATOM     10  C5  <0> d           3.573  -0.358   0.385  0.00  0.00     0.184 C 
ATOM     11  C6  <0> d           2.769   0.116   1.597  0.00  0.00     0.047 C 
BRANCH  10  12
ATOM     12  N3  <0> d           4.974   0.058   0.534  0.00  0.00    -0.075 N 
ATOM     13  H30 <0> d           5.022   1.063   0.596  0.00  0.00     0.274 HD
ATOM     14  H31 <0> d           5.359  -0.350   1.373  0.00  0.00     0.274 HD
ATOM     15  H33 <0> d           5.505  -0.255  -0.266  0.00  0.00     0.274 HD
ENDBRANCH  10  12
ENDBRANCH   1   5
BRANCH   3  16
ATOM     16  C9  <0> d           1.629  -4.040   2.271  0.00  0.00     0.128 C 
BRANCH  16  17
ATOM     17  C10 <0> d           2.212  -4.659   3.543  0.00  0.00     0.025 C 
ATOM     18  C11 <0> d           1.334  -4.285   4.740  0.00  0.00     0.013 C 
BRANCH  17  19
ATOM     19  C12 <0> d           2.254  -6.181   3.397  0.00  0.00     0.240 C 
BRANCH  19  20
ATOM     20  N2  <0> d           3.201  -6.545   2.334  0.00  0.00    -0.071 N 
ATOM     21  C16 <0> d           3.159  -8.003   2.090  0.00  0.00     0.235 C 
ATOM     22  C15 <0> d           4.594  -8.446   1.752  0.00  0.00     0.029 C 
ATOM     23  C14 <0> d           5.447  -7.160   1.851  0.00  0.00     0.029 C 
ATOM     24  C13 <0> d           4.591  -6.245   2.762  0.00  0.00     0.235 C 
ATOM     25  H32 <0> d           2.981  -6.044   1.486  0.00  0.00     0.279 HD
ENDBRANCH  19  20
ENDBRANCH  17  19
ENDBRANCH  16  17
ENDBRANCH   3  16
TORSDOF 6
