REMARK  3 active torsions:
REMARK  status: ('A' for Active; 'I' for Inactive)
REMARK    1  A    between atoms: C7_9  and  C14_18 
REMARK       I    between atoms: C14_18  and  N4_20 
REMARK    2  A    between atoms: N4_20  and  C15_21 
REMARK    3  A    between atoms: C15_21  and  C16_22 
ROOT
ATOM      1  C1  <0> d          -3.587   0.563   2.685  0.00  0.00     0.269 C 
ATOM      2  N1  <0> d          -2.742   0.603   1.484  0.00  0.00    -0.073 N 
ATOM      3  C2  <0> d          -1.996   1.851   1.412  0.00  0.00     0.242 C 
ATOM      4  C3  <0> d          -1.369   2.044   0.033  0.00  0.00     0.106 C 
ATOM      5  C4  <0> d          -0.017   1.365   0.009  0.00  0.00     0.111 A 
ATOM      6  N2  <0> d           1.067   2.078   0.003  0.00  0.00    -0.234 NA
ATOM      7  C5  <0> d           2.300   1.512  -0.003  0.00  0.00     0.075 A 
ATOM      8  C6  <0> d           3.460   2.289  -0.005  0.00  0.00     0.049 A 
ATOM      9  C7  <0> d           4.701   1.664  -0.008  0.00  0.00     0.034 A 
ATOM     10  C8  <0> d           4.793   0.267  -0.009  0.00  0.00     0.018 A 
ATOM     11  C9  <0> d           3.665  -0.503  -0.008  0.00  0.00     0.020 A 
ATOM     12  C10 <0> d           2.411   0.104  -0.006  0.00  0.00     0.061 A 
ATOM     13  C11 <0> d           1.166  -0.684  -0.005  0.00  0.00     0.261 A 
ATOM     14  O1  <0> d           1.187  -1.900  -0.012  0.00  0.00    -0.267 OA
ATOM     15  N3  <0> d           0.002  -0.004   0.002  0.00  0.00    -0.300 N 
ATOM     16  C12 <0> d          -1.283  -0.715   0.000  0.00  0.00     0.161 C 
ATOM     17  C13 <0> d          -1.919  -0.595   1.385  0.00  0.00     0.254 C 
ATOM     18  H21 <0> d          -3.374   0.593   0.584  0.00  0.00     0.279 HD
ENDROOT
BRANCH   9  19
ATOM     19  C14 <0> d           5.935   2.481  -0.009  0.00  0.00     0.251 C 
ATOM     20  O2  <0> d           5.861   3.694  -0.008  0.00  0.00    -0.268 OA
ATOM     21  N4  <0> d           7.141   1.880  -0.011  0.00  0.00    -0.353 N 
ATOM     22  H15 <0> d           7.209   0.782  -0.011  0.00  0.00     0.163 HD
BRANCH  21  23
ATOM     23  C15 <0> d           8.363   2.689  -0.012  0.00  0.00     0.149 C 
BRANCH  23  24
ATOM     24  C16 <0> d           9.566   1.782  -0.014  0.00  0.00    -0.018 C 
ATOM     25  C17 <0> d          10.480   1.907  -0.944  0.00  0.00     0.008 C 
ENDBRANCH  23  24
ENDBRANCH  21  23
ENDBRANCH   9  19
TORSDOF 3
