REMARK  5 active torsions:
REMARK  status: ('A' for Active; 'I' for Inactive)
REMARK    1  A    between atoms: C6_9  and  C7_10 
REMARK    2  A    between atoms: C7_10  and  N2_11 
REMARK       I    between atoms: N2_11  and  C8_12 
REMARK       I    between atoms: C8_12  and  N3_14 
REMARK    3  A    between atoms: N3_14  and  C9_15 
REMARK    4  A    between atoms: C9_15  and  C10_16 
REMARK    5  A    between atoms: C10_16  and  N4_21 
ROOT
ATOM      1  N2  <0> d          -1.082   0.049   3.337  0.00  0.00    -0.339 N 
ATOM      2  C8  <0> d          -1.426   0.702   4.464  0.00  0.00     0.316 C 
ATOM      3  O2  <0> d          -0.566   1.186   5.174  0.00  0.00    -0.247 OA
ATOM      4  N3  <0> d          -2.725   0.819   4.805  0.00  0.00    -0.341 N 
ATOM      5  H8  <0> d          -1.768  -0.337   2.770  0.00  0.00     0.164 HD
ATOM      6  H9  <0> d          -3.412   0.433   4.239  0.00  0.00     0.164 HD
ENDROOT
BRANCH   1   7
ATOM      7  C7  <0> d           0.330  -0.078   2.966  0.00  0.00     0.169 C 
BRANCH   7   8
ATOM      8  C6  <0> d           0.443  -0.846   1.674  0.00  0.00     0.034 A 
ATOM      9  C2  <0> d           0.529  -0.184   0.485  0.00  0.00    -0.047 A 
ATOM     10  C1  <0> d           0.513   1.323   0.448  0.00  0.00     0.049 C 
ATOM     11  C3  <0> d           0.639  -0.920  -0.703  0.00  0.00     0.032 A 
ATOM     12  C4  <0> d           0.653  -2.273  -0.661  0.00  0.00     0.009 A 
ATOM     13  N1  <0> d           0.562  -2.930   0.524  0.00  0.00    -0.327 N 
ATOM     14  C19 <0> d           0.771  -3.058  -1.942  0.00  0.00     0.068 C 
ATOM     15  H1  <0> d           0.574  -3.900   0.536  0.00  0.00     0.169 HD
ATOM     16  C5  <0> d           0.456  -2.251   1.682  0.00  0.00     0.254 A 
ATOM     17  O1  <0> d           0.375  -2.856   2.739  0.00  0.00    -0.268 OA
ENDBRANCH   7   8
ENDBRANCH   1   7
BRANCH   4  18
ATOM     18  C9  <0> d          -3.100   1.529   6.030  0.00  0.00     0.163 C 
BRANCH  18  19
ATOM     19  C10 <0> d          -4.622   1.517   6.182  0.00  0.00     0.143 C 
ATOM     20  C14 <0> d          -5.271   2.330   5.047  0.00  0.00     0.041 C 
ATOM     21  C13 <0> d          -6.048   3.481   5.718  0.00  0.00     0.003 C 
ATOM     22  C12 <0> d          -5.351   3.661   7.090  0.00  0.00     0.003 C 
ATOM     23  C11 <0> d          -5.027   2.204   7.502  0.00  0.00     0.041 C 
BRANCH  19  24
ATOM     24  N4  <0> d          -5.119   0.135   6.159  0.00  0.00    -0.059 N 
ATOM     25  C18 <0> d          -4.507  -0.613   7.259  0.00  0.00     0.246 C 
ATOM     26  C17 <0> d          -4.708  -2.117   7.040  0.00  0.00     0.101 C 
ATOM     27  S1  <0> d          -6.496  -2.461   7.048  0.00  0.00    -0.166 SA
ATOM     28  C16 <0> d          -7.144  -1.222   5.882  0.00  0.00     0.101 C 
ATOM     29  C15 <0> d          -6.579   0.148   6.273  0.00  0.00     0.246 C 
ATOM     30  H31 <0> d          -4.861  -0.294   5.283  0.00  0.00     0.281 HD
ENDBRANCH  19  24
ENDBRANCH  18  19
ENDBRANCH   4  18
TORSDOF 5
