REMARK  9 active torsions:
REMARK  status: ('A' for Active; 'I' for Inactive)
REMARK    1  A    between atoms: N1_9  and  C18_25 
REMARK    2  A    between atoms: C8_10  and  S1_12 
REMARK    3  A    between atoms: S1_12  and  C9_13 
REMARK    4  A    between atoms: C9_13  and  C10_14 
REMARK       I    between atoms: C10_14  and  N3_16 
REMARK    5  A    between atoms: N3_16  and  C11_17 
REMARK    6  A    between atoms: C14_20  and  C17_23 
REMARK    7  A    between atoms: C18_25  and  C19_26 
REMARK    8  A    between atoms: C19_26  and  C20_27 
REMARK    9  A    between atoms: C20_27  and  O4_28 
ROOT
ATOM      1  C1  <0> d           2.409   1.326   0.031  0.00  0.00     0.001 A 
ATOM      2  C2  <0> d           1.199   1.994  -0.105  0.00  0.00     0.002 A 
ATOM      3  C3  <0> d           0.013   1.318  -0.055  0.00  0.00     0.032 A 
ATOM      4  C4  <0> d           0.013  -0.067   0.136  0.00  0.00     0.075 A 
ATOM      5  C5  <0> d           1.246  -0.744   0.274  0.00  0.00     0.061 A 
ATOM      6  C6  <0> d           2.442  -0.029   0.218  0.00  0.00     0.019 A 
ATOM      7  C7  <0> d           1.220  -2.199   0.473  0.00  0.00     0.262 A 
ATOM      8  O1  <0> d           2.249  -2.837   0.599  0.00  0.00    -0.267 OA
ATOM      9  N1  <0> d           0.010  -2.803   0.513  0.00  0.00    -0.292 N 
ATOM     10  C8  <0> d          -1.134  -2.071   0.370  0.00  0.00     0.172 A 
ATOM     11  N2  <0> d          -1.134  -0.773   0.192  0.00  0.00    -0.224 NA
ENDROOT
BRANCH  10  12
ATOM     12  S1  <0> d          -2.682  -2.910   0.430  0.00  0.00    -0.082 SA
BRANCH  12  13
ATOM     13  C9  <0> d          -3.807  -1.512   0.196  0.00  0.00     0.185 C 
BRANCH  13  14
ATOM     14  C10 <0> d          -5.231  -2.006   0.212  0.00  0.00     0.231 C 
ATOM     15  O2  <0> d          -5.462  -3.186   0.366  0.00  0.00    -0.272 OA
ATOM     16  N3  <0> d          -6.248  -1.135   0.055  0.00  0.00    -0.327 N 
ATOM     17  H7  <0> d          -6.068  -0.183   0.008  0.00  0.00     0.169 HD
BRANCH  16  18
ATOM     18  C11 <0> d          -7.558  -1.603  -0.041  0.00  0.00     0.034 A 
ATOM     19  C16 <0> d          -8.605  -0.845   0.476  0.00  0.00     0.030 A 
ATOM     20  C15 <0> d          -9.899  -1.304   0.383  0.00  0.00     0.020 A 
ATOM     21  C14 <0> d         -10.162  -2.532  -0.231  0.00  0.00     0.041 A 
ATOM     22  C13 <0> d          -9.107  -3.290  -0.749  0.00  0.00     0.020 A 
ATOM     23  C12 <0> d          -7.816  -2.823  -0.657  0.00  0.00     0.030 A 
BRANCH  21  24
ATOM     24  C17 <0> d         -11.547  -3.026  -0.332  0.00  0.00     0.209 C 
ATOM     25  O3  <0> d         -12.462  -2.366   0.119  0.00  0.00    -0.644 OA
ATOM     26  O5  <0> d         -11.799  -4.210  -0.924  0.00  0.00    -0.644 OA
ENDBRANCH  21  24
ENDBRANCH  16  18
ENDBRANCH  13  14
ENDBRANCH  12  13
ENDBRANCH  10  12
BRANCH   9  27
ATOM     27  C18 <0> d          -0.074  -4.252   0.710  0.00  0.00     0.136 C 
BRANCH  27  28
ATOM     28  C19 <0> d          -0.155  -4.559   2.207  0.00  0.00     0.046 C 
BRANCH  28  29
ATOM     29  C20 <0> d          -0.242  -6.073   2.413  0.00  0.00     0.165 C 
BRANCH  29  30
ATOM     30  O4  <0> d          -0.318  -6.360   3.810  0.00  0.00    -0.401 OA
ATOM     31  H18 <0> d          -0.375  -7.303   4.016  0.00  0.00     0.209 HD
ENDBRANCH  29  30
ENDBRANCH  28  29
ENDBRANCH  27  28
ENDBRANCH   9  27
TORSDOF 9
