REMARK  3 active torsions:
REMARK  status: ('A' for Active; 'I' for Inactive)
REMARK    1  A    between atoms: C7_10  and  C8_11 
REMARK    2  A    between atoms: C11_14  and  C12_16 
REMARK    3  A    between atoms: C17_21  and  N2_22 
ROOT
ATOM      1  C8  <0> d           1.589  -0.910   5.899  0.00  0.00     0.077 A 
ATOM      2  C9  <0> d           2.129  -0.346   7.047  0.00  0.00     0.040 A 
ATOM      3  C10 <0> d           2.474  -1.400   7.890  0.00  0.00     0.041 A 
ATOM      4  C11 <0> d           2.136  -2.568   7.237  0.00  0.00     0.088 A 
ATOM      5  O2  <0> d           1.601  -2.253   6.045  0.00  0.00    -0.310 OA
ENDROOT
BRANCH   1   6
ATOM      6  C7  <0> d           1.109  -0.207   4.784  0.00  0.00     0.058 C 
ATOM      7  C6  <0> d           1.706   0.987   4.406  0.00  0.00     0.082 C 
ATOM      8  C5  <0> d           2.965   1.458   5.025  0.00  0.00     0.283 C 
ATOM      9  C19 <0> d           1.116   1.862   3.358  0.00  0.00     0.144 C 
ATOM     10  N1  <0> d           3.233   2.782   4.984  0.00  0.00    -0.184 NA
ATOM     11  O1  <0> d           3.736   0.676   5.556  0.00  0.00    -0.265 OA
ATOM     12  C4  <0> d           2.437   3.582   4.324  0.00  0.00     0.178 C 
ATOM     13  S1  <0> d           2.543   5.348   4.139  0.00  0.00    -0.086 SA
ATOM     14  N4  <0> d           1.310   3.236   3.604  0.00  0.00    -0.281 N 
ATOM     15  C3  <0> d           0.837   5.586   3.478  0.00  0.00     0.135 C 
ATOM     16  C2  <0> d           0.496   4.136   3.164  0.00  0.00     0.004 C 
ATOM     17  C1  <0> d          -0.738   3.767   2.381  0.00  0.00     0.065 C 
ATOM     18  N3  <0> d           0.477   1.400   2.313  0.00  0.00    -0.283 NA
ATOM     19  H11 <0> d           0.369   0.444   2.193  0.00  0.00     0.188 HD
ENDBRANCH   1   6
BRANCH   4  20
ATOM     20  C12 <0> d           2.326  -3.933   7.761  0.00  0.00     0.034 A 
ATOM     21  C17 <0> d           1.267  -4.845   7.740  0.00  0.00     0.118 A 
ATOM     22  C16 <0> d           1.448  -6.122   8.227  0.00  0.00     0.076 A 
ATOM     23  C15 <0> d           2.676  -6.504   8.748  0.00  0.00     0.107 A 
ATOM     24  C14 <0> d           3.736  -5.597   8.776  0.00  0.00     0.106 A 
ATOM     25  O5  <0> d           3.100  -7.684   9.285  0.00  0.00    -0.323 OA
ATOM     26  C13 <0> d           3.564  -4.317   8.286  0.00  0.00     0.056 A 
ATOM     27  O6  <0> d           4.821  -6.212   9.331  0.00  0.00    -0.323 OA
ATOM     28  C18 <0> d           4.538  -7.622   9.265  0.00  0.00     0.352 C 
BRANCH  21  29
ATOM     29  N2  <0> d          -0.048  -4.441   7.191  0.00  0.00    -0.115 N 
ATOM     30  O3  <0> d          -0.964  -5.230   7.173  0.00  0.00    -0.532 OA
ATOM     31  O4  <0> d          -0.205  -3.322   6.760  0.00  0.00    -0.532 OA
ENDBRANCH  21  29
ENDBRANCH   4  20
TORSDOF 3
