REMARK  3 active torsions:
REMARK  status: ('A' for Active; 'I' for Inactive)
REMARK    1  A    between atoms: C6_6  and  C7_7 
REMARK    2  A    between atoms: C7_7  and  C8_8 
REMARK    3  A    between atoms: C7_7  and  O2_13 
ROOT
ATOM      1  C1  <0> d          -0.017   1.378   0.010  0.00  0.00     0.012 A 
ATOM      2  C2  <0> d           1.169   2.087   0.002  0.00  0.00     0.031 A 
ATOM      3  C3  <0> d           2.380   1.409  -0.013  0.00  0.00     0.041 A 
ATOM      4  C4  <0> d           2.396   0.020  -0.020  0.00  0.00    -0.030 A 
ATOM      5  C5  <0> d           1.208  -0.682  -0.013  0.00  0.00     0.019 A 
ATOM      6  C6  <0> d           0.002  -0.004   0.002  0.00  0.00    -0.029 A 
ATOM      7  C12 <0> d           3.711  -0.715  -0.036  0.00  0.00     0.050 C 
ATOM      8  C13 <0> d           4.733   0.084  -0.846  0.00  0.00     0.108 C 
ATOM      9  C14 <0> d           4.727   1.522  -0.402  0.00  0.00     0.222 C 
ATOM     10  O3  <0> d           5.766   2.148  -0.389  0.00  0.00    -0.273 OA
ATOM     11  N1  <0> d           3.584   2.120  -0.020  0.00  0.00    -0.327 N 
ATOM     12  H17 <0> d           3.595   3.051   0.251  0.00  0.00     0.169 HD
ENDROOT
BRANCH   6  13
ATOM     13  C7  <0> d          -1.294  -0.774   0.011  0.00  0.00     0.157 C 
BRANCH  13  14
ATOM     14  C8  <0> d          -1.810  -0.918  -1.422  0.00  0.00     0.045 C 
ATOM     15  C11 <0> d          -2.157   0.461  -2.023  0.00  0.00     0.175 C 
ATOM     16  O1  <0> d          -3.374   0.310  -2.770  0.00  0.00    -0.391 OA
ATOM     17  C10 <0> d          -3.807  -1.059  -2.734  0.00  0.00     0.168 C 
ATOM     18  C9  <0> d          -3.182  -1.647  -1.444  0.00  0.00     0.036 C 
ENDBRANCH  13  14
BRANCH  13  19
ATOM     19  O2  <0> d          -2.259  -0.072   0.797  0.00  0.00    -0.390 OA
ATOM     20  H12 <0> d          -2.458   0.818   0.474  0.00  0.00     0.210 HD
ENDBRANCH  13  19
ENDBRANCH   6  13
TORSDOF 3
