REMARK  4 active torsions:
REMARK  status: ('A' for Active; 'I' for Inactive)
REMARK    1  A    between atoms: C3_3  and  N1_9 
REMARK    2  A    between atoms: N1_9  and  C7_10 
REMARK    3  A    between atoms: N2_12  and  C8_13 
REMARK    4  A    between atoms: C8_13  and  C9_14 
ROOT
ATOM      1  N1  <0> d           4.820   5.072   1.324  0.00  0.00    -0.331 N 
ATOM      2  H5  <0> d           5.472   4.450   0.964  0.00  0.00     0.168 HD
ENDROOT
BRANCH   1   3
ATOM      3  C3  <0> d           5.247   6.250   1.950  0.00  0.00     0.073 A 
ATOM      4  C2  <0> d           4.709   6.621   3.174  0.00  0.00     0.034 A 
ATOM      5  C1  <0> d           5.132   7.784   3.790  0.00  0.00     0.021 A 
ATOM      6  C6  <0> d           6.091   8.578   3.188  0.00  0.00     0.014 A 
ATOM      7  C5  <0> d           6.630   8.212   1.968  0.00  0.00     0.063 A 
ATOM      8 Br1  <0> d           6.667  10.168   4.036  0.00  0.00    -0.051 Br
ATOM      9  C4  <0> d           6.216   7.047   1.349  0.00  0.00     0.144 A 
ATOM     10  F1  <0> d           6.747   6.686   0.160  0.00  0.00    -0.204 F 
ENDBRANCH   1   3
BRANCH   1  11
ATOM     11  C7  <0> d           3.503   4.803   1.221  0.00  0.00     0.172 C 
ATOM     12  S1  <0> d           2.357   5.844   1.951  0.00  0.00    -0.041 SA
ATOM     13  N2  <0> d           3.089   3.715   0.542  0.00  0.00    -0.365 N 
ATOM     14  H6  <0> d           3.739   3.125   0.129  0.00  0.00     0.162 HD
BRANCH  13  15
ATOM     15  C8  <0> d           1.658   3.422   0.430  0.00  0.00     0.154 C 
BRANCH  15  16
ATOM     16  C9  <0> d           1.461   2.141  -0.383  0.00  0.00     0.139 C 
ATOM     17  O1  <0> d           1.921   0.995   0.366  0.00  0.00    -0.384 OA
ATOM     18  C12 <0> d           1.260  -0.141  -0.234  0.00  0.00     0.168 C 
ATOM     19  C11 <0> d          -0.178   0.345  -0.521  0.00  0.00     0.029 C 
ATOM     20  C10 <0> d          -0.043   1.881  -0.621  0.00  0.00     0.035 C 
ENDBRANCH  15  16
ENDBRANCH  13  15
ENDBRANCH   1  11
TORSDOF 4
