REMARK  4 active torsions:
REMARK  status: ('A' for Active; 'I' for Inactive)
REMARK    1  A    between atoms: C3_3  and  N1_8 
REMARK    2  A    between atoms: C7_9  and  C10_15 
REMARK    3  A    between atoms: C8_10  and  C9_13 
REMARK    4  A    between atoms: C9_13  and  N4_14 
ROOT
ATOM      1  N1  <0> d           3.629   2.053  -0.182  0.00  0.00    -0.217 N 
ATOM      2  C7  <0> d           4.568   1.772   0.763  0.00  0.00     0.070 A 
ATOM      3  C8  <0> d           5.560   2.675   0.585  0.00  0.00     0.108 A 
ATOM      4  N2  <0> d           5.189   3.451  -0.439  0.00  0.00    -0.133 NA
ATOM      5  N3  <0> d           4.046   3.055  -0.874  0.00  0.00    -0.060 NA
ENDROOT
BRANCH   1   6
ATOM      6  C3  <0> d           2.421   1.367  -0.371  0.00  0.00     0.061 A 
ATOM      7  C2  <0> d           1.250   2.073  -0.609  0.00  0.00     0.032 A 
ATOM      8  C1  <0> d           0.061   1.395  -0.796  0.00  0.00     0.004 A 
ATOM      9  C6  <0> d           0.036   0.013  -0.747  0.00  0.00     0.019 A 
ATOM     10  C5  <0> d           1.202  -0.694  -0.510  0.00  0.00     0.013 A 
ATOM     11  C4  <0> d           2.394  -0.020  -0.322  0.00  0.00     0.050 A 
ATOM     12 Br1  <0> d           1.163  -2.583  -0.444  0.00  0.00    -0.051 Br
ENDBRANCH   1   6
BRANCH   2  13
ATOM     13  C10 <0> d           4.513   0.677   1.797  0.00  0.00     0.040 C 
ATOM     14  C13 <0> d           4.662   1.186   3.241  0.00  0.00     0.011 C 
ATOM     15  C12 <0> d           5.538  -0.051   3.503  0.00  0.00     0.001 C 
ATOM     16  C11 <0> d           5.854  -0.048   1.998  0.00  0.00     0.011 C 
ENDBRANCH   2  13
BRANCH   3  17
ATOM     17  C9  <0> d           6.833   2.785   1.385  0.00  0.00     0.292 C 
BRANCH  17  18
ATOM     18  N4  <0> d           7.928   2.132   0.655  0.00  0.00    -0.074 N 
ATOM     19  H7  <0> d           7.726   1.148   0.557  0.00  0.00     0.274 HD
ATOM     20  H8  <0> d           8.019   2.549  -0.259  0.00  0.00     0.274 HD
ATOM     21  H16 <0> d           8.790   2.249   1.167  0.00  0.00     0.274 HD
ENDBRANCH  17  18
ENDBRANCH   3  17
TORSDOF 4
