REMARK  6 active torsions:
REMARK  status: ('A' for Active; 'I' for Inactive)
REMARK    1  A    between atoms: O1_2  and  C2_3 
REMARK    2  A    between atoms: C2_3  and  C3_5 
REMARK    3  A    between atoms: C8_10  and  N1_11 
REMARK       I    between atoms: N1_11  and  C9_12 
REMARK       I    between atoms: C9_12  and  N2_14 
REMARK    4  A    between atoms: N2_14  and  N3_15 
REMARK    5  A    between atoms: N3_15  and  C10_16 
REMARK    6  A    between atoms: N4_18  and  C11_19 
ROOT
ATOM      1  N1  <0> d           4.679  -0.190  -0.157  0.00  0.00    -0.307 N 
ATOM      2  C9  <0> d           3.583  -0.852   0.263  0.00  0.00     0.339 C 
ATOM      3  O3  <0> d           3.696  -1.940   0.795  0.00  0.00    -0.245 OA
ATOM      4  N2  <0> d           2.361  -0.309   0.092  0.00  0.00    -0.249 N 
ATOM      5  H8  <0> d           4.601   0.720  -0.483  0.00  0.00     0.170 HD
ATOM      6  H9  <0> d           1.572  -0.786   0.394  0.00  0.00     0.192 HD
ENDROOT
BRANCH   4   7
ATOM      7  N3  <0> d           2.231   0.944  -0.521  0.00  0.00    -0.272 N 
ATOM      8  H10 <0> d           3.020   1.420  -0.823  0.00  0.00     0.189 HD
BRANCH   7   9
ATOM      9  C10 <0> d           1.009   1.486  -0.692  0.00  0.00     0.191 C 
ATOM     10  S1  <0> d           0.850   3.017  -1.442  0.00  0.00    -0.039 SA
ATOM     11  N4  <0> d          -0.087   0.824  -0.273  0.00  0.00    -0.332 N 
ATOM     12  H11 <0> d          -0.003  -0.068   0.100  0.00  0.00     0.168 HD
BRANCH  11  13
ATOM     13  C11 <0> d          -1.349   1.420  -0.380  0.00  0.00     0.034 A 
ATOM     14  C16 <0> d          -1.716   2.065  -1.554  0.00  0.00     0.031 A 
ATOM     15  C15 <0> d          -2.962   2.652  -1.657  0.00  0.00     0.026 A 
ATOM     16  C14 <0> d          -3.844   2.599  -0.592  0.00  0.00     0.034 A 
ATOM     17  C13 <0> d          -3.481   1.957   0.579  0.00  0.00     0.026 A 
ATOM     18 Cl1  <0> d          -5.409   3.339  -0.725  0.00  0.00    -0.084 Cl
ATOM     19  C12 <0> d          -2.238   1.363   0.685  0.00  0.00     0.031 A 
ENDBRANCH  11  13
ENDBRANCH   7   9
ENDBRANCH   4   7
BRANCH   1  20
ATOM     20  C8  <0> d           5.924  -0.812  -0.121  0.00  0.00     0.052 A 
ATOM     21  C3  <0> d           7.090  -0.048   0.043  0.00  0.00     0.066 A 
ATOM     22  C4  <0> d           8.333  -0.685   0.078  0.00  0.00     0.020 A 
ATOM     23  C5  <0> d           8.408  -2.054  -0.049  0.00  0.00     0.001 A 
ATOM     24  C6  <0> d           7.254  -2.806  -0.211  0.00  0.00     0.002 A 
ATOM     25  C7  <0> d           6.019  -2.192  -0.242  0.00  0.00     0.030 A 
BRANCH  21  26
ATOM     26  C2  <0> d           7.003   1.417   0.179  0.00  0.00     0.295 C 
ATOM     27  O2  <0> d           5.917   1.955   0.273  0.00  0.00    -0.259 OA
BRANCH  26  28
ATOM     28  O1  <0> d           8.127   2.160   0.201  0.00  0.00    -0.322 OA
ATOM     29  C1  <0> d           7.966   3.596   0.337  0.00  0.00     0.213 C 
ENDBRANCH  26  28
ENDBRANCH  21  26
ENDBRANCH   1  20
TORSDOF 6
