REMARK  7 active torsions:
REMARK  status: ('A' for Active; 'I' for Inactive)
REMARK    1  A    between atoms: C2_2  and  C14_19 
REMARK    2  A    between atoms: C4_5  and  C5_6 
REMARK    3  A    between atoms: C5_6  and  N1_7 
REMARK    4  A    between atoms: C7_9  and  N2_13 
REMARK    5  A    between atoms: C8_10  and  O1_12 
REMARK    6  A    between atoms: C15_20  and  C16_21 
REMARK    7  A    between atoms: C16_21  and  O3_22 
ROOT
ATOM      1  N1  <0> d           1.585   2.452   1.223  0.00  0.00    -0.062 N 
ATOM      2  C6  <0> d           0.605   1.911   2.199  0.00  0.00     0.273 C 
ATOM      3  C7  <0> d          -0.636   1.607   1.323  0.00  0.00     0.279 C 
ATOM      4  C8  <0> d          -0.013   1.086   0.008  0.00  0.00     0.179 C 
ATOM      5  C9  <0> d           1.424   1.640  -0.003  0.00  0.00     0.269 C 
ATOM      6  H23 <0> d           1.417   3.521   1.024  0.00  0.00     0.280 HD
ENDROOT
BRANCH   1   7
ATOM      7  C5  <0> d           2.955   2.353   1.743  0.00  0.00     0.281 C 
BRANCH   7   8
ATOM      8  C4  <0> d           3.185   0.970   2.296  0.00  0.00     0.009 A 
ATOM      9  C1  <0> d           3.644  -0.131   1.661  0.00  0.00     0.037 A 
ATOM     10  C2  <0> d           3.783  -1.317   2.379  0.00  0.00     0.025 A 
ATOM     11  C3  <0> d           3.435  -1.321   3.703  0.00  0.00     0.070 A 
ATOM     12  S1  <0> d           2.911   0.367   3.953  0.00  0.00    -0.103 SA
BRANCH  10  13
ATOM     13  C14 <0> d           4.272  -2.504   1.746  0.00  0.00    -0.064 C 
ATOM     14  C15 <0> d           4.672  -3.478   1.227  0.00  0.00    -0.075 C 
BRANCH  14  15
ATOM     15  C16 <0> d           5.175  -4.699   0.576  0.00  0.00     0.258 C 
BRANCH  15  16
ATOM     16  O3  <0> d           4.184  -5.725   0.658  0.00  0.00    -0.389 OA
ATOM     17  H22 <0> d           4.381  -6.716   0.224  0.00  0.00     0.210 HD
ENDBRANCH  15  16
ENDBRANCH  14  15
ENDBRANCH  10  13
ENDBRANCH   7   8
ENDBRANCH   1   7
BRANCH   4  18
ATOM     18  O1  <0> d          -0.742   1.577  -1.118  0.00  0.00    -0.392 OA
ATOM     19  H11 <0> d          -0.432   1.302  -2.137  0.00  0.00     0.210 HD
ENDBRANCH   4  18
BRANCH   3  20
ATOM     20  N2  <0> d          -1.472   0.573   1.947  0.00  0.00     0.101 N 
ATOM     21  C13 <0> d          -2.069   1.062   3.199  0.00  0.00     0.299 C 
ATOM     22  C12 <0> d          -2.881  -0.064   3.845  0.00  0.00     0.198 C 
ATOM     23  O2  <0> d          -3.869  -0.524   2.918  0.00  0.00    -0.388 OA
ATOM     24  C11 <0> d          -3.322  -1.009   1.688  0.00  0.00     0.198 C 
ATOM     25  C10 <0> d          -2.515   0.107   1.021  0.00  0.00     0.299 C 
ENDBRANCH   3  20
TORSDOF 7
