REMARK  8 active torsions:
REMARK  status: ('A' for Active; 'I' for Inactive)
REMARK    1  A    between atoms: C6_7  and  C9_10 
REMARK    2  A    between atoms: C9_10  and  C10_11 
REMARK    3  A    between atoms: C10_11  and  C11_12 
REMARK    4  A    between atoms: C10_11  and  N5_29 
REMARK    5  A    between atoms: C11_12  and  N2_13 
REMARK    6  A    between atoms: N2_13  and  C12_14 
REMARK    7  A    between atoms: C14_16  and  C17_21 
REMARK    8  A    between atoms: C18_22  and  C19_23 
ROOT
ATOM      1  C11 <0> d          -0.398  -4.923  -1.452  0.00  0.00     0.153 C 
ENDROOT
BRANCH   1   2
ATOM      2  C10 <0> d           0.457  -3.653  -1.462  0.00  0.00     0.205 C 
BRANCH   2   3
ATOM      3  C9  <0> d           0.691  -3.186  -0.024  0.00  0.00     0.071 C 
BRANCH   3   4
ATOM      4  C6  <0> d           1.631  -2.008  -0.025  0.00  0.00    -0.048 A 
ATOM      5  C5  <0> d           3.143  -2.053  -0.041  0.00  0.00     0.155 A 
ATOM      6  N1  <0> d           3.587  -0.654  -0.037  0.00  0.00    -0.385 N 
ATOM      7  C4  <0> d           2.529   0.120  -0.022  0.00  0.00     0.038 A 
ATOM      8  H23 <0> d           4.509  -0.353  -0.045  0.00  0.00     0.160 HD
ATOM      9  C3  <0> d           2.391   1.535  -0.013  0.00  0.00     0.030 A 
ATOM     10  C7  <0> d           1.295  -0.698  -0.014  0.00  0.00    -0.006 A 
ATOM     11  C2  <0> d           1.166   2.101   0.002  0.00  0.00     0.002 A 
ATOM     12  C1  <0> d          -0.016   1.348   0.009  0.00  0.00     0.001 A 
ATOM     13  C8  <0> d           0.002  -0.004   0.002  0.00  0.00     0.014 A 
ENDBRANCH   3   4
ENDBRANCH   2   3
BRANCH   2  14
ATOM     14  N5  <0> d          -0.240  -2.600  -2.212  0.00  0.00    -0.073 N 
ATOM     15  H21 <0> d          -0.394  -2.909  -3.160  0.00  0.00     0.274 HD
ATOM     16  H22 <0> d          -1.127  -2.405  -1.773  0.00  0.00     0.274 HD
ATOM     17  H24 <0> d           0.323  -1.763  -2.218  0.00  0.00     0.274 HD
ENDBRANCH   2  14
ENDBRANCH   1   2
BRANCH   1  18
ATOM     18  N2  <0> d          -0.722  -5.303  -2.829  0.00  0.00    -0.387 N 
ATOM     19  H12 <0> d          -0.397  -4.767  -3.570  0.00  0.00     0.159 HD
BRANCH  18  20
ATOM     20  C12 <0> d          -1.498  -6.439  -3.076  0.00  0.00     0.046 A 
ATOM     21  C16 <0> d          -1.968  -7.213  -2.022  0.00  0.00     0.147 A 
ATOM     22  N3  <0> d          -2.707  -8.284  -2.240  0.00  0.00    -0.246 NA
ATOM     23  C15 <0> d          -3.024  -8.676  -3.457  0.00  0.00     0.136 A 
ATOM     24  C14 <0> d          -2.587  -7.957  -4.575  0.00  0.00     0.007 A 
ATOM     25 Cl1  <0> d          -3.993 -10.099  -3.676  0.00  0.00    -0.061 Cl
ATOM     26  C13 <0> d          -1.806  -6.811  -4.380  0.00  0.00     0.045 A 
BRANCH  24  27
ATOM     27  C17 <0> d          -2.944  -8.397  -5.935  0.00  0.00     0.015 C 
ATOM     28  C18 <0> d          -2.519  -7.698  -7.000  0.00  0.00     0.012 C 
BRANCH  28  29
ATOM     29  C19 <0> d          -2.876  -8.139  -8.360  0.00  0.00    -0.034 A 
ATOM     30  C23 <0> d          -2.444  -7.424  -9.486  0.00  0.00     0.030 A 
ATOM     31  C22 <0> d          -2.796  -7.876 -10.740  0.00  0.00     0.117 A 
ATOM     32  N4  <0> d          -3.539  -8.957 -10.887  0.00  0.00    -0.273 NA
ATOM     33  C21 <0> d          -3.972  -9.656  -9.855  0.00  0.00     0.117 A 
ATOM     34  C20 <0> d          -3.663  -9.281  -8.565  0.00  0.00     0.030 A 
ENDBRANCH  28  29
ENDBRANCH  24  27
ENDBRANCH  18  20
ENDBRANCH   1  18
TORSDOF 8
