REMARK  3 active torsions:
REMARK  status: ('A' for Active; 'I' for Inactive)
REMARK    1  A    between atoms: C3_3  and  S2_9 
REMARK    2  A    between atoms: S2_9  and  N2_12 
REMARK    3  A    between atoms: C7_15  and  O4_18 
ROOT
ATOM      1  S2  <0> d          -2.797  -0.150   0.016  0.00  0.00     0.269 S 
ATOM      2  O2  <0> d          -3.492  -0.955   0.959  0.00  0.00    -0.200 OA
ATOM      3  O3  <0> d          -2.745   1.266   0.116  0.00  0.00    -0.200 OA
ENDROOT
BRANCH   1   4
ATOM      4  C3  <0> d          -1.129  -0.716   0.004  0.00  0.00     0.147 A 
ATOM      5  C2  <0> d           0.002  -0.004   0.002  0.00  0.00     0.039 A 
ATOM      6  C1  <0> d          -0.018   1.503   0.010  0.00  0.00     0.070 C 
ATOM      7  N1  <0> d           1.176  -0.699  -0.013  0.00  0.00    -0.320 N 
ATOM      8  C4  <0> d           1.138  -2.048  -0.015  0.00  0.00     0.289 A 
ATOM      9  H1  <0> d           2.025  -0.230  -0.020  0.00  0.00     0.169 HD
ATOM     10  S1  <0> d          -0.508  -2.388  -0.008  0.00  0.00    -0.013 SA
ATOM     11  O1  <0> d           2.072  -2.830  -0.024  0.00  0.00    -0.260 OA
ENDBRANCH   1   4
BRANCH   1  12
ATOM     12  N2  <0> d          -3.443  -0.496  -1.469  0.00  0.00    -0.306 N 
ATOM     13  C9  <0> d          -4.114  -1.781  -1.713  0.00  0.00     0.138 C 
ATOM     14  C8  <0> d          -3.486  -2.446  -2.936  0.00  0.00     0.052 C 
ATOM     15  C7  <0> d          -3.532  -1.478  -4.120  0.00  0.00     0.121 C 
ATOM     16  C6  <0> d          -2.726  -0.221  -3.785  0.00  0.00     0.052 C 
ATOM     17  C5  <0> d          -3.350   0.472  -2.570  0.00  0.00     0.138 C 
BRANCH  15  18
ATOM     18  O4  <0> d          -2.972  -2.110  -5.273  0.00  0.00    -0.395 OA
ATOM     19  H14 <0> d          -3.433  -2.915  -5.544  0.00  0.00     0.210 HD
ENDBRANCH  15  18
ENDBRANCH   1  12
TORSDOF 3
