REMARK  6 active torsions:
REMARK  status: ('A' for Active; 'I' for Inactive)
REMARK    1  A    between atoms: C6_6  and  C8_9 
REMARK       I    between atoms: C8_9  and  N1_11 
REMARK    2  A    between atoms: C10_13  and  C17_21 
REMARK       I    between atoms: C17_21  and  N3_23 
REMARK    3  A    between atoms: N3_23  and  C18_24 
REMARK    4  A    between atoms: C18_24  and  C19_25 
REMARK    5  A    between atoms: C19_25  and  C20_26 
REMARK    6  A    between atoms: C20_26  and  N4_27 
ROOT
ATOM      1  C8  <0> d           0.044  -2.835   2.444  0.00  0.00     0.258 C 
ATOM      2  O1  <0> d           1.106  -3.126   2.958  0.00  0.00    -0.267 OA
ATOM      3  N1  <0> d          -1.113  -3.199   3.034  0.00  0.00    -0.346 N 
ATOM      4  C9  <0> d          -2.493  -2.943   2.560  0.00  0.00     0.141 C 
ATOM      5  C10 <0> d          -3.264  -4.243   2.884  0.00  0.00     0.106 C 
ATOM      6  C11 <0> d          -2.470  -4.894   4.029  0.00  0.00    -0.007 C 
ATOM      7  C12 <0> d          -1.290  -3.950   4.299  0.00  0.00     0.136 C 
ATOM      8  C13 <0> d          -1.954  -6.265   3.601  0.00  0.00     0.039 C 
ATOM      9  C14 <0> d          -1.218  -6.917   4.775  0.00  0.00     0.233 C 
ATOM     10  N2  <0> d          -2.132  -7.050   5.915  0.00  0.00    -0.075 N 
ATOM     11  C15 <0> d          -2.551  -5.722   6.379  0.00  0.00     0.233 C 
ATOM     12  C16 <0> d          -3.344  -5.019   5.273  0.00  0.00     0.039 C 
ATOM     13  H16 <0> d          -2.945  -7.578   5.634  0.00  0.00     0.277 HD
ATOM     14  H40 <0> d          -1.663  -7.534   6.666  0.00  0.00     0.277 HD
ENDROOT
BRANCH   5  15
ATOM     15  C17 <0> d          -3.292  -5.150   1.680  0.00  0.00     0.224 C 
ATOM     16  O2  <0> d          -2.423  -5.067   0.838  0.00  0.00    -0.273 OA
ATOM     17  N3  <0> d          -4.284  -6.051   1.539  0.00  0.00    -0.361 N 
ATOM     18  H21 <0> d          -4.979  -6.117   2.213  0.00  0.00     0.162 HD
BRANCH  17  19
ATOM     19  C18 <0> d          -4.312  -6.933   0.369  0.00  0.00     0.124 C 
BRANCH  19  20
ATOM     20  C19 <0> d          -5.531  -7.853   0.453  0.00  0.00     0.047 C 
BRANCH  20  21
ATOM     21  C20 <0> d          -5.561  -8.774  -0.769  0.00  0.00     0.237 C 
BRANCH  21  22
ATOM     22  N4  <0> d          -6.731  -9.657  -0.688  0.00  0.00    -0.067 N 
ATOM     23  C25 <0> d          -6.694 -10.619  -1.796  0.00  0.00     0.184 C 
ATOM     24  C24 <0> d          -7.867 -11.593  -1.671  0.00  0.00     0.033 C 
ATOM     25  C26 <0> d          -5.378 -11.398  -1.750  0.00  0.00     0.040 C 
ATOM     26  C23 <0> d          -9.182 -10.809  -1.718  0.00  0.00     0.004 C 
ATOM     27  C22 <0> d          -9.178  -9.759  -0.603  0.00  0.00     0.028 C 
ATOM     28  C21 <0> d          -7.956  -8.853  -0.768  0.00  0.00     0.235 C 
ATOM     29  H39 <0> d          -6.715 -10.156   0.189  0.00  0.00     0.280 HD
ENDBRANCH  21  22
ENDBRANCH  20  21
ENDBRANCH  19  20
ENDBRANCH  17  19
ENDBRANCH   5  15
BRANCH   1  30
ATOM     30  C6  <0> d           0.020  -2.083   1.174  0.00  0.00     0.092 A 
ATOM     31  C5  <0> d           0.022  -2.765  -0.046  0.00  0.00     0.052 A 
ATOM     32  C4  <0> d          -0.001  -2.054  -1.230  0.00  0.00     0.026 A 
ATOM     33 Cl1  <0> d           0.052  -4.500  -0.073  0.00  0.00    -0.083 Cl
ATOM     34  C3  <0> d          -0.026  -0.671  -1.212  0.00  0.00     0.011 A 
ATOM     35  C2  <0> d          -0.029   0.012  -0.009  0.00  0.00    -0.022 A 
ATOM     36  C1  <0> d          -0.056   1.518  -0.001  0.00  0.00     0.051 C 
ATOM     37  C7  <0> d          -0.000  -0.684   1.185  0.00  0.00     0.139 A 
ATOM     38  F1  <0> d           0.003  -0.016   2.359  0.00  0.00    -0.204 F 
ENDBRANCH   1  30
TORSDOF 6
