REMARK  4 active torsions:
REMARK  status: ('A' for Active; 'I' for Inactive)
REMARK    1  A    between atoms: S1_2  and  C2_3 
REMARK    2  A    between atoms: C5_6  and  C8_9 
REMARK    3  A    between atoms: C9_12  and  C10_14 
REMARK    4  A    between atoms: C11_15  and  O3_26 
ROOT
ATOM      1  C10 <0> d           3.059  -3.222  -7.923  0.00  0.00     0.186 A 
ATOM      2  C11 <0> d           3.832  -3.027  -9.213  0.00  0.00     0.073 A 
ATOM      3  C12 <0> d           4.189  -4.177  -9.918  0.00  0.00     0.021 A 
ATOM      4  C13 <0> d           4.909  -4.082 -11.127  0.00  0.00     0.019 A 
ATOM      5  C14 <0> d           5.248  -5.214 -11.800  0.00  0.00     0.043 A 
ATOM      6  C15 <0> d           4.897  -6.475 -11.318  0.00  0.00     0.118 A 
ATOM      7  C16 <0> d           4.195  -6.629 -10.145  0.00  0.00     0.072 A 
ATOM      8  C17 <0> d           3.816  -5.498  -9.405  0.00  0.00     0.050 A 
ATOM      9  N3  <0> d           3.132  -5.649  -8.262  0.00  0.00    -0.325 N 
ATOM     10  C18 <0> d           2.742  -4.641  -7.511  0.00  0.00     0.237 A 
ATOM     11  O2  <0> d           2.124  -4.853  -6.483  0.00  0.00    -0.272 OA
ATOM     12  F1  <0> d           5.255  -7.572 -12.021  0.00  0.00    -0.206 F 
ATOM     13  H15 <0> d           2.914  -6.549  -7.973  0.00  0.00     0.169 HD
ENDROOT
BRANCH   1  14
ATOM     14  C9  <0> d           3.861  -2.573  -6.793  0.00  0.00     0.274 A 
ATOM     15  O1  <0> d           3.987  -1.160  -7.015  0.00  0.00    -0.227 OA
ATOM     16  N1  <0> d           3.364  -0.522  -5.917  0.00  0.00    -0.113 NA
ATOM     17  C8  <0> d           2.891  -1.391  -5.085  0.00  0.00     0.163 A 
ATOM     18  N2  <0> d           3.141  -2.682  -5.514  0.00  0.00    -0.343 N 
ATOM     19  H10 <0> d           2.889  -3.502  -5.061  0.00  0.00     0.164 HD
BRANCH  17  20
ATOM     20  C5  <0> d           2.180  -1.050  -3.833  0.00  0.00     0.012 A 
ATOM     21  C4  <0> d           1.977   0.287  -3.487  0.00  0.00     0.017 A 
ATOM     22  C3  <0> d           1.315   0.602  -2.321  0.00  0.00     0.019 A 
ATOM     23  C2  <0> d           0.848  -0.411  -1.489  0.00  0.00    -0.000 A 
ATOM     24  C7  <0> d           1.055  -1.744  -1.829  0.00  0.00     0.019 A 
ATOM     25  C6  <0> d           1.712  -2.065  -2.996  0.00  0.00     0.017 A 
BRANCH  23  26
ATOM     26  S1  <0> d           0.002  -0.004   0.002  0.00  0.00    -0.134 SA
ATOM     27  C1  <0> d          -0.022   1.810   0.012  0.00  0.00     0.095 C 
ENDBRANCH  23  26
ENDBRANCH  17  20
ENDBRANCH   1  14
BRANCH   2  28
ATOM     28  O3  <0> d           4.156  -1.807  -9.655  0.00  0.00    -0.363 OA
ATOM     29  H14 <0> d           4.648  -1.809 -10.488  0.00  0.00     0.217 HD
ENDBRANCH   2  28
TORSDOF 4
