REMARK  4 active torsions:
REMARK  status: ('A' for Active; 'I' for Inactive)
REMARK    1  A    between atoms: C6_6  and  O1_8 
REMARK    2  A    between atoms: O1_8  and  C8_9 
REMARK    3  A    between atoms: C8_9  and  C10_11 
REMARK       I    between atoms: C10_11  and  N1_13 
REMARK    4  A    between atoms: N1_13  and  C11_14 
ROOT
ATOM      1  C10 <0> d          -0.823  -3.197   4.943  0.00  0.00     0.247 C 
ATOM      2  O2  <0> d          -1.309  -4.300   4.810  0.00  0.00    -0.271 OA
ATOM      3  N1  <0> d          -0.880  -2.574   6.137  0.00  0.00    -0.354 N 
ATOM      4  H11 <0> d          -0.491  -1.692   6.243  0.00  0.00     0.162 HD
ENDROOT
BRANCH   3   5
ATOM      5  C11 <0> d          -1.530  -3.232   7.277  0.00  0.00     0.089 C 
ATOM      6  C15 <0> d          -0.951  -2.676   8.578  0.00  0.00     0.063 C 
ATOM      7  C14 <0> d          -1.648  -3.290   9.787  0.00  0.00     0.121 C 
ATOM      8  N2  <0> d          -3.098  -3.231   9.704  0.00  0.00    -0.059 N 
ATOM      9  C16 <0> d          -1.220  -2.469  11.028  0.00  0.00     0.046 C 
ATOM     10  C17 <0> d          -1.151  -4.721  10.006  0.00  0.00     0.046 C 
ATOM     11  C13 <0> d          -3.718  -3.591   8.437  0.00  0.00     0.121 C 
ATOM     12  H15 <0> d          -3.397  -2.283   9.949  0.00  0.00     0.279 HD
ATOM     13  H30 <0> d          -3.488  -3.832  10.434  0.00  0.00     0.279 HD
ATOM     14  C12 <0> d          -3.028  -2.922   7.248  0.00  0.00     0.063 C 
ATOM     15  C18 <0> d          -3.774  -5.104   8.233  0.00  0.00     0.046 C 
ATOM     16  C19 <0> d          -5.176  -3.078   8.468  0.00  0.00     0.046 C 
ENDBRANCH   3   5
BRANCH   1  17
ATOM     17  C8  <0> d          -0.155  -2.522   3.772  0.00  0.00     0.216 C 
ATOM     18  C9  <0> d           1.337  -2.354   4.064  0.00  0.00     0.050 C 
BRANCH  17  19
ATOM     19  O1  <0> d          -0.325  -3.322   2.601  0.00  0.00    -0.335 OA
BRANCH  19  20
ATOM     20  C6  <0> d          -0.259  -2.684   1.403  0.00  0.00     0.092 A 
ATOM     21  C5  <0> d          -0.521  -3.378   0.230  0.00  0.00     0.067 A 
ATOM     22  C4  <0> d          -0.453  -2.727  -0.988  0.00  0.00     0.027 A 
ATOM     23 Cl1  <0> d          -0.935  -5.063   0.291  0.00  0.00    -0.081 Cl
ATOM     24  C3  <0> d          -0.124  -1.385  -1.037  0.00  0.00     0.008 A 
ATOM     25  C2  <0> d           0.137  -0.691   0.131  0.00  0.00    -0.059 A 
ATOM     26  C1  <0> d           0.494   0.772   0.073  0.00  0.00     0.048 C 
ATOM     27  C7  <0> d           0.076  -1.339   1.349  0.00  0.00     0.045 A 
ENDBRANCH  19  20
ENDBRANCH  17  19
ENDBRANCH   1  17
TORSDOF 4
