REMARK  7 active torsions:
REMARK  status: ('A' for Active; 'I' for Inactive)
REMARK    1  A    between atoms: C2_2  and  N1_3 
REMARK    2  A    between atoms: C6_7  and  C7_8 
REMARK    3  A    between atoms: C7_8  and  N2_9 
REMARK    4  A    between atoms: C9_11  and  C12_15 
REMARK       I    between atoms: C12_15  and  N3_17 
REMARK    5  A    between atoms: N3_17  and  C13_18 
REMARK    6  A    between atoms: C13_18  and  C14_19 
REMARK    7  A    between atoms: C14_19  and  C15_20 
ROOT
ATOM      1  N2  <0> d           0.441  -1.492   1.231  0.00  0.00    -0.349 N 
ATOM      2  C8  <0> d           1.652  -1.716   2.030  0.00  0.00     0.140 C 
ATOM      3  C9  <0> d           1.898  -0.390   2.785  0.00  0.00     0.104 C 
ATOM      4  C10 <0> d           0.474   0.208   2.845  0.00  0.00     0.118 C 
ATOM      5  C11 <0> d          -0.240  -0.418   1.667  0.00  0.00     0.220 C 
ATOM      6  O1  <0> d          -1.276  -0.012   1.186  0.00  0.00    -0.273 OA
ENDROOT
BRANCH   3   7
ATOM      7  C12 <0> d           2.434  -0.650   4.169  0.00  0.00     0.223 C 
ATOM      8  O2  <0> d           2.613  -1.788   4.547  0.00  0.00    -0.273 OA
ATOM      9  N3  <0> d           2.714   0.384   4.988  0.00  0.00    -0.360 N 
ATOM     10  H20 <0> d           2.571   1.294   4.686  0.00  0.00     0.162 HD
BRANCH   9  11
ATOM     11  C13 <0> d           3.235   0.132   6.334  0.00  0.00     0.130 C 
BRANCH  11  12
ATOM     12  C14 <0> d           3.466   1.464   7.049  0.00  0.00     0.100 C 
BRANCH  12  13
ATOM     13  C15 <0> d           4.002   1.205   8.433  0.00  0.00     0.130 A 
ATOM     14  N6  <0> d           4.324   2.167   9.358  0.00  0.00    -0.314 N 
ATOM     15  C16 <0> d           4.764   1.552  10.474  0.00  0.00     0.195 A 
ATOM     16  C17 <0> d           4.207   3.615   9.167  0.00  0.00     0.160 C 
ATOM     17  N5  <0> d           4.726   0.223  10.245  0.00  0.00    -0.251 N 
ATOM     18  S1  <0> d           5.284   2.317  11.915  0.00  0.00    -0.039 SA
ATOM     19  N4  <0> d           4.238   0.040   8.943  0.00  0.00    -0.159 NA
ATOM     20  H28 <0> d           4.987  -0.475  10.865  0.00  0.00     0.191 HD
ENDBRANCH  12  13
ENDBRANCH  11  12
ENDBRANCH   9  11
ENDBRANCH   3   7
BRANCH   1  21
ATOM     21  C7  <0> d           0.031  -2.329   0.100  0.00  0.00     0.159 C 
BRANCH  21  22
ATOM     22  C6  <0> d           0.687  -1.811  -1.181  0.00  0.00     0.206 C 
ATOM     23  N1  <0> d           0.225  -2.603  -2.336  0.00  0.00    -0.066 N 
ATOM     24  C3  <0> d           1.394  -3.270  -2.947  0.00  0.00     0.235 C 
ATOM     25  H29 <0> d          -0.209  -1.994  -3.014  0.00  0.00     0.280 HD
ATOM     26  C4  <0> d           2.607  -2.397  -2.536  0.00  0.00     0.030 C 
ATOM     27  C5  <0> d           2.218  -1.980  -1.093  0.00  0.00     0.036 C 
BRANCH  23  28
ATOM     28  C2  <0> d          -0.742  -3.613  -1.888  0.00  0.00     0.231 C 
ATOM     29  C1  <0> d          -1.304  -4.355  -3.102  0.00  0.00     0.034 C 
ENDBRANCH  23  28
ENDBRANCH  21  22
ENDBRANCH   1  21
TORSDOF 7
