REMARK  3 active torsions:
REMARK  status: ('A' for Active; 'I' for Inactive)
REMARK    1  A    between atoms: C6_9  and  S1_10 
REMARK    2  A    between atoms: S1_10  and  C7_11 
REMARK    3  A    between atoms: C7_11  and  C8_12 
ROOT
ATOM      1  C8  <0> d          -0.016   1.355   0.009  0.00  0.00     0.117 A 
ATOM      2  N4  <0> d           0.002  -0.004   0.002  0.00  0.00    -0.310 N 
ATOM      3  H1  <0> d          -0.854  -0.521   0.007  0.00  0.00     0.170 HD
ATOM      4  C9  <0> d           1.192  -0.652  -0.013  0.00  0.00     0.266 A 
ATOM      5  O1  <0> d           1.242  -1.871  -0.019  0.00  0.00    -0.267 OA
ATOM      6  C10 <0> d           2.358   0.114  -0.020  0.00  0.00     0.101 A 
ATOM      7  C11 <0> d           2.311   1.519  -0.012  0.00  0.00     0.082 A 
ATOM      8  N5  <0> d           1.057   2.079   0.003  0.00  0.00    -0.233 NA
ATOM      9  C12 <0> d           3.555   2.164  -0.020  0.00  0.00     0.040 A 
ATOM     10  C13 <0> d           4.696   1.441  -0.035  0.00  0.00     0.053 A 
ATOM     11  S2  <0> d           4.095  -0.240  -0.038  0.00  0.00    -0.094 SA
ENDROOT
BRANCH   1  12
ATOM     12  C7  <0> d          -1.352   2.053   0.019  0.00  0.00     0.161 C 
BRANCH  12  13
ATOM     13  S1  <0> d          -1.095   3.849   0.028  0.00  0.00    -0.082 SA
BRANCH  13  14
ATOM     14  C6  <0> d          -2.727   4.513   0.039  0.00  0.00     0.196 A 
ATOM     15  N1  <0> d          -3.061   5.835   0.053  0.00  0.00    -0.283 N 
ATOM     16  C3  <0> d          -2.337   6.994   0.050  0.00  0.00     0.101 A 
ATOM     17  C4  <0> d          -4.440   5.873   0.054  0.00  0.00     0.158 A 
ATOM     18  C2  <0> d          -2.960   8.189   0.060  0.00  0.00     0.018 A 
ATOM     19  C1  <0> d          -4.366   8.261   0.067  0.00  0.00     0.005 A 
ATOM     20  C5  <0> d          -5.101   7.118   0.064  0.00  0.00     0.053 A 
ATOM     21  N2  <0> d          -4.859   4.621   0.050  0.00  0.00    -0.129 NA
ATOM     22  N3  <0> d          -3.847   3.826   0.041  0.00  0.00    -0.122 NA
ENDBRANCH  13  14
ENDBRANCH  12  13
ENDBRANCH   1  12
TORSDOF 3
