REMARK  3 active torsions:
REMARK  status: ('A' for Active; 'I' for Inactive)
REMARK    1  A    between atoms: C3_3  and  S1_8 
REMARK    2  A    between atoms: S1_8  and  N2_11 
REMARK    3  A    between atoms: C9_15  and  C11_17 
ROOT
ATOM      1  N2  <0> d           1.570  -0.091  -3.285  0.00  0.00    -0.306 N 
ATOM      2  C6  <0> d           2.270   1.187  -3.093  0.00  0.00     0.135 C 
ATOM      3  C7  <0> d           3.570   0.926  -2.326  0.00  0.00     0.021 C 
ATOM      4  C8  <0> d           4.389  -0.135  -3.063  0.00  0.00     0.010 C 
ATOM      5  C9  <0> d           3.595  -1.442  -3.126  0.00  0.00     0.035 C 
ATOM      6  C10 <0> d           2.298  -1.210  -3.897  0.00  0.00     0.142 C 
ENDROOT
BRANCH   1   7
ATOM      7  S1  <0> d          -0.008  -0.267  -2.813  0.00  0.00     0.265 S 
ATOM      8  O2  <0> d          -0.547  -1.328  -3.589  0.00  0.00    -0.200 OA
ATOM      9  O3  <0> d          -0.577   1.035  -2.802  0.00  0.00    -0.200 OA
BRANCH   7  10
ATOM     10  C3  <0> d           0.008  -0.824  -1.141  0.00  0.00     0.137 A 
ATOM     11  C2  <0> d           0.002  -0.004   0.002  0.00  0.00     0.084 A 
ATOM     12  C1  <0> d          -0.018   1.503   0.010  0.00  0.00     0.074 C 
ATOM     13  N1  <0> d           0.023  -0.775   1.052  0.00  0.00    -0.132 NA
ATOM     14  O1  <0> d           0.034  -2.119   0.606  0.00  0.00    -0.216 OA
ATOM     15  C4  <0> d           0.027  -2.108  -0.735  0.00  0.00     0.100 A 
ATOM     16  C5  <0> d           0.039  -3.320  -1.631  0.00  0.00     0.081 C 
ENDBRANCH   7  10
ENDBRANCH   1   7
BRANCH   5  17
ATOM     17  C11 <0> d           4.429  -2.512  -3.834  0.00  0.00     0.191 C 
ATOM     18  N3  <0> d           5.680  -2.747  -3.091  0.00  0.00    -0.070 N 
ATOM     19  C14 <0> d           5.698  -4.158  -2.639  0.00  0.00     0.233 C 
ATOM     20  H23 <0> d           6.471  -2.571  -3.692  0.00  0.00     0.277 HD
ATOM     21  H24 <0> d           5.720  -2.132  -2.291  0.00  0.00     0.277 HD
ATOM     22  C13 <0> d           4.766  -4.902  -3.627  0.00  0.00     0.029 C 
ATOM     23  C12 <0> d           3.654  -3.846  -3.864  0.00  0.00     0.035 C 
ENDBRANCH   5  17
TORSDOF 3
