REMARK  5 active torsions:
REMARK  status: ('A' for Active; 'I' for Inactive)
REMARK    1  A    between atoms: C2_2  and  C4_4 
REMARK    2  A    between atoms: C4_4  and  N1_5 
REMARK       I    between atoms: N1_5  and  C5_6 
REMARK    3  A    between atoms: C5_6  and  C6_8 
REMARK       I    between atoms: N2_10  and  C14_18 
REMARK    4  A    between atoms: C14_18  and  C15_20 
REMARK    5  A    between atoms: C18_24  and  O3_25 
ROOT
ATOM      1  C6  <0> d          -4.077  -0.101  -2.706  0.00  0.00     0.106 C 
ATOM      2  C7  <0> d          -4.292   1.429  -2.757  0.00  0.00     0.141 C 
ATOM      3  N2  <0> d          -5.613   1.599  -3.405  0.00  0.00    -0.346 N 
ATOM      4  C8  <0> d          -6.444   0.509  -2.841  0.00  0.00     0.136 C 
ATOM      5  C9  <0> d          -5.492  -0.700  -2.760  0.00  0.00    -0.007 C 
ATOM      6  C10 <0> d          -5.647  -1.578  -3.999  0.00  0.00     0.039 C 
ATOM      7  C11 <0> d          -7.042  -2.208  -4.001  0.00  0.00     0.233 C 
ATOM      8  N3  <0> d          -7.221  -3.009  -2.784  0.00  0.00    -0.075 N 
ATOM      9  C12 <0> d          -7.163  -2.142  -1.600  0.00  0.00     0.233 C 
ATOM     10  C13 <0> d          -5.772  -1.509  -1.497  0.00  0.00     0.039 C 
ATOM     11  C14 <0> d          -5.978   2.534  -4.305  0.00  0.00     0.257 C 
ATOM     12  O2  <0> d          -5.150   3.308  -4.747  0.00  0.00    -0.267 OA
ATOM     13  H20 <0> d          -8.117  -3.471  -2.816  0.00  0.00     0.277 HD
ATOM     14  H29 <0> d          -6.490  -3.701  -2.728  0.00  0.00     0.277 HD
ENDROOT
BRANCH  11  15
ATOM     15  C15 <0> d          -7.376   2.620  -4.751  0.00  0.00     0.074 A 
ATOM     16  C18 <0> d          -7.718   2.999  -6.103  0.00  0.00     0.113 A 
ATOM     17  C17 <0> d          -9.040   3.034  -6.385  0.00  0.00     0.108 A 
ATOM     18  S1  <0> d          -9.794   2.574  -4.840  0.00  0.00    -0.086 SA
ATOM     19 Cl1  <0> d          -9.813   3.436  -7.886  0.00  0.00    -0.073 Cl
ATOM     20  C16 <0> d          -8.424   2.348  -3.898  0.00  0.00     0.071 A 
BRANCH  16  21
ATOM     21  O3  <0> d          -6.770   3.298  -7.034  0.00  0.00    -0.353 OA
ATOM     22  C19 <0> d          -6.280   2.217  -7.830  0.00  0.00     0.210 C 
ENDBRANCH  16  21
ENDBRANCH  11  15
BRANCH   1  23
ATOM     23  C5  <0> d          -3.390  -0.491  -1.422  0.00  0.00     0.224 C 
ATOM     24  N1  <0> d          -2.739  -1.668  -1.337  0.00  0.00    -0.360 N 
ATOM     25  H11 <0> d          -2.712  -2.264  -2.102  0.00  0.00     0.162 HD
ATOM     26  O1  <0> d          -3.424   0.254  -0.466  0.00  0.00    -0.273 OA
BRANCH  24  27
ATOM     27  C4  <0> d          -2.072  -2.047  -0.089  0.00  0.00     0.126 C 
BRANCH  27  28
ATOM     28  C2  <0> d          -1.414  -3.418  -0.259  0.00  0.00    -0.005 C 
ATOM     29  C1  <0> d          -0.299  -3.323  -1.302  0.00  0.00     0.011 C 
ATOM     30  C3  <0> d          -0.825  -3.870   1.079  0.00  0.00     0.011 C 
ENDBRANCH  27  28
ENDBRANCH  24  27
ENDBRANCH   1  23
TORSDOF 5
