REMARK  6 active torsions:
REMARK  status: ('A' for Active; 'I' for Inactive)
REMARK    1  A    between atoms: C7_7  and  N1_8 
REMARK    2  A    between atoms: N1_8  and  S1_9 
REMARK    3  A    between atoms: S1_9  and  C8_12 
REMARK    4  A    between atoms: C11_15  and  C14_18 
REMARK       I    between atoms: C14_18  and  N2_20 
REMARK    5  A    between atoms: N2_20  and  N3_21 
REMARK       I    between atoms: N3_21  and  C15_22 
REMARK    6  A    between atoms: C15_22  and  C16_24 
ROOT
ATOM      1  C8  <0> d           3.036  -9.226  -0.987  0.00  0.00     0.079 A 
ATOM      2  C9  <0> d           4.128  -8.667  -0.346  0.00  0.00     0.026 A 
ATOM      3  C10 <0> d           4.159  -7.314  -0.083  0.00  0.00     0.018 A 
ATOM      4  C11 <0> d           3.085  -6.507  -0.464  0.00  0.00     0.033 A 
ATOM      5  C12 <0> d           1.984  -7.077  -1.104  0.00  0.00     0.018 A 
ATOM      6  C13 <0> d           1.968  -8.432  -1.367  0.00  0.00     0.026 A 
ENDROOT
BRANCH   4   7
ATOM      7  C14 <0> d           3.111  -5.055  -0.184  0.00  0.00     0.270 C 
ATOM      8  O3  <0> d           4.069  -4.562   0.379  0.00  0.00    -0.266 OA
ATOM      9  N2  <0> d           2.073  -4.279  -0.553  0.00  0.00    -0.263 N 
ATOM     10  H14 <0> d           1.308  -4.673  -1.002  0.00  0.00     0.190 HD
BRANCH   9  11
ATOM     11  N3  <0> d           2.098  -2.904  -0.288  0.00  0.00    -0.265 N 
ATOM     12  C15 <0> d           1.059  -2.127  -0.656  0.00  0.00     0.267 C 
ATOM     13  O4  <0> d           0.104  -2.620  -1.218  0.00  0.00    -0.269 OA
ATOM     14  H15 <0> d           2.862  -2.510   0.161  0.00  0.00     0.190 HD
BRANCH  12  15
ATOM     15  C16 <0> d           1.086  -0.648  -0.371  0.00  0.00     0.246 C 
ATOM     16  O6  <0> d          -0.165  -0.061  -0.747  0.00  0.00    -0.331 OA
ATOM     17  C23 <0> d          -0.203   1.297  -0.833  0.00  0.00     0.103 A 
ATOM     18  C18 <0> d           0.971   2.037  -0.916  0.00  0.00     0.102 A 
ATOM     19  C22 <0> d          -1.429   1.944  -0.841  0.00  0.00     0.040 A 
ATOM     20  O5  <0> d           2.185   1.422  -0.910  0.00  0.00    -0.345 OA
ATOM     21  C19 <0> d           0.908   3.420  -1.007  0.00  0.00     0.039 A 
ATOM     22  C17 <0> d           2.196   0.019  -1.195  0.00  0.00     0.218 C 
ATOM     23  C20 <0> d          -0.317   4.059  -1.011  0.00  0.00     0.003 A 
ATOM     24  C21 <0> d          -1.484   3.323  -0.925  0.00  0.00     0.003 A 
ENDBRANCH  12  15
ENDBRANCH   9  11
ENDBRANCH   4   7
BRANCH   1  25
ATOM     25  S1  <0> d           3.005 -10.956  -1.321  0.00  0.00     0.263 S 
ATOM     26  O1  <0> d           2.117 -11.142  -2.415  0.00  0.00    -0.200 OA
ATOM     27  O2  <0> d           4.358 -11.387  -1.356  0.00  0.00    -0.200 OA
BRANCH  25  28
ATOM     28  N1  <0> d           2.307 -11.694  -0.014  0.00  0.00    -0.280 N 
ATOM     29  H9  <0> d           2.806 -12.350   0.497  0.00  0.00     0.179 HD
BRANCH  28  30
ATOM     30  C7  <0> d           0.998 -11.372   0.354  0.00  0.00     0.048 A 
ATOM     31  C2  <0> d           0.642 -11.332   1.696  0.00  0.00    -0.035 A 
ATOM     32  C1  <0> d           1.667 -11.636   2.758  0.00  0.00     0.050 C 
ATOM     33  C3  <0> d          -0.653 -11.014   2.056  0.00  0.00     0.009 A 
ATOM     34  C4  <0> d          -1.594 -10.734   1.082  0.00  0.00     0.001 A 
ATOM     35  C5  <0> d          -1.242 -10.773  -0.255  0.00  0.00     0.002 A 
ATOM     36  C6  <0> d           0.051 -11.086  -0.622  0.00  0.00     0.030 A 
ENDBRANCH  28  30
ENDBRANCH  25  28
ENDBRANCH   1  25
TORSDOF 6
