REMARK  6 active torsions:
REMARK  status: ('A' for Active; 'I' for Inactive)
REMARK    1  A    between atoms: C3_3  and  C7_8 
REMARK    2  A    between atoms: C5_5  and  N1_7 
REMARK    3  A    between atoms: N3_16  and  C14_17 
REMARK    4  A    between atoms: C14_17  and  C15_18 
REMARK    5  A    between atoms: C15_18  and  C16_19 
REMARK    6  A    between atoms: C16_19  and  N4_20 
ROOT
ATOM      1  C7  <0> d           3.657   2.171  -0.011  0.00  0.00     0.141 A 
ATOM      2  N2  <0> d           4.843   1.654  -0.221  0.00  0.00    -0.228 NA
ATOM      3  C8  <0> d           5.781   2.632  -0.173  0.00  0.00     0.088 A 
ATOM      4  C9  <0> d           7.173   2.634  -0.324  0.00  0.00     0.073 A 
ATOM      5  C10 <0> d           7.873   3.817  -0.218  0.00  0.00     0.107 A 
ATOM      6  C11 <0> d           7.200   5.015   0.040  0.00  0.00     0.107 A 
ATOM      7  C12 <0> d           5.827   5.024   0.192  0.00  0.00     0.072 A 
ATOM      8  C13 <0> d           5.110   3.839   0.087  0.00  0.00     0.068 A 
ATOM      9  N3  <0> d           3.767   3.522   0.179  0.00  0.00    -0.329 N 
ATOM     10  O1  <0> d           8.118   6.025   0.097  0.00  0.00    -0.323 OA
ATOM     11  C17 <0> d           9.391   5.378   0.280  0.00  0.00     0.352 C 
ATOM     12  O2  <0> d           9.209   4.083  -0.322  0.00  0.00    -0.323 OA
ENDROOT
BRANCH   1  13
ATOM     13  C3  <0> d           2.389   1.409   0.010  0.00  0.00     0.012 A 
ATOM     14  C2  <0> d           1.269   1.933   0.655  0.00  0.00     0.015 A 
ATOM     15  C1  <0> d           0.086   1.221   0.673  0.00  0.00     0.003 A 
ATOM     16  C6  <0> d           0.007  -0.012   0.054  0.00  0.00     0.029 A 
ATOM     17  C5  <0> d           1.119  -0.543  -0.591  0.00  0.00     0.026 A 
ATOM     18  C4  <0> d           2.310   0.165  -0.615  0.00  0.00     0.044 A 
BRANCH  17  19
ATOM     19  N1  <0> d           1.034  -1.790  -1.216  0.00  0.00    -0.399 N 
ATOM     20  H5  <0> d           1.809  -2.160  -1.666  0.00  0.00     0.156 HD
ATOM     21  H6  <0> d           0.200  -2.285  -1.199  0.00  0.00     0.156 HD
ENDBRANCH  17  19
ENDBRANCH   1  13
BRANCH   9  22
ATOM     22  C14 <0> d           2.669   4.457   0.434  0.00  0.00     0.133 C 
BRANCH  22  23
ATOM     23  C15 <0> d           2.510   4.656   1.943  0.00  0.00     0.047 C 
BRANCH  23  24
ATOM     24  C16 <0> d           1.362   5.632   2.210  0.00  0.00     0.231 C 
BRANCH  24  25
ATOM     25  N4  <0> d           1.209   5.824   3.659  0.00  0.00    -0.079 N 
ATOM     26  H15 <0> d           1.006   4.938   4.096  0.00  0.00     0.274 HD
ATOM     27  H16 <0> d           2.065   6.198   4.040  0.00  0.00     0.274 HD
ATOM     28  H19 <0> d           0.453   6.468   3.835  0.00  0.00     0.274 HD
ENDBRANCH  24  25
ENDBRANCH  23  24
ENDBRANCH  22  23
ENDBRANCH   9  22
TORSDOF 6
