REMARK  4 active torsions:
REMARK  status: ('A' for Active; 'I' for Inactive)
REMARK    1  A    between atoms: C2_2  and  C3_3 
REMARK    2  A    between atoms: C2_2  and  N2_13 
REMARK       I    between atoms: N2_13  and  C11_14 
REMARK    3  A    between atoms: C11_14  and  C12_16 
REMARK    4  A    between atoms: C12_16  and  C13_17 
ROOT
ATOM      1  N2  <0> d           0.711  -0.489   1.189  0.00  0.00    -0.353 N 
ATOM      2  C11 <0> d           2.054  -0.600   1.174  0.00  0.00     0.222 C 
ATOM      3  O2  <0> d           2.676  -0.297   0.177  0.00  0.00    -0.273 OA
ATOM      4  H11 <0> d           0.213  -0.731   1.986  0.00  0.00     0.163 HD
ENDROOT
BRANCH   1   5
ATOM      5  C2  <0> d           0.002  -0.004   0.002  0.00  0.00     0.113 C 
ATOM      6  C1  <0> d          -0.019   1.526   0.010  0.00  0.00     0.037 C 
BRANCH   5   7
ATOM      7  C3  <0> d          -1.412  -0.526   0.013  0.00  0.00    -0.035 A 
ATOM      8  C8  <0> d          -2.002  -0.955  -1.163  0.00  0.00     0.019 A 
ATOM      9  C7  <0> d          -3.292  -1.435  -1.149  0.00  0.00    -0.022 A 
ATOM     10  C6  <0> d          -4.019  -1.487   0.034  0.00  0.00     0.041 A 
ATOM     11  C9  <0> d          -4.202  -1.970  -2.230  0.00  0.00     0.144 A 
ATOM     12  C5  <0> d          -3.419  -1.048   1.214  0.00  0.00     0.031 A 
ATOM     13  N1  <0> d          -5.293  -2.002  -0.204  0.00  0.00    -0.326 N 
ATOM     14  C4  <0> d          -2.125  -0.572   1.197  0.00  0.00     0.011 A 
ATOM     15  C10 <0> d          -5.483  -2.311  -1.498  0.00  0.00     0.226 A 
ATOM     16  H10 <0> d          -5.965  -2.124   0.485  0.00  0.00     0.169 HD
ATOM     17  O1  <0> d          -6.491  -2.773  -1.988  0.00  0.00    -0.273 OA
ENDBRANCH   5   7
ENDBRANCH   1   5
BRANCH   2  18
ATOM     18  C12 <0> d           2.783  -1.099   2.395  0.00  0.00     0.143 C 
BRANCH  18  19
ATOM     19  C13 <0> d           4.264  -1.128   2.119  0.00  0.00    -0.021 A 
ATOM     20  C16 <0> d           5.198  -0.009   2.257  0.00  0.00    -0.001 A 
ATOM     21  C15 <0> d           6.462  -0.510   1.895  0.00  0.00     0.044 A 
ATOM     22  C17 <0> d           5.064   1.325   2.649  0.00  0.00     0.014 A 
ATOM     23  N3  <0> d           6.292  -1.833   1.554  0.00  0.00    -0.360 N 
ATOM     24  C20 <0> d           7.566   0.335   1.933  0.00  0.00     0.030 A 
ATOM     25  C14 <0> d           4.976  -2.183   1.693  0.00  0.00     0.099 A 
ATOM     26  C21 <0> d           7.359  -2.731   1.108  0.00  0.00     0.155 C 
ATOM     27  C19 <0> d           7.410   1.650   2.314  0.00  0.00     0.002 A 
ATOM     28  C18 <0> d           6.162   2.138   2.675  0.00  0.00     0.001 A 
ENDBRANCH  18  19
ENDBRANCH   2  18
TORSDOF 4
