REMARK  8 active torsions:
REMARK  status: ('A' for Active; 'I' for Inactive)
REMARK    1  A    between atoms: C2_2  and  O1_3 
REMARK    2  A    between atoms: O1_3  and  C3_4 
REMARK    3  A    between atoms: C3_4  and  C4_5 
REMARK       I    between atoms: C4_5  and  N1_7 
REMARK    4  A    between atoms: N1_7  and  N2_8 
REMARK       I    between atoms: N2_8  and  C5_9 
REMARK    5  A    between atoms: C5_9  and  C6_11 
REMARK    6  A    between atoms: C6_11  and  S1_12 
REMARK    7  A    between atoms: S1_12  and  C7_15 
REMARK    8  A    between atoms: C7_15  and  C8_16 
ROOT
ATOM      1  N2  <0> d          -4.564  -4.019   0.024  0.00  0.00    -0.267 N 
ATOM      2  C5  <0> d          -4.896  -5.325   0.020  0.00  0.00     0.250 C 
ATOM      3  O3  <0> d          -4.028  -6.171   0.007  0.00  0.00    -0.271 OA
ATOM      4  H9  <0> d          -5.258  -3.341   0.034  0.00  0.00     0.190 HD
ENDROOT
BRANCH   2   5
ATOM      5  C6  <0> d          -6.347  -5.733   0.032  0.00  0.00     0.244 C 
BRANCH   5   6
ATOM      6  S1  <0> d          -6.465  -7.543   0.023  0.00  0.00     0.157 S 
ATOM      7  O4  <0> d          -5.945  -8.022  -1.209  0.00  0.00    -0.227 OA
ATOM      8  O5  <0> d          -5.922  -8.035   1.240  0.00  0.00    -0.227 OA
BRANCH   6   9
ATOM      9  C7  <0> d          -8.257  -7.827   0.039  0.00  0.00     0.179 C 
BRANCH   9  10
ATOM     10  C8  <0> d          -8.530  -9.309   0.034  0.00  0.00    -0.044 A 
ATOM     11  C13 <0> d          -8.644  -9.995   1.228  0.00  0.00     0.009 A 
ATOM     12  C12 <0> d          -8.900 -11.354   1.224  0.00  0.00     0.019 A 
ATOM     13  C11 <0> d          -9.031 -12.029   0.024  0.00  0.00     0.011 A 
ATOM     14  C10 <0> d          -8.912 -11.343  -1.172  0.00  0.00     0.019 A 
ATOM     15 Br1  <0> d          -9.375 -13.888   0.017  0.00  0.00    -0.051 Br
ATOM     16  C9  <0> d          -8.662  -9.983  -1.166  0.00  0.00     0.009 A 
ENDBRANCH   9  10
ENDBRANCH   6   9
ENDBRANCH   5   6
ENDBRANCH   2   5
BRANCH   1  17
ATOM     17  N1  <0> d          -3.215  -3.639   0.013  0.00  0.00    -0.266 N 
ATOM     18  C4  <0> d          -2.883  -2.333   0.017  0.00  0.00     0.259 C 
ATOM     19  O2  <0> d          -3.751  -1.486   0.030  0.00  0.00    -0.269 OA
ATOM     20  H8  <0> d          -2.521  -4.316   0.003  0.00  0.00     0.190 HD
BRANCH  18  21
ATOM     21  C3  <0> d          -1.432  -1.925   0.005  0.00  0.00     0.272 C 
BRANCH  21  22
ATOM     22  O1  <0> d          -1.339  -0.499   0.012  0.00  0.00    -0.382 OA
BRANCH  22  23
ATOM     23  C2  <0> d           0.002  -0.004   0.002  0.00  0.00     0.163 C 
ATOM     24  C1  <0> d          -0.019   1.526   0.010  0.00  0.00     0.033 C 
ENDBRANCH  22  23
ENDBRANCH  21  22
ENDBRANCH  18  21
ENDBRANCH   1  17
TORSDOF 8
