REMARK  6 active torsions:
REMARK  status: ('A' for Active; 'I' for Inactive)
REMARK    1  A    between atoms: C2_2  and  C3_3 
REMARK    2  A    between atoms: C2_2  and  N4_19 
REMARK       I    between atoms: C3_3  and  N1_5 
REMARK    3  A    between atoms: N1_5  and  C5_7 
REMARK    4  A    between atoms: C5_7  and  C6_8 
REMARK       I    between atoms: N4_19  and  C12_20 
REMARK    5  A    between atoms: C12_20  and  C13_22 
REMARK    6  A    between atoms: C16_25  and  C19_28 
ROOT
ATOM      1  C1  <0> d          -0.019   1.526   0.010  0.00  0.00     0.042 C 
ATOM      2  C2  <0> d           0.002  -0.004   0.002  0.00  0.00     0.173 C 
ENDROOT
BRANCH   2   3
ATOM      3  C3  <0> d           0.707  -0.490  -1.238  0.00  0.00     0.242 C 
ATOM      4  O1  <0> d           1.704  -1.174  -1.140  0.00  0.00    -0.271 OA
ATOM      5  N1  <0> d           0.231  -0.164  -2.456  0.00  0.00    -0.348 N 
ATOM      6  C4  <0> d          -0.973   0.662  -2.574  0.00  0.00     0.153 C 
BRANCH   5   7
ATOM      7  C5  <0> d           0.917  -0.637  -3.661  0.00  0.00     0.203 C 
BRANCH   7   8
ATOM      8  C6  <0> d           0.347  -1.970  -4.073  0.00  0.00     0.125 A 
ATOM      9  N3  <0> d          -0.603  -2.481  -3.357  0.00  0.00    -0.232 NA
ATOM     10  C9  <0> d          -1.178  -3.688  -3.669  0.00  0.00     0.082 A 
ATOM     11  C8  <0> d          -0.665  -4.340  -4.804  0.00  0.00     0.101 A 
ATOM     12  C10 <0> d          -2.209  -4.363  -3.001  0.00  0.00     0.040 A 
ATOM     13  C7  <0> d           0.363  -3.778  -5.562  0.00  0.00     0.266 A 
ATOM     14  S1  <0> d          -1.620  -5.831  -4.890  0.00  0.00    -0.094 SA
ATOM     15  N2  <0> d           0.860  -2.579  -5.174  0.00  0.00    -0.309 N 
ATOM     16  O2  <0> d           0.802  -4.351  -6.545  0.00  0.00    -0.267 OA
ATOM     17  H2  <0> d           1.575  -2.160  -5.677  0.00  0.00     0.170 HD
ATOM     18  C11 <0> d          -2.646  -5.557  -3.455  0.00  0.00     0.053 A 
ENDBRANCH   7   8
ENDBRANCH   5   7
ENDBRANCH   2   3
BRANCH   2  19
ATOM     19  N4  <0> d           0.711  -0.489   1.189  0.00  0.00    -0.344 N 
ATOM     20  C12 <0> d           0.051  -0.633   2.355  0.00  0.00     0.252 C 
ATOM     21  O3  <0> d          -1.131  -0.361   2.423  0.00  0.00    -0.268 OA
ATOM     22  H13 <0> d           1.654  -0.707   1.135  0.00  0.00     0.163 HD
BRANCH  20  23
ATOM     23  C13 <0> d           0.766  -1.123   3.553  0.00  0.00     0.032 A 
ATOM     24  C18 <0> d           0.086  -1.274   4.763  0.00  0.00     0.017 A 
ATOM     25  C17 <0> d           0.758  -1.736   5.875  0.00  0.00     0.009 A 
ATOM     26  C16 <0> d           2.106  -2.040   5.797  0.00  0.00    -0.051 A 
ATOM     27  C15 <0> d           2.787  -1.888   4.602  0.00  0.00     0.009 A 
ATOM     28  C14 <0> d           2.126  -1.432   3.481  0.00  0.00     0.017 A 
BRANCH  26  29
ATOM     29  C19 <0> d           2.835  -2.539   7.018  0.00  0.00    -0.024 C 
ATOM     30  C20 <0> d           3.974  -1.578   7.360  0.00  0.00     0.019 C 
ATOM     31  C21 <0> d           1.862  -2.617   8.196  0.00  0.00     0.019 C 
ATOM     32  C22 <0> d           3.407  -3.930   6.737  0.00  0.00     0.019 C 
ENDBRANCH  26  29
ENDBRANCH  20  23
ENDBRANCH   2  19
TORSDOF 6
