REMARK  3 active torsions:
REMARK  status: ('A' for Active; 'I' for Inactive)
REMARK    1  A    between atoms: C5_7  and  N3_11 
REMARK    2  A    between atoms: N3_11  and  C9_12 
REMARK    3  A    between atoms: C9_12  and  C10_13 
ROOT
ATOM      1  C1  <0> d           0.193  -2.849  -1.302  0.00  0.00     0.179 C 
ATOM      2  N1  <0> d           0.999  -1.680  -1.663  0.00  0.00    -0.278 N 
ATOM      3  C2  <0> d           0.919  -0.461  -1.105  0.00  0.00     0.040 A 
ATOM      4  C3  <0> d           1.832   0.337  -1.716  0.00  0.00     0.016 A 
ATOM      5  C4  <0> d           2.489  -0.423  -2.681  0.00  0.00     0.150 A 
ATOM      6  N2  <0> d           1.992  -1.635  -2.653  0.00  0.00    -0.184 NA
ATOM      7  C5  <0> d           2.054   1.788  -1.368  0.00  0.00     0.222 C 
ATOM      8  C6  <0> d           1.417   2.060  -0.000  0.00  0.00     0.038 C 
ATOM      9  C7  <0> d          -0.019   1.529   0.011  0.00  0.00     0.008 C 
ATOM     10  C8  <0> d           0.002  -0.004   0.002  0.00  0.00     0.059 C 
ENDROOT
BRANCH   7  11
ATOM     11  N3  <0> d           3.495   2.067  -1.308  0.00  0.00    -0.063 N 
ATOM     12  H12 <0> d           3.674   2.930  -0.651  0.00  0.00     0.278 HD
ATOM     13  H19 <0> d           4.023   1.187  -0.910  0.00  0.00     0.278 HD
BRANCH  11  14
ATOM     14  C9  <0> d           4.028   2.372  -2.643  0.00  0.00     0.271 C 
BRANCH  14  15
ATOM     15  C10 <0> d           5.506   2.652  -2.541  0.00  0.00    -0.030 A 
ATOM     16  C14 <0> d           6.432   1.628  -2.666  0.00  0.00     0.028 A 
ATOM     17  C13 <0> d           7.779   1.923  -2.567  0.00  0.00     0.116 A 
ATOM     18  N4  <0> d           8.185   3.160  -2.358  0.00  0.00    -0.273 NA
ATOM     19  C12 <0> d           7.332   4.158  -2.235  0.00  0.00     0.116 A 
ATOM     20  C11 <0> d           5.971   3.940  -2.328  0.00  0.00     0.028 A 
ENDBRANCH  14  15
ENDBRANCH  11  14
ENDBRANCH   7  11
TORSDOF 3
