REMARK  4 active torsions:
REMARK  status: ('A' for Active; 'I' for Inactive)
REMARK    1  A    between atoms: C2_2  and  O1_3 
REMARK    2  A    between atoms: O1_3  and  P1_4 
REMARK    3  A    between atoms: C6_11  and  C13_20 
REMARK    4  A    between atoms: C18_25  and  O4_26 
ROOT
ATOM      1  P1  <0> d           0.877  -2.026  -1.510  0.00  0.00     0.444 P 
ATOM      2  O2  <0> d           1.285  -2.763  -0.293  0.00  0.00    -0.233 OA
ATOM      3  N1  <0> d          -0.511  -2.665  -2.133  0.00  0.00    -0.255 N 
ATOM      4  N2  <0> d          -0.407  -3.827  -2.872  0.00  0.00    -0.219 NA
ATOM      5  C3  <0> d          -1.755  -4.147  -3.373  0.00  0.00     0.123 C 
ATOM      6  C4  <0> d          -1.749  -5.444  -4.169  0.00  0.00     0.032 C 
ATOM      7  C5  <0> d          -1.323  -6.598  -3.303  0.00  0.00    -0.007 C 
ATOM      8  C6  <0> d          -0.832  -7.707  -3.881  0.00  0.00    -0.009 C 
ATOM      9  C7  <0> d          -0.735  -7.770  -5.357  0.00  0.00     0.018 C 
ATOM     10  C8  <0> d          -0.710  -6.646  -6.064  0.00  0.00    -0.002 C 
ATOM     11  C9  <0> d          -0.774  -5.321  -5.343  0.00  0.00     0.020 C 
ATOM     12  C10 <0> d           0.611  -4.976  -4.793  0.00  0.00     0.033 C 
ATOM     13  C11 <0> d           0.557  -3.686  -3.968  0.00  0.00     0.104 C 
ATOM     14  C12 <0> d           1.974  -3.429  -3.440  0.00  0.00     0.201 C 
ATOM     15  O3  <0> d           1.994  -2.208  -2.680  0.00  0.00    -0.296 OA
ATOM     16 Br1  <0> d          -0.649  -9.444  -6.232  0.00  0.00    -0.051 Br
ATOM     17  H9  <0> d          -1.370  -2.240  -1.984  0.00  0.00     0.186 HD
ENDROOT
BRANCH   8  18
ATOM     18  C13 <0> d          -0.392  -8.855  -3.052  0.00  0.00     0.008 A 
ATOM     19  C18 <0> d           0.971  -9.106  -2.866  0.00  0.00     0.076 A 
ATOM     20  C17 <0> d           1.373 -10.177  -2.085  0.00  0.00     0.037 A 
ATOM     21  C16 <0> d           0.429 -11.000  -1.500  0.00  0.00     0.003 A 
ATOM     22  C15 <0> d          -0.921 -10.757  -1.686  0.00  0.00     0.001 A 
ATOM     23  C14 <0> d          -1.335  -9.691  -2.458  0.00  0.00     0.015 A 
BRANCH  19  24
ATOM     24  O4  <0> d           1.898  -8.300  -3.447  0.00  0.00    -0.360 OA
ATOM     25  H22 <0> d           2.164  -7.549  -2.899  0.00  0.00     0.217 HD
ENDBRANCH  19  24
ENDBRANCH   8  18
BRANCH   1  26
ATOM     26  O1  <0> d           0.671  -0.465  -1.174  0.00  0.00    -0.298 OA
BRANCH  26  27
ATOM     27  C2  <0> d           0.002  -0.004   0.002  0.00  0.00     0.175 C 
ATOM     28  C1  <0> d          -0.019   1.526   0.010  0.00  0.00     0.034 C 
ENDBRANCH  26  27
ENDBRANCH   1  26
TORSDOF 4
