REMARK  5 active torsions:
REMARK  status: ('A' for Active; 'I' for Inactive)
REMARK       I    between atoms: N1_4  and  C6_7 
REMARK    1  A    between atoms: C6_7  and  C7_9 
REMARK    2  A    between atoms: C12_14  and  N2_15 
REMARK       I    between atoms: N2_15  and  C13_16 
REMARK    3  A    between atoms: C13_16  and  C14_18 
REMARK    4  A    between atoms: C16_20  and  C23_29 
REMARK    5  A    between atoms: N4_22  and  C17_23 
ROOT
ATOM      1  N2  <0> d          -0.533   0.034   0.750  0.00  0.00    -0.321 N 
ATOM      2  C13 <0> d           0.170   0.510   1.797  0.00  0.00     0.275 C 
ATOM      3  O2  <0> d          -0.107   1.595   2.273  0.00  0.00    -0.266 OA
ATOM      4  H16 <0> d          -0.272  -0.800   0.330  0.00  0.00     0.169 HD
ENDROOT
BRANCH   1   5
ATOM      5  C12 <0> d          -1.630   0.743   0.269  0.00  0.00     0.050 A 
ATOM      6  C7  <0> d          -2.719   0.059  -0.292  0.00  0.00     0.059 A 
ATOM      7  C8  <0> d          -3.814   0.782  -0.771  0.00  0.00     0.019 A 
ATOM      8  C9  <0> d          -3.819   2.158  -0.691  0.00  0.00     0.001 A 
ATOM      9  C10 <0> d          -2.742   2.830  -0.135  0.00  0.00     0.002 A 
ATOM     10  C11 <0> d          -1.655   2.129   0.347  0.00  0.00     0.030 A 
BRANCH   6  11
ATOM     11  C6  <0> d          -2.709  -1.413  -0.375  0.00  0.00     0.256 C 
ATOM     12  N1  <0> d          -3.115  -2.028  -1.504  0.00  0.00    -0.345 N 
ATOM     13  C3  <0> d          -3.232  -3.492  -1.566  0.00  0.00     0.154 C 
ATOM     14  C4  <0> d          -3.459  -1.250  -2.704  0.00  0.00     0.154 C 
ATOM     15  C2  <0> d          -2.473  -3.990  -2.801  0.00  0.00     0.254 C 
ATOM     16  N5  <0> d          -2.988  -3.281  -3.992  0.00  0.00    -0.072 N 
ATOM     17  C1  <0> d          -2.380  -3.843  -5.216  0.00  0.00     0.269 C 
ATOM     18  C5  <0> d          -2.685  -1.836  -3.896  0.00  0.00     0.254 C 
ATOM     19  H26 <0> d          -4.006  -3.405  -4.039  0.00  0.00     0.279 HD
ATOM     20  O1  <0> d          -2.333  -2.073   0.575  0.00  0.00    -0.267 OA
ENDBRANCH   6  11
ENDBRANCH   1   5
BRANCH   2  21
ATOM     21  C14 <0> d           1.271  -0.282   2.364  0.00  0.00     0.129 A 
ATOM     22  N4  <0> d           2.134   0.116   3.352  0.00  0.00    -0.228 N 
ATOM     23  N3  <0> d           3.027  -0.935   3.595  0.00  0.00    -0.166 NA
ATOM     24  C16 <0> d           2.728  -1.938   2.791  0.00  0.00     0.097 A 
ATOM     25  C15 <0> d           1.625  -1.565   2.005  0.00  0.00     0.072 A 
BRANCH  22  26
ATOM     26  C17 <0> d           2.124   1.355   4.004  0.00  0.00     0.059 A 
ATOM     27  C22 <0> d           2.236   1.414   5.387  0.00  0.00     0.031 A 
ATOM     28  C21 <0> d           2.227   2.638   6.027  0.00  0.00     0.002 A 
ATOM     29  C20 <0> d           2.105   3.803   5.292  0.00  0.00     0.000 A 
ATOM     30  C19 <0> d           1.992   3.747   3.914  0.00  0.00     0.002 A 
ATOM     31  C18 <0> d           2.007   2.527   3.268  0.00  0.00     0.031 A 
ENDBRANCH  22  26
BRANCH  24  32
ATOM     32  C23 <0> d           3.432  -3.237   2.730  0.00  0.00     0.035 A 
ATOM     33  S1  <0> d           3.100  -4.649   1.690  0.00  0.00    -0.100 SA
ATOM     34  C26 <0> d           4.404  -5.713   2.285  0.00  0.00     0.050 A 
ATOM     35  C25 <0> d           4.995  -4.938   3.229  0.00  0.00     0.008 A 
ATOM     36  C24 <0> d           4.504  -3.671   3.462  0.00  0.00     0.022 A 
ENDBRANCH  24  32
ENDBRANCH   2  21
TORSDOF 5
