REMARK  4 active torsions:
REMARK  status: ('A' for Active; 'I' for Inactive)
REMARK    1  A    between atoms: C2_2  and  C3_3 
REMARK    2  A    between atoms: C3_3  and  N1_4 
REMARK    3  A    between atoms: N2_7  and  C8_10 
REMARK    4  A    between atoms: C8_10  and  C9_11 
ROOT
ATOM      1  N1  <0> d           1.471  -1.496   1.235  0.00  0.00     0.096 N 
ATOM      2  C4  <0> d           1.597  -0.592   2.387  0.00  0.00     0.300 C 
ATOM      3  C5  <0> d           1.694  -1.417   3.672  0.00  0.00     0.265 C 
ATOM      4  N2  <0> d           2.861  -2.305   3.596  0.00  0.00    -0.058 N 
ATOM      5  C6  <0> d           2.710  -3.219   2.456  0.00  0.00     0.265 C 
ATOM      6  C7  <0> d           2.620  -2.409   1.161  0.00  0.00     0.300 C 
ATOM      7  H15 <0> d           3.697  -1.753   3.475  0.00  0.00     0.280 HD
ENDROOT
BRANCH   4   8
ATOM      8  C8  <0> d           2.965  -3.084   4.837  0.00  0.00     0.347 C 
BRANCH   8   9
ATOM      9  C9  <0> d           4.229  -3.905   4.811  0.00  0.00     0.199 C 
ATOM     10  O1  <0> d           4.974  -3.847   3.847  0.00  0.00    -0.647 OA
ATOM     11  O2  <0> d           4.506  -4.628   5.753  0.00  0.00    -0.647 OA
ENDBRANCH   8   9
ENDBRANCH   4   8
BRANCH   1  12
ATOM     12  C3  <0> d           1.317  -0.740  -0.015  0.00  0.00     0.318 C 
BRANCH  12  13
ATOM     13  C2  <0> d           0.002  -0.004   0.002  0.00  0.00     0.007 C 
ATOM     14  C1  <0> d          -0.016   1.307   0.009  0.00  0.00     0.029 C 
ATOM     15 Br1  <0> d          -1.623  -0.972   0.012  0.00  0.00    -0.055 Br
ENDBRANCH  12  13
ENDBRANCH   1  12
TORSDOF 4
