REMARK  5 active torsions:
REMARK  status: ('A' for Active; 'I' for Inactive)
REMARK    1  A    between atoms: C2_2  and  C4_4 
REMARK    2  A    between atoms: C10_11  and  C11_13 
REMARK    3  A    between atoms: C11_13  and  C12_14 
REMARK    4  A    between atoms: C12_14  and  C13_15 
REMARK    5  A    between atoms: C13_15  and  N2_16 
ROOT
ATOM      1  C4  <0> d          -2.143   1.058   1.278  0.00  0.00    -0.023 A 
ATOM      2  C5  <0> d          -2.988   1.385   0.263  0.00  0.00     0.029 A 
ATOM      3  C6  <0> d          -4.299   0.927   0.231  0.00  0.00     0.013 A 
ATOM      4  C7  <0> d          -4.760   0.117   1.254  0.00  0.00     0.040 A 
ATOM      5  C8  <0> d          -3.914  -0.218   2.282  0.00  0.00     0.037 A 
ATOM      6  C9  <0> d          -2.574   0.230   2.337  0.00  0.00     0.081 A 
ATOM      7  N1  <0> d          -1.888  -0.192   3.421  0.00  0.00    -0.244 NA
ATOM      8  C10 <0> d          -2.420  -0.957   4.332  0.00  0.00     0.076 A 
ATOM      9  S1  <0> d          -4.043  -1.191   3.760  0.00  0.00    -0.073 SA
ATOM     10 Br1  <0> d          -5.442   1.405  -1.197  0.00  0.00    -0.051 Br
ENDROOT
BRANCH   8  11
ATOM     11  C11 <0> d          -1.780  -1.506   5.581  0.00  0.00     0.069 C 
BRANCH  11  12
ATOM     12  C12 <0> d          -1.990  -0.524   6.735  0.00  0.00     0.034 C 
BRANCH  12  13
ATOM     13  C13 <0> d          -1.340  -1.082   8.003  0.00  0.00     0.230 C 
BRANCH  13  14
ATOM     14  N2  <0> d          -1.541  -0.139   9.112  0.00  0.00    -0.079 N 
ATOM     15  H16 <0> d          -1.074  -0.540  10.024  0.00  0.00     0.274 HD
ATOM     16  H17 <0> d          -2.619   0.001   9.283  0.00  0.00     0.274 HD
ATOM     17  H18 <0> d          -1.081   0.828   8.859  0.00  0.00     0.274 HD
ENDBRANCH  13  14
ENDBRANCH  12  13
ENDBRANCH  11  12
ENDBRANCH   8  11
BRANCH   1  18
ATOM     18  C2  <0> d          -0.729   1.579   1.267  0.00  0.00     0.013 C 
ATOM     19  C1  <0> d          -0.013   1.086   0.008  0.00  0.00     0.015 C 
ATOM     20  C3  <0> d          -0.750   3.109   1.275  0.00  0.00     0.015 C 
ENDBRANCH   1  18
TORSDOF 5
