REMARK  5 active torsions:
REMARK  status: ('A' for Active; 'I' for Inactive)
REMARK    1  A    between atoms: C5_5  and  C19_26 
REMARK    2  A    between atoms: C6_6  and  C12_16 
REMARK    3  A    between atoms: C8_9  and  N2_11 
REMARK       I    between atoms: N2_11  and  C10_12 
REMARK       I    between atoms: C10_12  and  N3_14 
REMARK       I    between atoms: C12_16  and  N4_18 
REMARK    4  A    between atoms: N4_18  and  C13_19 
REMARK    5  A    between atoms: C13_19  and  C14_20 
ROOT
ATOM      1  C1  <0> d          -0.126   1.516   0.103  0.00  0.00     0.048 C 
ATOM      2  C2  <0> d          -0.085   0.010   0.078  0.00  0.00    -0.059 A 
ATOM      3  C3  <0> d          -0.068  -0.621  -1.118  0.00  0.00     0.021 A 
ATOM      4  C4  <0> d          -0.029  -2.036  -1.181  0.00  0.00     0.003 A 
ATOM      5  C5  <0> d          -0.006  -2.927  -2.239  0.00  0.00    -0.004 A 
ATOM      6  C6  <0> d           0.032  -4.304  -1.614  0.00  0.00     0.209 A 
ATOM      7  N1  <0> d           0.027  -4.089  -0.163  0.00  0.00    -0.370 N 
ATOM      8  C7  <0> d          -0.007  -2.801   0.081  0.00  0.00     0.067 A 
ATOM      9  C8  <0> d          -0.027  -2.042   1.341  0.00  0.00     0.064 A 
ATOM     10  C9  <0> d          -0.060  -0.683   1.292  0.00  0.00     0.038 A 
ATOM     11  H24 <0> d           0.047  -4.789   0.509  0.00  0.00     0.161 HD
ENDROOT
BRANCH   6  12
ATOM     12  C12 <0> d          -1.182  -5.095  -2.027  0.00  0.00     0.245 C 
ATOM     13  O2  <0> d          -2.162  -5.120  -1.312  0.00  0.00    -0.271 OA
ATOM     14  N4  <0> d          -1.180  -5.775  -3.191  0.00  0.00    -0.355 N 
ATOM     15  H12 <0> d          -0.373  -5.815  -3.727  0.00  0.00     0.162 HD
BRANCH  14  16
ATOM     16  C13 <0> d          -2.396  -6.453  -3.645  0.00  0.00     0.162 C 
BRANCH  16  17
ATOM     17  C14 <0> d          -2.129  -7.134  -4.963  0.00  0.00    -0.023 A 
ATOM     18  C18 <0> d          -1.671  -8.437  -4.998  0.00  0.00     0.124 A 
ATOM     19  N5  <0> d          -1.441  -9.041  -6.147  0.00  0.00    -0.273 NA
ATOM     20  C17 <0> d          -1.625  -8.429  -7.301  0.00  0.00     0.116 A 
ATOM     21  C16 <0> d          -2.076  -7.124  -7.345  0.00  0.00     0.020 A 
ATOM     22  C15 <0> d          -2.335  -6.458  -6.157  0.00  0.00     0.012 A 
ENDBRANCH  16  17
ENDBRANCH  14  16
ENDBRANCH   6  12
BRANCH   5  23
ATOM     23  C19 <0> d          -0.016  -2.604  -3.668  0.00  0.00    -0.026 A 
ATOM     24  C24 <0> d           0.700  -3.397  -4.575  0.00  0.00     0.012 A 
ATOM     25  C23 <0> d           0.679  -3.090  -5.918  0.00  0.00     0.001 A 
ATOM     26  C22 <0> d          -0.036  -1.994  -6.371  0.00  0.00     0.000 A 
ATOM     27  C21 <0> d          -0.742  -1.201  -5.481  0.00  0.00     0.001 A 
ATOM     28  C20 <0> d          -0.738  -1.497  -4.136  0.00  0.00     0.012 A 
ENDBRANCH   5  23
BRANCH   9  29
ATOM     29  N2  <0> d          -0.009  -2.708   2.570  0.00  0.00    -0.307 N 
ATOM     30  C10 <0> d           0.470  -2.086   3.666  0.00  0.00     0.320 C 
ATOM     31  O1  <0> d           0.979  -0.986   3.567  0.00  0.00    -0.247 OA
ATOM     32  N3  <0> d           0.384  -2.683   4.871  0.00  0.00    -0.347 N 
ATOM     33  C11 <0> d           0.904  -2.006   6.062  0.00  0.00     0.151 C 
ATOM     34  H8  <0> d          -0.022  -3.560   4.950  0.00  0.00     0.163 HD
ATOM     35  H7  <0> d          -0.340  -3.617   2.635  0.00  0.00     0.170 HD
ENDBRANCH   9  29
TORSDOF 5
