REMARK  4 active torsions:
REMARK  status: ('A' for Active; 'I' for Inactive)
REMARK    1  A    between atoms: C3_3  and  O1_9 
REMARK    2  A    between atoms: O1_9  and  C7_10 
REMARK    3  A    between atoms: C7_10  and  C8_11 
REMARK       I    between atoms: C8_11  and  N1_13 
REMARK    4  A    between atoms: N1_13  and  N2_14 
ROOT
ATOM      1  O1  <0> d           3.548   2.109  -0.021  0.00  0.00    -0.339 OA
ENDROOT
BRANCH   1   2
ATOM      2  C3  <0> d           2.380   1.413  -0.013  0.00  0.00     0.107 A 
ATOM      3  C2  <0> d           1.170   2.088   0.002  0.00  0.00     0.041 A 
ATOM      4  C1  <0> d          -0.017   1.379   0.010  0.00  0.00     0.022 A 
ATOM      5  C6  <0> d           0.002  -0.004   0.002  0.00  0.00     0.014 A 
ATOM      6  C5  <0> d           1.208  -0.682  -0.013  0.00  0.00     0.064 A 
ATOM      7 Br1  <0> d          -1.623  -0.970   0.012  0.00  0.00    -0.051 Br
ATOM      8  C4  <0> d           2.398   0.023  -0.021  0.00  0.00     0.150 A 
ATOM      9  F1  <0> d           3.576  -0.638  -0.036  0.00  0.00    -0.203 F 
ENDBRANCH   1   2
BRANCH   1  10
ATOM     10  C7  <0> d           3.454   3.534  -0.013  0.00  0.00     0.279 C 
BRANCH  10  11
ATOM     11  C8  <0> d           4.838   4.130  -0.023  0.00  0.00     0.255 C 
ATOM     12  O2  <0> d           5.810   3.404  -0.036  0.00  0.00    -0.270 OA
ATOM     13  N1  <0> d           4.996   5.468  -0.018  0.00  0.00    -0.292 N 
ATOM     14  H6  <0> d           4.219   6.048  -0.008  0.00  0.00     0.183 HD
BRANCH  13  15
ATOM     15  N2  <0> d           6.251   6.008  -0.028  0.00  0.00    -0.247 NA
ATOM     16  H7  <0> d           6.784   5.671  -0.816  0.00  0.00     0.143 HD
ATOM     17  H8  <0> d           6.212   7.016  -0.022  0.00  0.00     0.143 HD
ENDBRANCH  13  15
ENDBRANCH  10  11
ENDBRANCH   1  10
TORSDOF 4
