REMARK  3 active torsions:
REMARK  status: ('A' for Active; 'I' for Inactive)
REMARK    1  A    between atoms: C3_3  and  C10_14 
REMARK       I    between atoms: C10_14  and  N4_16 
REMARK    2  A    between atoms: N4_16  and  C11_17 
REMARK    3  A    between atoms: C16_22  and  O3_23 
ROOT
ATOM      1  C1  <0> d          -0.006   1.476   0.006  0.00  0.00     0.078 C 
ATOM      2  C2  <0> d           0.003  -0.031  -0.001  0.00  0.00     0.068 A 
ATOM      3  C3  <0> d          -1.105  -0.826   0.002  0.00  0.00     0.080 A 
ATOM      4  C4  <0> d          -0.595  -2.204  -0.008  0.00  0.00     0.079 A 
ATOM      5  C5  <0> d           0.782  -2.103  -0.015  0.00  0.00     0.164 A 
ATOM      6  O1  <0> d           1.100  -0.801  -0.016  0.00  0.00    -0.296 OA
ATOM      7  N1  <0> d           1.518  -3.263  -0.025  0.00  0.00    -0.332 N 
ATOM      8  C6  <0> d           0.904  -4.467  -0.028  0.00  0.00     0.186 A 
ATOM      9  N2  <0> d          -0.394  -4.612  -0.021  0.00  0.00    -0.326 N 
ATOM     10  C7  <0> d          -1.218  -3.540  -0.010  0.00  0.00     0.141 A 
ATOM     11  N3  <0> d          -2.495  -3.858  -0.005  0.00  0.00    -0.270 NA
ATOM     12  C8  <0> d          -2.654  -5.317  -0.011  0.00  0.00     0.171 A 
ATOM     13  C9  <0> d          -1.206  -5.841  -0.022  0.00  0.00     0.153 A 
ATOM     14  H17 <0> d           2.487  -3.217  -0.031  0.00  0.00     0.168 HD
ENDROOT
BRANCH   3  15
ATOM     15  C10 <0> d          -2.512  -0.395   0.012  0.00  0.00     0.259 C 
ATOM     16  O2  <0> d          -3.100  -0.212  -1.037  0.00  0.00    -0.267 OA
ATOM     17  N4  <0> d          -3.150  -0.203   1.184  0.00  0.00    -0.320 N 
ATOM     18  H9  <0> d          -2.702  -0.410   2.019  0.00  0.00     0.169 HD
BRANCH  17  19
ATOM     19  C11 <0> d          -4.458   0.297   1.196  0.00  0.00     0.068 A 
ATOM     20  C16 <0> d          -4.875   1.140   2.223  0.00  0.00     0.095 A 
ATOM     21  C15 <0> d          -6.168   1.636   2.226  0.00  0.00     0.039 A 
ATOM     22  C14 <0> d          -7.046   1.284   1.218  0.00  0.00     0.003 A 
ATOM     23  C13 <0> d          -6.635   0.442   0.201  0.00  0.00     0.002 A 
ATOM     24  C12 <0> d          -5.345  -0.052   0.187  0.00  0.00     0.032 A 
BRANCH  20  25
ATOM     25  O3  <0> d          -4.012   1.480   3.218  0.00  0.00    -0.354 OA
ATOM     26  C17 <0> d          -4.508   2.349   4.238  0.00  0.00     0.210 C 
ENDBRANCH  20  25
ENDBRANCH  17  19
ENDBRANCH   3  15
TORSDOF 3
