REMARK  5 active torsions:
REMARK  status: ('A' for Active; 'I' for Inactive)
REMARK    1  A    between atoms: C2_2  and  C3_3 
REMARK    2  A    between atoms: C2_2  and  C7_8 
REMARK    3  A    between atoms: C2_2  and  O1_20 
REMARK    4  A    between atoms: C7_8  and  N1_9 
REMARK    5  A    between atoms: C7_8  and  S2_18 
ROOT
ATOM      1  C7  <0> d           1.863  -1.731  -0.025  0.00  0.00     0.211 C 
ENDROOT
BRANCH   1   2
ATOM      2  C2  <0> d           2.384  -2.062  -1.425  0.00  0.00     0.113 C 
ATOM      3  C1  <0> d           1.271  -1.835  -2.450  0.00  0.00     0.054 C 
BRANCH   2   4
ATOM      4  C3  <0> d           2.822  -3.503  -1.470  0.00  0.00    -0.015 A 
ATOM      5  C6  <0> d           2.222  -4.429  -0.682  0.00  0.00     0.060 A 
ATOM      6  S1  <0> d           3.103  -5.917  -1.126  0.00  0.00    -0.113 SA
ATOM      7  C5  <0> d           4.210  -5.205  -2.331  0.00  0.00     0.050 A 
ATOM      8  C4  <0> d           3.837  -3.901  -2.319  0.00  0.00     0.018 A 
ENDBRANCH   2   4
BRANCH   2   9
ATOM      9  O1  <0> d           3.494  -1.217  -1.732  0.00  0.00    -0.382 OA
ATOM     10  H15 <0> d           4.239  -1.308  -1.122  0.00  0.00     0.211 HD
ENDBRANCH   2   9
ENDBRANCH   1   2
BRANCH   1  11
ATOM     11  N1  <0> d           1.328  -0.367  -0.013  0.00  0.00    -0.232 N 
ATOM     12  N3  <0> d           2.067   0.825  -0.013  0.00  0.00    -0.064 NA
ATOM     13  N2  <0> d           1.262   1.828  -0.000  0.00  0.00    -0.130 NA
ATOM     14  C13 <0> d          -0.017   1.401   0.010  0.00  0.00     0.109 A 
ATOM     15  C8  <0> d           0.002  -0.004   0.002  0.00  0.00     0.086 A 
ATOM     16  C12 <0> d          -1.250   2.068   0.030  0.00  0.00     0.036 A 
ATOM     17  C9  <0> d          -1.194  -0.713   0.010  0.00  0.00     0.034 A 
ATOM     18  C10 <0> d          -2.383  -0.040   0.025  0.00  0.00     0.002 A 
ATOM     19  C11 <0> d          -2.409   1.349   0.033  0.00  0.00     0.003 A 
ENDBRANCH   1  11
BRANCH   1  20
ATOM     20  S2  <0> d           3.222  -1.857   1.171  0.00  0.00    -0.143 SA
ATOM     21  C14 <0> d           2.420  -1.590   2.776  0.00  0.00     0.092 C 
ENDBRANCH   1  20
TORSDOF 5
