REMARK  5 active torsions:
REMARK  status: ('A' for Active; 'I' for Inactive)
REMARK    1  A    between atoms: C3_3  and  C11_13 
REMARK    2  A    between atoms: C11_13  and  C12_14 
REMARK    3  A    between atoms: C12_14  and  N3_15 
REMARK       I    between atoms: N3_15  and  C13_16 
REMARK    4  A    between atoms: C13_16  and  C14_18 
REMARK       I    between atoms: N4_20  and  C22_28 
REMARK    5  A    between atoms: C22_28  and  C23_30 
ROOT
ATOM      1  C1  <0> d          -4.911   0.722   5.022  0.00  0.00     0.037 C 
ATOM      2  C2  <0> d          -3.691   0.805   4.102  0.00  0.00     0.108 A 
ATOM      3  C3  <0> d          -3.934   0.009   2.841  0.00  0.00    -0.044 A 
ATOM      4  C4  <0> d          -2.978  -0.955   2.814  0.00  0.00    -0.004 A 
ATOM      5  C5  <0> d          -2.703  -1.991   1.884  0.00  0.00     0.036 A 
ATOM      6  C6  <0> d          -1.651  -2.851   2.099  0.00  0.00     0.045 A 
ATOM      7  C7  <0> d          -0.798  -2.724   3.276  0.00  0.00     0.025 A 
ATOM      8  C8  <0> d          -1.012  -1.759   4.194  0.00  0.00     0.031 A 
ATOM      9  C9  <0> d          -2.121  -0.816   4.013  0.00  0.00     0.039 A 
ATOM     10  N1  <0> d          -2.527   0.191   4.750  0.00  0.00    -0.381 N 
ATOM     11  C10 <0> d          -1.388  -3.890   1.150  0.00  0.00     0.099 C 
ATOM     12  N2  <0> d          -1.179  -4.715   0.397  0.00  0.00    -0.191 NA
ATOM     13  H36 <0> d          -2.125   0.481   5.584  0.00  0.00     0.160 HD
ENDROOT
BRANCH   3  14
ATOM     14  C11 <0> d          -5.018   0.238   1.819  0.00  0.00     0.057 C 
BRANCH  14  15
ATOM     15  C12 <0> d          -4.894  -0.801   0.703  0.00  0.00     0.127 C 
BRANCH  15  16
ATOM     16  N3  <0> d          -5.948  -0.578  -0.290  0.00  0.00    -0.360 N 
ATOM     17  C13 <0> d          -6.035  -1.379  -1.371  0.00  0.00     0.224 C 
ATOM     18  O1  <0> d          -5.242  -2.284  -1.521  0.00  0.00    -0.273 OA
ATOM     19  H13 <0> d          -6.582   0.145  -0.170  0.00  0.00     0.162 HD
BRANCH  17  20
ATOM     20  C14 <0> d          -7.120  -1.150  -2.393  0.00  0.00     0.106 C 
ATOM     21  C17 <0> d          -8.354  -2.007  -2.065  0.00  0.00    -0.007 C 
ATOM     22  C16 <0> d          -8.535  -2.941  -3.278  0.00  0.00     0.136 C 
ATOM     23  C21 <0> d          -9.583  -1.120  -1.893  0.00  0.00     0.039 C 
ATOM     24  C18 <0> d          -8.108  -2.827  -0.802  0.00  0.00     0.039 C 
ATOM     25  N4  <0> d          -7.190  -3.014  -3.897  0.00  0.00    -0.350 N 
ATOM     26  C15 <0> d          -6.658  -1.635  -3.785  0.00  0.00     0.140 C 
ATOM     27  C22 <0> d          -6.587  -4.091  -4.438  0.00  0.00     0.224 C 
ATOM     28  O2  <0> d          -7.157  -5.161  -4.455  0.00  0.00    -0.273 OA
ATOM     29  C20 <0> d         -10.784  -1.990  -1.511  0.00  0.00     0.233 C 
ATOM     30  N5  <0> d         -10.495  -2.707  -0.264  0.00  0.00    -0.075 N 
ATOM     31  C19 <0> d          -9.369  -3.627  -0.465  0.00  0.00     0.233 C 
ATOM     32  H22 <0> d         -11.310  -3.232   0.018  0.00  0.00     0.277 HD
ATOM     33  H37 <0> d         -10.261  -2.043   0.458  0.00  0.00     0.277 HD
BRANCH  27  34
ATOM     34  C23 <0> d          -5.203  -3.965  -5.023  0.00  0.00     0.082 C 
ATOM     35  C27 <0> d          -4.752  -5.324  -5.568  0.00  0.00     0.040 C 
ATOM     36  C26 <0> d          -3.380  -5.169  -6.229  0.00  0.00     0.168 C 
ATOM     37  O3  <0> d          -3.460  -4.187  -7.264  0.00  0.00    -0.391 OA
ATOM     38  C25 <0> d          -3.832  -2.885  -6.806  0.00  0.00     0.168 C 
ATOM     39  C24 <0> d          -5.222  -2.948  -6.168  0.00  0.00     0.040 C 
ENDBRANCH  27  34
ENDBRANCH  17  20
ENDBRANCH  15  16
ENDBRANCH  14  15
ENDBRANCH   3  14
TORSDOF 5
