REMARK  3 active torsions:
REMARK  status: ('A' for Active; 'I' for Inactive)
REMARK    1  A    between atoms: C8_9  and  C9_11 
REMARK    2  A    between atoms: C9_11  and  N3_13 
REMARK       I    between atoms: N3_13  and  C11_14 
REMARK    3  A    between atoms: C11_14  and  C12_16 
REMARK       I    between atoms: N4_18  and  C20_26 
ROOT
ATOM      1  N3  <0> d           1.974  -6.601   2.233  0.00  0.00    -0.349 N 
ATOM      2  C11 <0> d           1.268  -7.697   1.892  0.00  0.00     0.224 C 
ATOM      3  O1  <0> d           0.141  -7.848   2.315  0.00  0.00    -0.273 OA
ATOM      4  H12 <0> d           2.875  -6.479   1.895  0.00  0.00     0.163 HD
ENDROOT
BRANCH   2   5
ATOM      5  C12 <0> d           1.878  -8.733   0.984  0.00  0.00     0.106 C 
ATOM      6  C15 <0> d           2.554  -9.839   1.812  0.00  0.00    -0.007 C 
ATOM      7  C14 <0> d           1.812 -11.138   1.442  0.00  0.00     0.136 C 
ATOM      8  C19 <0> d           4.030  -9.949   1.440  0.00  0.00     0.039 C 
ATOM      9  C16 <0> d           2.402  -9.551   3.303  0.00  0.00     0.039 C 
ATOM     10  N4  <0> d           1.233 -10.867   0.104  0.00  0.00    -0.351 N 
ATOM     11  C13 <0> d           0.776  -9.459   0.179  0.00  0.00     0.140 C 
ATOM     12  C20 <0> d           1.142 -11.710  -0.943  0.00  0.00     0.215 C 
ATOM     13  O2  <0> d           1.565 -12.842  -0.848  0.00  0.00    -0.274 OA
ATOM     14  C21 <0> d           0.515 -11.245  -2.232  0.00  0.00     0.117 C 
ATOM     15  C18 <0> d           4.695 -11.014   2.317  0.00  0.00     0.233 C 
ATOM     16  N5  <0> d           4.552 -10.645   3.730  0.00  0.00    -0.075 N 
ATOM     17  C17 <0> d           3.133 -10.632   4.104  0.00  0.00     0.233 C 
ATOM     18  H21 <0> d           4.946  -9.728   3.878  0.00  0.00     0.277 HD
ATOM     19  H29 <0> d           5.043 -11.315   4.303  0.00  0.00     0.277 HD
ENDBRANCH   2   5
BRANCH   1  20
ATOM     20  C9  <0> d           1.381  -5.593   3.116  0.00  0.00     0.150 C 
ATOM     21  C10 <0> d           0.546  -4.616   2.286  0.00  0.00     0.040 C 
BRANCH  20  22
ATOM     22  C8  <0> d           2.477  -4.840   3.826  0.00  0.00     0.127 A 
ATOM     23  N1  <0> d           2.338  -4.206   5.021  0.00  0.00    -0.341 N 
ATOM     24  C6  <0> d           3.559  -3.640   5.330  0.00  0.00     0.063 A 
ATOM     25  H30 <0> d           1.531  -4.159   5.557  0.00  0.00     0.167 HD
ATOM     26  C5  <0> d           4.418  -3.969   4.268  0.00  0.00     0.085 A 
ATOM     27  C7  <0> d           4.035  -2.889   6.396  0.00  0.00     0.038 A 
ATOM     28  C4  <0> d           5.745  -3.530   4.296  0.00  0.00     0.034 A 
ATOM     29  N2  <0> d           3.693  -4.702   3.385  0.00  0.00    -0.231 NA
ATOM     30  C3  <0> d           6.194  -2.787   5.351  0.00  0.00     0.009 A 
ATOM     31  C2  <0> d           5.346  -2.462   6.400  0.00  0.00    -0.060 A 
ATOM     32  C1  <0> d           5.863  -1.643   7.554  0.00  0.00     0.048 C 
ENDBRANCH  20  22
ENDBRANCH   1  20
TORSDOF 3
