REMARK  3 active torsions:
REMARK  status: ('A' for Active; 'I' for Inactive)
REMARK    1  A    between atoms: C3_3  and  C12_18 
REMARK    2  A    between atoms: N1_5  and  C5_7 
REMARK    3  A    between atoms: N5_22  and  C16_25 
ROOT
ATOM      1  C1  <0> d          -0.238   0.958  -0.500  0.00  0.00     0.070 C 
ATOM      2  C2  <0> d          -0.756   1.644  -1.738  0.00  0.00     0.035 A 
ATOM      3  C3  <0> d          -0.893   2.976  -1.902  0.00  0.00     0.050 A 
ATOM      4  C4  <0> d          -1.410   3.208  -3.198  0.00  0.00     0.291 A 
ATOM      5  N1  <0> d          -1.574   2.008  -3.792  0.00  0.00    -0.045 N 
ATOM      6  N2  <0> d          -1.161   1.024  -2.885  0.00  0.00    -0.280 N 
ATOM      7  O1  <0> d          -1.661   4.293  -3.688  0.00  0.00    -0.265 OA
ATOM      8  H10 <0> d          -1.164   0.067  -3.043  0.00  0.00     0.188 HD
ENDROOT
BRANCH   3   9
ATOM      9  C12 <0> d          -0.557   4.033  -0.882  0.00  0.00     0.128 A 
ATOM     10  C15 <0> d          -1.762   4.902  -0.597  0.00  0.00     0.240 A 
ATOM     11  N5  <0> d          -1.479   6.169  -0.940  0.00  0.00    -0.252 N 
ATOM     12  O3  <0> d          -2.814   4.515  -0.136  0.00  0.00    -0.272 OA
ATOM     13  C14 <0> d          -0.245   6.350  -1.428  0.00  0.00     0.232 A 
ATOM     14  C13 <0> d           0.482   5.023  -1.448  0.00  0.00     0.123 A 
ATOM     15  O2  <0> d           0.216   7.409  -1.795  0.00  0.00    -0.273 OA
BRANCH  11  16
ATOM     16  C16 <0> d          -2.399   7.217  -0.795  0.00  0.00     0.045 A 
ATOM     17  C21 <0> d          -2.920   7.844  -1.919  0.00  0.00     0.031 A 
ATOM     18  C20 <0> d          -3.831   8.872  -1.775  0.00  0.00     0.021 A 
ATOM     19  C19 <0> d          -4.216   9.285  -0.511  0.00  0.00     0.011 A 
ATOM     20  C18 <0> d          -3.693   8.665   0.610  0.00  0.00     0.021 A 
ATOM     21 Br1  <0> d          -5.457  10.697  -0.317  0.00  0.00    -0.051 Br
ATOM     22  C17 <0> d          -2.787   7.633   0.471  0.00  0.00     0.031 A 
ENDBRANCH  11  16
ENDBRANCH   3   9
BRANCH   5  23
ATOM     23  C5  <0> d          -2.058   1.790  -5.069  0.00  0.00     0.730 A 
ATOM     24  N4  <0> d          -2.434   2.728  -5.901  0.00  0.00    -0.061 NA
ATOM     25  C11 <0> d          -2.850   2.164  -7.065  0.00  0.00     0.103 A 
ATOM     26  C6  <0> d          -2.724   0.773  -6.920  0.00  0.00     0.078 A 
ATOM     27  C10 <0> d          -3.341   2.689  -8.264  0.00  0.00     0.034 A 
ATOM     28  N3  <0> d          -2.221   0.564  -5.647  0.00  0.00    -0.186 N 
ATOM     29  C7  <0> d          -3.086  -0.068  -7.962  0.00  0.00     0.032 A 
ATOM     30  H1  <0> d          -2.021  -0.294  -5.242  0.00  0.00     0.184 HD
ATOM     31  C8  <0> d          -3.568   0.466  -9.139  0.00  0.00     0.002 A 
ATOM     32  C9  <0> d          -3.694   1.839  -9.288  0.00  0.00     0.002 A 
ENDBRANCH   5  23
TORSDOF 3
