REMARK  8 active torsions:
REMARK  status: ('A' for Active; 'I' for Inactive)
REMARK    1  A    between atoms: C6_6  and  O3_28 
REMARK    2  A    between atoms: C7_7  and  C10_11 
REMARK    3  A    between atoms: C10_11  and  N1_12 
REMARK    4  A    between atoms: N1_12  and  C11_13 
REMARK    5  A    between atoms: C11_13  and  C12_14 
REMARK    6  A    between atoms: C15_17  and  N2_20 
REMARK    7  A    between atoms: C20_23  and  C23_26 
REMARK    8  A    between atoms: C23_26  and  O2_27 
ROOT
ATOM      1  N1  <0> d           0.670  -5.993   2.765  0.00  0.00    -0.067 N 
ATOM      2  H11 <0> d          -0.054  -6.348   2.158  0.00  0.00     0.277 HD
ATOM      3  H33 <0> d           1.448  -5.670   2.208  0.00  0.00     0.277 HD
ENDROOT
BRANCH   1   4
ATOM      4  C10 <0> d           0.140  -4.878   3.560  0.00  0.00     0.274 C 
BRANCH   4   5
ATOM      5  C7  <0> d          -0.325  -3.780   2.638  0.00  0.00     0.003 A 
ATOM      6  C6  <0> d          -1.559  -3.878   2.014  0.00  0.00     0.076 A 
ATOM      7  C5  <0> d          -1.982  -2.866   1.163  0.00  0.00     0.047 A 
ATOM      8  C4  <0> d          -1.175  -1.772   0.943  0.00  0.00    -0.020 A 
ATOM      9  C3  <0> d          -1.350  -0.536   0.082  0.00  0.00     0.073 C 
ATOM     10  C9  <0> d           0.060  -1.661   1.569  0.00  0.00     0.076 A 
ATOM     11  C2  <0> d           0.092   0.022   0.026  0.00  0.00     0.129 C 
ATOM     12  C1  <0> d           0.083   1.552   0.042  0.00  0.00     0.040 C 
ATOM     13  O1  <0> d           0.685  -0.496   1.228  0.00  0.00    -0.345 OA
ATOM     14  C8  <0> d           0.480  -2.681   2.418  0.00  0.00     0.049 A 
BRANCH   6  15
ATOM     15  O3  <0> d          -2.352  -4.961   2.235  0.00  0.00    -0.355 OA
ATOM     16  C24 <0> d          -3.610  -4.992   1.557  0.00  0.00     0.210 C 
ENDBRANCH   6  15
ENDBRANCH   4   5
ENDBRANCH   1   4
BRANCH   1  17
ATOM     17  C11 <0> d           1.123  -7.063   3.664  0.00  0.00     0.271 C 
BRANCH  17  18
ATOM     18  C12 <0> d           1.667  -8.208   2.848  0.00  0.00    -0.033 A 
ATOM     19  C17 <0> d           3.008  -8.239   2.512  0.00  0.00     0.011 A 
ATOM     20  C16 <0> d           3.511  -9.289   1.769  0.00  0.00     0.030 A 
ATOM     21  C15 <0> d           2.666 -10.309   1.351  0.00  0.00     0.030 A 
ATOM     22  C14 <0> d           1.319 -10.272   1.685  0.00  0.00     0.030 A 
ATOM     23  C13 <0> d           0.823  -9.222   2.433  0.00  0.00     0.011 A 
BRANCH  21  24
ATOM     24  N2  <0> d           3.171 -11.370   0.595  0.00  0.00    -0.381 N 
ATOM     25  C22 <0> d           2.319 -12.517   0.254  0.00  0.00     0.123 C 
ATOM     26  C21 <0> d           3.016 -13.803   0.692  0.00  0.00     0.026 C 
ATOM     27  C20 <0> d           4.417 -13.856   0.078  0.00  0.00     0.012 C 
ATOM     28  C19 <0> d           5.239 -12.665   0.576  0.00  0.00     0.026 C 
ATOM     29  C18 <0> d           4.565 -11.363   0.132  0.00  0.00     0.123 C 
BRANCH  27  30
ATOM     30  C23 <0> d           5.106 -15.158   0.491  0.00  0.00     0.168 C 
BRANCH  30  31
ATOM     31  O2  <0> d           4.404 -16.268  -0.072  0.00  0.00    -0.400 OA
ATOM     32  H29 <0> d           4.785 -17.128   0.149  0.00  0.00     0.209 HD
ENDBRANCH  30  31
ENDBRANCH  27  30
ENDBRANCH  21  24
ENDBRANCH  17  18
ENDBRANCH   1  17
TORSDOF 8
