REMARK  6 active torsions:
REMARK  status: ('A' for Active; 'I' for Inactive)
REMARK    1  A    between atoms: C2_2  and  C3_3 
REMARK    2  A    between atoms: C2_2  and  N2_9 
REMARK       I    between atoms: C3_3  and  N1_5 
REMARK    3  A    between atoms: N1_5  and  C4_6 
REMARK    4  A    between atoms: C4_6  and  C5_7 
REMARK    5  A    between atoms: N3_13  and  C12_16 
REMARK    6  A    between atoms: C12_16  and  C13_17 
ROOT
ATOM      1  N2  <0> d           0.838  -0.561   1.074  0.00  0.00     0.103 N 
ATOM      2  C7  <0> d           1.082  -2.008   0.860  0.00  0.00     0.275 C 
ATOM      3  C8  <0> d           2.354  -2.389   1.574  0.00  0.00     0.058 C 
ATOM      4  C9  <0> d           2.102  -2.893   3.004  0.00  0.00     0.237 C 
ATOM      5  N3  <0> d           1.086  -2.091   3.721  0.00  0.00    -0.060 N 
ATOM      6  C10 <0> d           1.240  -0.674   3.483  0.00  0.00     0.265 C 
ATOM      7  C11 <0> d           0.302  -0.267   2.332  0.00  0.00     0.301 C 
ATOM      8  H23 <0> d           0.168  -2.376   3.415  0.00  0.00     0.280 HD
ENDROOT
BRANCH   1   9
ATOM      9  C2  <0> d           0.002  -0.004   0.002  0.00  0.00     0.310 C 
ATOM     10  C1  <0> d          -1.464  -0.353   0.266  0.00  0.00     0.053 C 
BRANCH   9  11
ATOM     11  C3  <0> d           0.164   1.494  -0.034  0.00  0.00     0.251 C 
ATOM     12  O1  <0> d           0.715   2.067   0.881  0.00  0.00    -0.271 OA
ATOM     13  N1  <0> d          -0.305   2.197  -1.085  0.00  0.00    -0.356 N 
ATOM     14  H5  <0> d          -0.746   1.739  -1.817  0.00  0.00     0.162 HD
BRANCH  13  15
ATOM     15  C4  <0> d          -0.147   3.653  -1.120  0.00  0.00     0.149 C 
BRANCH  15  16
ATOM     16  C5  <0> d          -0.751   4.193  -2.390  0.00  0.00    -0.018 C 
ATOM     17  C6  <0> d          -1.665   5.130  -2.335  0.00  0.00     0.008 C 
ENDBRANCH  15  16
ENDBRANCH  13  15
ENDBRANCH   9  11
ENDBRANCH   1   9
BRANCH   5  18
ATOM     18  C12 <0> d           1.207  -2.348   5.162  0.00  0.00     0.347 C 
BRANCH  18  19
ATOM     19  C13 <0> d           0.862  -3.787   5.447  0.00  0.00     0.199 C 
ATOM     20  O2  <0> d           0.544  -4.529   4.534  0.00  0.00    -0.647 OA
ATOM     21  O3  <0> d           0.900  -4.208   6.591  0.00  0.00    -0.647 OA
ENDBRANCH  18  19
ENDBRANCH   5  18
TORSDOF 6
