REMARK  4 active torsions:
REMARK  status: ('A' for Active; 'I' for Inactive)
REMARK    1  A    between atoms: N1_4  and  C6_7 
REMARK    2  A    between atoms: C9_10  and  N2_13 
REMARK       I    between atoms: N2_13  and  C12_14 
REMARK    3  A    between atoms: C12_14  and  C13_16 
REMARK    4  A    between atoms: N4_18  and  C17_23 
ROOT
ATOM      1  N2  <0> d          -3.116   5.008   5.914  0.00  0.00    -0.322 N 
ATOM      2  C12 <0> d          -4.126   5.896   5.840  0.00  0.00     0.272 C 
ATOM      3  O1  <0> d          -4.590   6.201   4.757  0.00  0.00    -0.266 OA
ATOM      4  H17 <0> d          -2.797   4.706   6.779  0.00  0.00     0.169 HD
ENDROOT
BRANCH   1   5
ATOM      5  C9  <0> d          -2.525   4.519   4.742  0.00  0.00     0.035 A 
ATOM      6  C8  <0> d          -2.043   3.218   4.697  0.00  0.00     0.031 A 
ATOM      7  C7  <0> d          -1.465   2.735   3.540  0.00  0.00     0.026 A 
ATOM      8  C6  <0> d          -1.357   3.554   2.424  0.00  0.00     0.010 A 
ATOM      9  C11 <0> d          -1.840   4.855   2.468  0.00  0.00     0.026 A 
ATOM     10  C10 <0> d          -2.422   5.337   3.624  0.00  0.00     0.031 A 
BRANCH   8  11
ATOM     11  N1  <0> d          -0.768   3.066   1.253  0.00  0.00    -0.280 NA
ATOM     12  C3  <0> d           0.351   3.920   0.831  0.00  0.00     0.123 C 
ATOM     13  C2  <0> d           0.917   3.399  -0.492  0.00  0.00     0.249 C 
ATOM     14  N5  <0> d           1.374   2.006  -0.300  0.00  0.00    -0.073 N 
ATOM     15  C1  <0> d           1.974   1.494  -1.550  0.00  0.00     0.269 C 
ATOM     16  C5  <0> d           0.236   1.153   0.101  0.00  0.00     0.249 C 
ATOM     17  H28 <0> d           2.083   1.987   0.442  0.00  0.00     0.279 HD
ATOM     18  C4  <0> d          -0.329   1.674   1.424  0.00  0.00     0.123 C 
ENDBRANCH   8  11
ENDBRANCH   1   5
BRANCH   2  19
ATOM     19  C13 <0> d          -4.668   6.495   7.065  0.00  0.00     0.123 C 
ATOM     20  C16 <0> d          -5.796   7.487   6.970  0.00  0.00     0.076 C 
ATOM     21  C15 <0> d          -6.716   7.335   8.184  0.00  0.00     0.111 C 
ATOM     22  C14 <0> d          -5.880   7.282   9.437  0.00  0.00     0.240 C 
ATOM     23  N4  <0> d          -4.659   6.712   9.403  0.00  0.00    -0.232 N 
ATOM     24  O2  <0> d          -6.303   7.752  10.471  0.00  0.00    -0.272 OA
ATOM     25  N3  <0> d          -4.170   6.160   8.215  0.00  0.00    -0.168 NA
BRANCH  23  26
ATOM     26  C17 <0> d          -3.843   6.666  10.619  0.00  0.00     0.128 C 
ATOM     27  C20 <0> d          -2.491   7.394  10.371  0.00  0.00     0.167 C 
ATOM     28  S1  <0> d          -1.473   6.687  11.734  0.00  0.00     0.146 S 
ATOM     29  C19 <0> d          -2.428   5.151  12.062  0.00  0.00     0.142 C 
ATOM     30  O3  <0> d          -1.562   7.538  12.868  0.00  0.00    -0.228 OA
ATOM     31  O4  <0> d          -0.194   6.336  11.222  0.00  0.00    -0.228 OA
ATOM     32  C18 <0> d          -3.539   5.204  10.986  0.00  0.00     0.043 C 
ENDBRANCH  23  26
ENDBRANCH   2  19
TORSDOF 4
