REMARK  9 active torsions:
REMARK  status: ('A' for Active; 'I' for Inactive)
REMARK    1  A    between atoms: C2_2  and  C3_3 
REMARK    2  A    between atoms: C3_3  and  N1_5 
REMARK       I    between atoms: N1_5  and  C5_6 
REMARK    3  A    between atoms: C5_6  and  C6_8 
REMARK    4  A    between atoms: C6_8  and  C7_9 
REMARK    5  A    between atoms: C7_9  and  N2_10 
REMARK    6  A    between atoms: N2_10  and  C8_11 
REMARK    7  A    between atoms: C8_11  and  C9_12 
REMARK    8  A    between atoms: C8_11  and  C11_14 
REMARK    9  A    between atoms: C16_19  and  O2_20 
ROOT
ATOM      1  N2  <0> d           6.172   0.750   3.931  0.00  0.00    -0.066 N 
ATOM      2  H16 <0> d           6.722   0.150   3.335  0.00  0.00     0.278 HD
ATOM      3  H26 <0> d           6.002   1.627   3.462  0.00  0.00     0.278 HD
ENDROOT
BRANCH   1   4
ATOM      4  C7  <0> d           4.890   0.099   4.233  0.00  0.00     0.242 C 
BRANCH   4   5
ATOM      5  C6  <0> d           4.188  -0.274   2.925  0.00  0.00     0.130 C 
BRANCH   5   6
ATOM      6  C5  <0> d           2.873  -0.942   3.234  0.00  0.00     0.219 C 
ATOM      7  N1  <0> d           2.077  -1.360   2.230  0.00  0.00    -0.357 N 
ATOM      8  H11 <0> d           2.351  -1.231   1.309  0.00  0.00     0.162 HD
ATOM      9  O1  <0> d           2.531  -1.104   4.387  0.00  0.00    -0.274 OA
BRANCH   7  10
ATOM     10  C3  <0> d           0.799  -2.010   2.531  0.00  0.00     0.080 C 
ATOM     11  C4  <0> d           1.030  -3.503   2.773  0.00  0.00     0.032 C 
BRANCH  10  12
ATOM     12  C2  <0> d          -0.156  -1.827   1.349  0.00  0.00     0.020 C 
ATOM     13  C1  <0> d          -0.485  -0.342   1.185  0.00  0.00     0.007 C 
ENDBRANCH  10  12
ENDBRANCH   7  10
ENDBRANCH   5   6
ENDBRANCH   4   5
ENDBRANCH   1   4
BRANCH   1  14
ATOM     14  C8  <0> d           6.901   0.999   5.182  0.00  0.00     0.221 C 
BRANCH  14  15
ATOM     15  C9  <0> d           8.297   1.535   4.861  0.00  0.00     0.033 C 
ATOM     16  C10 <0> d           9.107   0.452   4.145  0.00  0.00     0.007 C 
ENDBRANCH  14  15
BRANCH  14  17
ATOM     17  C11 <0> d           6.151   2.013   6.008  0.00  0.00     0.007 A 
ATOM     18  C16 <0> d           6.389   2.111   7.371  0.00  0.00     0.074 A 
ATOM     19  C15 <0> d           5.702   3.049   8.127  0.00  0.00     0.038 A 
ATOM     20  C14 <0> d           4.774   3.875   7.524  0.00  0.00     0.022 A 
ATOM     21  C13 <0> d           4.534   3.772   6.165  0.00  0.00     0.011 A 
ATOM     22  C12 <0> d           5.223   2.841   5.408  0.00  0.00     0.031 A 
ATOM     23 Br1  <0> d           3.264   4.906   5.342  0.00  0.00    -0.051 Br
BRANCH  18  24
ATOM     24  O2  <0> d           7.299   1.293   7.963  0.00  0.00    -0.360 OA
ATOM     25  H25 <0> d           8.197   1.651   7.981  0.00  0.00     0.217 HD
ENDBRANCH  18  24
ENDBRANCH  14  17
ENDBRANCH   1  14
TORSDOF 9
