REMARK  6 active torsions:
REMARK  status: ('A' for Active; 'I' for Inactive)
REMARK    1  A    between atoms: C2_2  and  N1_3 
REMARK    2  A    between atoms: N1_3  and  S1_4 
REMARK    3  A    between atoms: S1_4  and  C3_7 
REMARK    4  A    between atoms: C6_10  and  C9_13 
REMARK       I    between atoms: C9_13  and  N2_15 
REMARK    5  A    between atoms: N2_15  and  C10_16 
REMARK    6  A    between atoms: C10_16  and  C12_18 
ROOT
ATOM      1  C3  <0> d          -1.571   2.658  -1.502  0.00  0.00     0.079 A 
ATOM      2  C4  <0> d          -1.087   3.951  -1.585  0.00  0.00     0.026 A 
ATOM      3  C5  <0> d          -1.169   4.647  -2.773  0.00  0.00     0.018 A 
ATOM      4  C6  <0> d          -1.751   4.046  -3.891  0.00  0.00     0.032 A 
ATOM      5  C7  <0> d          -2.241   2.743  -3.799  0.00  0.00     0.018 A 
ATOM      6  C8  <0> d          -2.149   2.057  -2.606  0.00  0.00     0.026 A 
ENDROOT
BRANCH   4   7
ATOM      7  C9  <0> d          -1.846   4.787  -5.167  0.00  0.00     0.252 C 
ATOM      8  O3  <0> d          -2.353   4.261  -6.139  0.00  0.00    -0.268 OA
ATOM      9  N2  <0> d          -1.371   6.045  -5.252  0.00  0.00    -0.349 N 
ATOM     10  H12 <0> d          -0.967   6.465  -4.477  0.00  0.00     0.163 HD
BRANCH   9  11
ATOM     11  C10 <0> d          -1.465   6.779  -6.517  0.00  0.00     0.115 C 
ATOM     12  C11 <0> d          -0.270   6.425  -7.403  0.00  0.00     0.037 C 
BRANCH  11  13
ATOM     13  C12 <0> d          -1.462   8.261  -6.239  0.00  0.00    -0.018 A 
ATOM     14  C17 <0> d          -2.036   9.135  -7.144  0.00  0.00     0.019 A 
ATOM     15  C16 <0> d          -2.037  10.495  -6.886  0.00  0.00     0.019 A 
ATOM     16 Br1  <0> d          -2.825   8.473  -8.730  0.00  0.00    -0.050 Br
ATOM     17  C15 <0> d          -1.456  10.979  -5.729  0.00  0.00     0.001 A 
ATOM     18  C14 <0> d          -0.878  10.104  -4.827  0.00  0.00     0.001 A 
ATOM     19  C13 <0> d          -0.881   8.746  -5.082  0.00  0.00     0.010 A 
ENDBRANCH  11  13
ENDBRANCH   9  11
ENDBRANCH   4   7
BRANCH   1  20
ATOM     20  S1  <0> d          -1.456   1.774   0.019  0.00  0.00     0.258 S 
ATOM     21  O1  <0> d          -2.475   0.784  -0.009  0.00  0.00    -0.201 OA
ATOM     22  O2  <0> d          -1.369   2.749   1.049  0.00  0.00    -0.201 OA
BRANCH  20  23
ATOM     23  N1  <0> d          -0.011   0.966   0.007  0.00  0.00    -0.316 N 
ATOM     24  H7  <0> d           0.002  -0.004   0.002  0.00  0.00     0.172 HD
BRANCH  23  25
ATOM     25  C2  <0> d           1.248   1.716  -0.001  0.00  0.00     0.128 C 
ATOM     26  C1  <0> d           2.402   0.777   0.357  0.00  0.00     0.027 C 
ENDBRANCH  23  25
ENDBRANCH  20  23
ENDBRANCH   1  20
TORSDOF 6
