REMARK  3 active torsions:
REMARK  status: ('A' for Active; 'I' for Inactive)
REMARK    1  A    between atoms: C3_3  and  C11_15 
REMARK    2  A    between atoms: C4_5  and  N2_7 
REMARK    3  A    between atoms: C11_15  and  N3_17 
ROOT
ATOM      1  C1  <0> d          -0.018   1.503   0.010  0.00  0.00     0.071 C 
ATOM      2  C2  <0> d           0.002  -0.004   0.002  0.00  0.00     0.049 A 
ATOM      3  C3  <0> d           0.006  -0.705  -1.157  0.00  0.00     0.040 A 
ATOM      4  S1  <0> d           0.032  -2.378  -0.535  0.00  0.00    -0.053 SA
ATOM      5  C4  <0> d           0.036  -2.016   1.109  0.00  0.00     0.170 A 
ATOM      6  N1  <0> d           0.023  -0.700   1.125  0.00  0.00    -0.228 NA
ENDROOT
BRANCH   5   7
ATOM      7  N2  <0> d           0.053  -2.891   2.183  0.00  0.00    -0.347 N 
ATOM      8  C8  <0> d           0.054  -2.391   3.567  0.00  0.00     0.049 C 
ATOM      9  C7  <0> d          -1.060  -3.116   4.339  0.00  0.00     0.198 C 
ATOM     10  C9  <0> d           1.408  -2.678   4.219  0.00  0.00     0.040 C 
ATOM     11  C10 <0> d          -0.212  -0.884   3.571  0.00  0.00     0.040 C 
ATOM     12  O1  <0> d          -0.903  -4.527   4.175  0.00  0.00    -0.387 OA
ATOM     13  C6  <0> d          -1.031  -4.977   2.824  0.00  0.00     0.187 C 
ATOM     14  C5  <0> d           0.079  -4.347   1.974  0.00  0.00     0.152 C 
ENDBRANCH   5   7
BRANCH   3  15
ATOM     15  C11 <0> d          -0.009  -0.209  -2.580  0.00  0.00     0.221 C 
ATOM     16  C12 <0> d           1.384  -0.374  -3.192  0.00  0.00     0.045 C 
BRANCH  15  17
ATOM     17  N3  <0> d          -0.981  -0.986  -3.360  0.00  0.00    -0.071 N 
ATOM     18  H20 <0> d          -1.900  -0.878  -2.956  0.00  0.00     0.275 HD
ATOM     19  H21 <0> d          -0.991  -0.654  -4.312  0.00  0.00     0.275 HD
ATOM     20  H22 <0> d          -0.721  -1.961  -3.346  0.00  0.00     0.275 HD
ENDBRANCH  15  17
ENDBRANCH   3  15
TORSDOF 3
