REMARK  5 active torsions:
REMARK  status: ('A' for Active; 'I' for Inactive)
REMARK    1  A    between atoms: N2_4  and  C4_6 
REMARK    2  A    between atoms: C6_8  and  C9_12 
REMARK    3  A    between atoms: C9_12  and  N4_13 
REMARK       I    between atoms: N4_13  and  C10_14 
REMARK    4  A    between atoms: C10_14  and  C11_16 
REMARK       I    between atoms: C11_16  and  N5_18 
REMARK    5  A    between atoms: N5_18  and  C12_19 
ROOT
ATOM      1  N4  <0> d           5.526  -3.732   1.324  0.00  0.00    -0.349 N 
ATOM      2  C10 <0> d           6.824  -4.004   1.561  0.00  0.00     0.309 C 
ATOM      3  O1  <0> d           7.590  -4.166   0.633  0.00  0.00    -0.262 OA
ATOM      4  H9  <0> d           4.914  -3.602   2.066  0.00  0.00     0.163 HD
ENDROOT
BRANCH   1   5
ATOM      5  C9  <0> d           5.038  -3.631  -0.053  0.00  0.00     0.161 C 
BRANCH   5   6
ATOM      6  C6  <0> d           3.563  -3.322  -0.043  0.00  0.00    -0.035 A 
ATOM      7  C5  <0> d           3.115  -2.012  -0.039  0.00  0.00     0.061 A 
ATOM      8  C4  <0> d           1.747  -1.766  -0.030  0.00  0.00     0.150 A 
ATOM      9  N3  <0> d           0.882  -2.767  -0.019  0.00  0.00    -0.241 NA
ATOM     10  C8  <0> d           1.280  -4.025  -0.027  0.00  0.00     0.119 A 
ATOM     11  C7  <0> d           2.624  -4.343  -0.037  0.00  0.00     0.028 A 
BRANCH   8  12
ATOM     12  N2  <0> d           1.281  -0.448  -0.026  0.00  0.00    -0.227 N 
ATOM     13  N1  <0> d           2.073   0.708  -0.037  0.00  0.00    -0.179 NA
ATOM     14  C2  <0> d           1.279   1.748  -0.029  0.00  0.00     0.141 A 
ATOM     15  C1  <0> d          -0.044   1.293  -0.014  0.00  0.00     0.040 A 
ATOM     16  C3  <0> d          -0.021  -0.059  -0.012  0.00  0.00     0.122 A 
ENDBRANCH   8  12
ENDBRANCH   5   6
ENDBRANCH   1   5
BRANCH   2  17
ATOM     17  C11 <0> d           7.322  -4.106   2.965  0.00  0.00     0.314 C 
ATOM     18  O2  <0> d           6.556  -3.945   3.894  0.00  0.00    -0.262 OA
ATOM     19  N5  <0> d           8.620  -4.379   3.202  0.00  0.00    -0.316 N 
ATOM     20  H10 <0> d           9.218  -4.572   2.463  0.00  0.00     0.169 HD
BRANCH  19  21
ATOM     21  C12 <0> d           9.106  -4.383   4.514  0.00  0.00     0.074 A 
ATOM     22  C17 <0> d          10.403  -3.953   4.778  0.00  0.00     0.146 A 
ATOM     23  C16 <0> d          10.878  -3.952   6.077  0.00  0.00     0.086 A 
ATOM     24  F1  <0> d          11.195  -3.532   3.768  0.00  0.00    -0.204 F 
ATOM     25  C15 <0> d          10.068  -4.390   7.111  0.00  0.00     0.119 A 
ATOM     26  C14 <0> d           8.779  -4.824   6.849  0.00  0.00     0.044 A 
ATOM     27  F2  <0> d          10.535  -4.394   8.379  0.00  0.00    -0.206 F 
ATOM     28  C13 <0> d           8.297  -4.821   5.554  0.00  0.00     0.036 A 
ENDBRANCH  19  21
ENDBRANCH   2  17
TORSDOF 5
