REMARK  6 active torsions:
REMARK  status: ('A' for Active; 'I' for Inactive)
REMARK    1  A    between atoms: O1_2  and  C2_3 
REMARK    2  A    between atoms: C5_6  and  C8_9 
REMARK    3  A    between atoms: N1_10  and  N2_11 
REMARK    4  A    between atoms: C11_16  and  C12_18 
REMARK    5  A    between atoms: C12_18  and  C13_19 
REMARK       I    between atoms: C13_19  and  N4_21 
REMARK    6  A    between atoms: N4_21  and  C14_22 
ROOT
ATOM      1  C14 <0> d         -10.288 -11.107   2.120  0.00  0.00     0.098 A 
ATOM      2  C15 <0> d         -10.965 -11.881   3.048  0.00  0.00     0.085 A 
ATOM      3  C16 <0> d         -12.320 -12.283   2.717  0.00  0.00    -0.021 A 
ATOM      4  C17 <0> d         -12.750 -11.836   1.516  0.00  0.00    -0.007 A 
ATOM      5  S2  <0> d         -11.390 -10.911   0.868  0.00  0.00    -0.075 SA
ATOM      6  C18 <0> d         -14.090 -12.081   0.893  0.00  0.00     0.047 C 
ATOM      7  C19 <0> d         -14.772 -13.229   1.652  0.00  0.00     0.005 C 
ATOM      8  C20 <0> d         -14.664 -12.962   3.156  0.00  0.00     0.005 C 
ATOM      9  C21 <0> d         -13.213 -13.130   3.612  0.00  0.00     0.041 C 
ATOM     10  C22 <0> d         -10.353 -12.269   4.283  0.00  0.00     0.103 C 
ATOM     11  N5  <0> d          -9.868 -12.577   5.263  0.00  0.00    -0.191 NA
ENDROOT
BRANCH   1  12
ATOM     12  N4  <0> d          -8.997 -10.604   2.208  0.00  0.00    -0.320 N 
ATOM     13  C13 <0> d          -8.495  -9.858   1.204  0.00  0.00     0.224 C 
ATOM     14  O3  <0> d          -9.172  -9.625   0.224  0.00  0.00    -0.273 OA
ATOM     15  H13 <0> d          -8.456 -10.790   2.991  0.00  0.00     0.169 HD
BRANCH  13  16
ATOM     16  C12 <0> d          -7.094  -9.312   1.299  0.00  0.00     0.128 C 
BRANCH  16  17
ATOM     17  C11 <0> d          -6.774  -8.506   0.038  0.00  0.00     0.156 A 
ATOM     18  C10 <0> d          -5.327  -8.038   0.035  0.00  0.00     0.238 A 
ATOM     19  N3  <0> d          -5.146  -6.729   0.037  0.00  0.00    -0.304 N 
ATOM     20  O2  <0> d          -4.398  -8.818   0.032  0.00  0.00    -0.272 OA
ATOM     21  C9  <0> d          -6.197  -5.836   0.040  0.00  0.00     0.191 A 
ATOM     22  H10 <0> d          -4.240  -6.383   0.035  0.00  0.00     0.171 HD
ATOM     23  N2  <0> d          -6.146  -4.521   0.042  0.00  0.00    -0.125 NA
ATOM     24  S1  <0> d          -7.644  -6.884   0.050  0.00  0.00    -0.075 SA
BRANCH  23  25
ATOM     25  N1  <0> d          -5.004  -3.919   0.034  0.00  0.00    -0.159 NA
ATOM     26  C8  <0> d          -4.954  -2.615   0.035  0.00  0.00     0.152 C 
BRANCH  26  27
ATOM     27  C5  <0> d          -3.652  -1.929   0.026  0.00  0.00    -0.017 A 
ATOM     28  C4  <0> d          -3.595  -0.531   0.028  0.00  0.00     0.015 A 
ATOM     29  C3  <0> d          -2.374   0.106   0.019  0.00  0.00     0.037 A 
ATOM     30  C2  <0> d          -1.200  -0.637   0.010  0.00  0.00     0.068 A 
ATOM     31  C7  <0> d          -1.251  -2.026   0.003  0.00  0.00     0.037 A 
ATOM     32  C6  <0> d          -2.467  -2.672   0.016  0.00  0.00     0.015 A 
BRANCH  30  33
ATOM     33  O1  <0> d           0.002  -0.004   0.002  0.00  0.00    -0.356 OA
ATOM     34  C1  <0> d          -0.017   1.425   0.010  0.00  0.00     0.210 C 
ENDBRANCH  30  33
ENDBRANCH  26  27
ENDBRANCH  23  25
ENDBRANCH  16  17
ENDBRANCH  13  16
ENDBRANCH   1  12
TORSDOF 6
