REMARK  3 active torsions:
REMARK  status: ('A' for Active; 'I' for Inactive)
REMARK    1  A    between atoms: N1_5  and  C5_7 
REMARK    2  A    between atoms: C13_17  and  C14_18 
REMARK    3  A    between atoms: C19_23  and  O2_24 
ROOT
ATOM      1  C1  <0> d          -0.018   1.503   0.010  0.00  0.00     0.073 C 
ATOM      2  C2  <0> d           0.002  -0.004   0.002  0.00  0.00     0.062 A 
ATOM      3  C3  <0> d           0.008  -0.810  -1.127  0.00  0.00     0.023 A 
ATOM      4  C4  <0> d           0.032  -2.116  -0.714  0.00  0.00     0.141 A 
ATOM      5  N1  <0> d           0.032  -2.117   0.635  0.00  0.00    -0.217 N 
ATOM      6  N2  <0> d           0.023  -0.779   1.062  0.00  0.00    -0.170 NA
ATOM      7  N3  <0> d           0.064  -3.176  -1.619  0.00  0.00    -0.311 N 
ATOM      8  C11 <0> d           0.274  -2.892  -2.922  0.00  0.00     0.224 C 
ATOM      9  O1  <0> d           0.118  -3.767  -3.747  0.00  0.00    -0.273 OA
ATOM     10  C12 <0> d           0.695  -1.525  -3.383  0.00  0.00     0.117 C 
ATOM     11  C13 <0> d          -0.013  -0.426  -2.584  0.00  0.00     0.069 C 
ATOM     12  H10 <0> d          -0.061  -4.090  -1.322  0.00  0.00     0.170 HD
ENDROOT
BRANCH  11  13
ATOM     13  C14 <0> d           0.707   0.884  -2.775  0.00  0.00    -0.016 A 
ATOM     14  C19 <0> d           0.033   1.976  -3.304  0.00  0.00     0.075 A 
ATOM     15  C18 <0> d           0.698   3.182  -3.472  0.00  0.00     0.037 A 
ATOM     16  C17 <0> d           2.030   3.291  -3.123  0.00  0.00     0.003 A 
ATOM     17  C16 <0> d           2.700   2.200  -2.601  0.00  0.00     0.001 A 
ATOM     18  C15 <0> d           2.039   0.998  -2.428  0.00  0.00     0.011 A 
BRANCH  14  19
ATOM     19  O2  <0> d          -1.276   1.865  -3.651  0.00  0.00    -0.355 OA
ATOM     20  C20 <0> d          -1.905   3.029  -4.190  0.00  0.00     0.210 C 
ENDBRANCH  14  19
ENDBRANCH  11  13
BRANCH   5  21
ATOM     21  C5  <0> d           0.044  -3.249   1.462  0.00  0.00     0.060 A 
ATOM     22  C10 <0> d           0.733  -3.223   2.667  0.00  0.00     0.031 A 
ATOM     23  C9  <0> d           0.738  -4.338   3.483  0.00  0.00     0.002 A 
ATOM     24  C8  <0> d           0.068  -5.483   3.094  0.00  0.00     0.000 A 
ATOM     25  C7  <0> d          -0.614  -5.514   1.891  0.00  0.00     0.002 A 
ATOM     26  C6  <0> d          -0.628  -4.400   1.075  0.00  0.00     0.031 A 
ENDBRANCH   5  21
TORSDOF 3
