REMARK  6 active torsions:
REMARK  status: ('A' for Active; 'I' for Inactive)
REMARK    1  A    between atoms: N1_2  and  C2_3 
REMARK    2  A    between atoms: N1_2  and  C10_12 
REMARK    3  A    between atoms: C2_3  and  C3_4 
REMARK    4  A    between atoms: C3_4  and  C4_5 
REMARK    5  A    between atoms: C4_5  and  C5_6 
REMARK    6  A    between atoms: C10_12  and  C11_13 
ROOT
ATOM      1  C2  <0> d           0.690  -0.478  -1.207  0.00  0.00     0.234 C 
ENDROOT
BRANCH   1   2
ATOM      2  N1  <0> d           0.002  -0.004   0.002  0.00  0.00    -0.071 N 
ATOM      3  C1  <0> d          -0.018   1.465   0.010  0.00  0.00     0.270 C 
ATOM      4  H25 <0> d           0.490  -0.338   0.820  0.00  0.00     0.279 HD
BRANCH   2   5
ATOM      5  C10 <0> d          -1.376  -0.512   0.012  0.00  0.00     0.280 C 
BRANCH   5   6
ATOM      6  C11 <0> d          -2.043  -0.130   1.309  0.00  0.00     0.009 A 
ATOM      7  S1  <0> d          -2.100  -1.027   2.851  0.00  0.00    -0.103 SA
ATOM      8  C14 <0> d          -3.067   0.145   3.789  0.00  0.00     0.069 A 
ATOM      9  C13 <0> d          -3.285   1.123   2.875  0.00  0.00     0.018 A 
ATOM     10  C12 <0> d          -2.760   0.982   1.604  0.00  0.00     0.035 A 
ATOM     11 Br1  <0> d          -4.291   2.657   3.334  0.00  0.00    -0.051 Br
ENDBRANCH   5   6
ENDBRANCH   2   5
ENDBRANCH   1   2
BRANCH   1  12
ATOM     12  C3  <0> d           2.159  -0.053  -1.157  0.00  0.00     0.028 C 
BRANCH  12  13
ATOM     13  C4  <0> d           2.875  -0.547  -2.416  0.00  0.00     0.008 C 
BRANCH  13  14
ATOM     14  C5  <0> d           4.344  -0.122  -2.366  0.00  0.00     0.011 C 
ATOM     15  C9  <0> d           5.032  -0.508  -3.678  0.00  0.00     0.237 C 
ATOM     16  N2  <0> d           6.442  -0.105  -3.632  0.00  0.00    -0.075 N 
ATOM     17  C8  <0> d           7.135  -0.834  -2.563  0.00  0.00     0.232 C 
ATOM     18  H17 <0> d           6.502   0.887  -3.454  0.00  0.00     0.277 HD
ATOM     19  H24 <0> d           6.880  -0.312  -4.517  0.00  0.00     0.277 HD
ATOM     20  C7  <0> d           6.528  -0.460  -1.209  0.00  0.00     0.028 C 
ATOM     21  C6  <0> d           5.042  -0.831  -1.202  0.00  0.00     0.008 C 
ENDBRANCH  13  14
ENDBRANCH  12  13
ENDBRANCH   1  12
TORSDOF 6
