REMARK  3 active torsions:
REMARK  status: ('A' for Active; 'I' for Inactive)
REMARK    1  A    between atoms: N3_12  and  C9_15 
REMARK    2  A    between atoms: C9_15  and  C10_16 
REMARK    3  A    between atoms: C10_16  and  N5_17 
ROOT
ATOM      1  C1  <0> d           3.472   0.597  -5.918  0.00  0.00     0.163 C 
ATOM      2  N1  <0> d           2.015   0.734  -5.968  0.00  0.00    -0.289 N 
ATOM      3  C2  <0> d           1.311   0.974  -4.807  0.00  0.00     0.121 A 
ATOM      4  C3  <0> d          -0.043   1.108  -4.870  0.00  0.00     0.082 A 
ATOM      5  C4  <0> d          -0.687   0.990  -6.114  0.00  0.00     0.263 A 
ATOM      6  O1  <0> d          -1.899   1.104  -6.189  0.00  0.00    -0.267 OA
ATOM      7  N2  <0> d           0.039   0.749  -7.223  0.00  0.00    -0.270 N 
ATOM      8  C5  <0> d           1.376   0.625  -7.146  0.00  0.00     0.332 A 
ATOM      9  O2  <0> d           2.017   0.411  -8.157  0.00  0.00    -0.246 OA
ATOM     10  C6  <0> d          -0.632   0.620  -8.519  0.00  0.00     0.164 C 
ATOM     11  C7  <0> d          -0.871   1.382  -3.642  0.00  0.00     0.322 C 
ATOM     12  N3  <0> d          -0.065   1.119  -2.440  0.00  0.00     0.111 N 
ATOM     13  C8  <0> d           1.254   1.759  -2.582  0.00  0.00     0.397 C 
ATOM     14  N4  <0> d           2.005   1.065  -3.632  0.00  0.00    -0.350 N 
ATOM     15  H11 <0> d           3.016   0.685  -3.424  0.00  0.00     0.162 HD
ENDROOT
BRANCH  12  16
ATOM     16  C9  <0> d          -0.753   1.593  -1.232  0.00  0.00     0.302 C 
BRANCH  16  17
ATOM     17  C10 <0> d          -0.013   1.086   0.008  0.00  0.00     0.265 C 
BRANCH  17  18
ATOM     18  N5  <0> d          -0.700   1.560   1.217  0.00  0.00    -0.069 N 
ATOM     19  C15 <0> d          -0.165   0.905   2.417  0.00  0.00     0.235 C 
ATOM     20  C14 <0> d          -0.998   1.311   3.635  0.00  0.00     0.028 C 
ATOM     21  C13 <0> d          -0.950   2.833   3.797  0.00  0.00     0.003 C 
ATOM     22  C12 <0> d          -1.466   3.491   2.514  0.00  0.00     0.028 C 
ATOM     23  C11 <0> d          -0.620   3.022   1.329  0.00  0.00     0.235 C 
ATOM     24  H26 <0> d          -1.763   1.288   1.132  0.00  0.00     0.279 HD
ENDBRANCH  17  18
ENDBRANCH  16  17
ENDBRANCH  12  16
TORSDOF 3
