REMARK  6 active torsions:
REMARK  status: ('A' for Active; 'I' for Inactive)
REMARK    1  A    between atoms: N2_5  and  C6_8 
REMARK    2  A    between atoms: C6_8  and  C7_9 
REMARK    3  A    between atoms: C6_8  and  C12_19 
REMARK    4  A    between atoms: C7_9  and  N3_10 
REMARK    5  A    between atoms: N3_10  and  S1_11 
REMARK    6  A    between atoms: S1_11  and  C8_14 
ROOT
ATOM      1  C6  <0> d           0.002  -0.004   0.002  0.00  0.00     0.274 C 
ENDROOT
BRANCH   1   2
ATOM      2  N2  <0> d          -0.375   1.412  -0.098  0.00  0.00     0.102 N 
ATOM      3  C3  <0> d           0.783   2.240  -0.464  0.00  0.00     0.301 C 
ATOM      4  C2  <0> d           0.368   3.714  -0.480  0.00  0.00     0.264 C 
ATOM      5  N1  <0> d          -0.732   3.899  -1.437  0.00  0.00    -0.072 N 
ATOM      6  C1  <0> d          -1.109   5.316  -1.537  0.00  0.00     0.269 C 
ATOM      7  C5  <0> d          -1.890   3.071  -1.071  0.00  0.00     0.264 C 
ATOM      8  H22 <0> d          -0.380   3.573  -2.427  0.00  0.00     0.279 HD
ATOM      9  C4  <0> d          -1.475   1.598  -1.055  0.00  0.00     0.301 C 
ENDBRANCH   1   2
BRANCH   1  10
ATOM     10  C7  <0> d          -1.213  -0.825   0.439  0.00  0.00     0.173 C 
BRANCH  10  11
ATOM     11  N3  <0> d          -1.752  -0.275   1.685  0.00  0.00    -0.313 N 
ATOM     12  H15 <0> d          -1.099   0.295   2.363  0.00  0.00     0.172 HD
BRANCH  11  13
ATOM     13  S1  <0> d          -3.265  -0.712   2.197  0.00  0.00     0.265 S 
ATOM     14  O1  <0> d          -3.486  -0.041   3.430  0.00  0.00    -0.200 OA
ATOM     15  O2  <0> d          -4.131  -0.559   1.081  0.00  0.00    -0.200 OA
BRANCH  13  16
ATOM     16  C8  <0> d          -3.214  -2.434   2.563  0.00  0.00     0.119 A 
ATOM     17  S2  <0> d          -3.540  -3.822   1.488  0.00  0.00    -0.088 SA
ATOM     18  C11 <0> d          -3.257  -5.129   2.671  0.00  0.00     0.051 A 
ATOM     19  C10 <0> d          -2.938  -4.431   3.788  0.00  0.00     0.009 A 
ATOM     20  C9  <0> d          -2.910  -3.050   3.732  0.00  0.00     0.033 A 
ENDBRANCH  13  16
ENDBRANCH  11  13
ENDBRANCH  10  11
ENDBRANCH   1  10
BRANCH   1  21
ATOM     21  C12 <0> d           0.482  -0.493  -1.340  0.00  0.00    -0.017 A 
ATOM     22  C15 <0> d          -0.386  -0.632  -2.372  0.00  0.00     0.058 A 
ATOM     23  S3  <0> d           0.682  -1.221  -3.676  0.00  0.00    -0.113 SA
ATOM     24  C14 <0> d           2.213  -1.242  -2.758  0.00  0.00     0.050 A 
ATOM     25  C13 <0> d           1.815  -0.800  -1.540  0.00  0.00     0.017 A 
ENDBRANCH   1  21
TORSDOF 6
