REMARK  5 active torsions:
REMARK  status: ('A' for Active; 'I' for Inactive)
REMARK    1  A    between atoms: C3_3  and  C4_4 
REMARK    2  A    between atoms: C4_4  and  N3_27 
REMARK    3  A    between atoms: C8_10  and  C9_11 
REMARK    4  A    between atoms: C9_11  and  C10_12 
REMARK       I    between atoms: C10_12  and  N2_14 
REMARK    5  A    between atoms: N2_14  and  C12_16 
ROOT
ATOM      1  C10 <0> d          -3.218   1.820   1.935  0.00  0.00     0.222 C 
ATOM      2  O2  <0> d          -3.650   2.679   2.675  0.00  0.00    -0.273 OA
ATOM      3  N2  <0> d          -1.966   1.352   2.104  0.00  0.00    -0.352 N 
ATOM      4  C11 <0> d          -1.445   0.315   1.211  0.00  0.00     0.153 C 
ENDROOT
BRANCH   1   5
ATOM      5  C9  <0> d          -4.083   1.276   0.827  0.00  0.00     0.146 C 
BRANCH   5   6
ATOM      6  C8  <0> d          -5.489   1.870   0.939  0.00  0.00     0.288 C 
ATOM      7  C7  <0> d          -6.111   1.439   2.236  0.00  0.00     0.249 C 
ATOM      8  N1  <0> d          -6.808   2.273   3.016  0.00  0.00    -0.358 N 
ATOM      9  O1  <0> d          -5.976   0.288   2.591  0.00  0.00    -0.271 OA
ATOM     10  C6  <0> d          -6.998   3.685   2.698  0.00  0.00     0.150 C 
ATOM     11  H12 <0> d          -7.204   1.923   3.830  0.00  0.00     0.162 HD
ATOM     12  C5  <0> d          -6.708   3.932   1.217  0.00  0.00     0.256 C 
ATOM     13  N3  <0> d          -5.391   3.342   0.904  0.00  0.00    -0.053 N 
ATOM     14  H38 <0> d          -4.710   3.650   1.608  0.00  0.00     0.281 HD
BRANCH  13  15
ATOM     15  C4  <0> d          -4.938   3.788  -0.433  0.00  0.00     0.263 C 
BRANCH  15  16
ATOM     16  C3  <0> d          -4.944   5.295  -0.478  0.00  0.00     0.003 C 
ATOM     17  C2  <0> d          -5.570   5.918  -1.445  0.00  0.00    -0.090 C 
ATOM     18  C1  <0> d          -6.164   5.135  -2.587  0.00  0.00     0.042 C 
ATOM     19  C21 <0> d          -5.697   7.420  -1.415  0.00  0.00     0.042 C 
ENDBRANCH  15  16
ENDBRANCH  13  15
ENDBRANCH   5   6
ENDBRANCH   1   5
BRANCH   3  20
ATOM     20  C12 <0> d          -1.123   1.882   3.184  0.00  0.00     0.091 C 
ATOM     21  C16 <0> d          -0.733   0.742   4.123  0.00  0.00     0.063 C 
ATOM     22  C15 <0> d           0.164   1.260   5.245  0.00  0.00     0.121 C 
ATOM     23  C17 <0> d          -0.684   2.031   6.264  0.00  0.00     0.046 C 
ATOM     24  C18 <0> d           0.752   0.032   5.975  0.00  0.00     0.046 C 
ATOM     25  N4  <0> d           1.333   2.061   4.794  0.00  0.00    -0.059 N 
ATOM     26  C14 <0> d           1.057   3.015   3.687  0.00  0.00     0.121 C 
ATOM     27  H39 <0> d           1.680   2.598   5.597  0.00  0.00     0.279 HD
ATOM     28  H40 <0> d           2.062   1.410   4.477  0.00  0.00     0.279 HD
ATOM     29  C13 <0> d           0.151   2.475   2.583  0.00  0.00     0.063 C 
ATOM     30  C19 <0> d           0.487   4.338   4.215  0.00  0.00     0.046 C 
ATOM     31  C20 <0> d           2.429   3.330   3.050  0.00  0.00     0.046 C 
ENDBRANCH   3  20
TORSDOF 5
