REMARK  6 active torsions:
REMARK  status: ('A' for Active; 'I' for Inactive)
REMARK    1  A    between atoms: C6_6  and  N1_8 
REMARK       I    between atoms: N1_8  and  C8_9 
REMARK    2  A    between atoms: C8_9  and  C9_11 
REMARK       I    between atoms: C9_11  and  N2_13 
REMARK    3  A    between atoms: N2_13  and  C10_14 
REMARK    4  A    between atoms: C10_14  and  C11_15 
REMARK    5  A    between atoms: C11_15  and  C12_16 
REMARK    6  A    between atoms: C11_15  and  N4_33 
ROOT
ATOM      1  C11 <0> d           1.601   1.036   0.888  0.00  0.00     0.238 C 
ENDROOT
BRANCH   1   2
ATOM      2  C10 <0> d           2.815   0.771  -0.005  0.00  0.00     0.161 C 
BRANCH   2   3
ATOM      3  N2  <0> d           3.984   0.486   0.831  0.00  0.00    -0.351 N 
ATOM      4  C9  <0> d           5.138   0.086   0.263  0.00  0.00     0.309 C 
ATOM      5  O2  <0> d           5.210  -0.038  -0.943  0.00  0.00    -0.262 OA
ATOM      6  H10 <0> d           3.926   0.586   1.795  0.00  0.00     0.162 HD
BRANCH   4   7
ATOM      7  C8  <0> d           6.329  -0.205   1.115  0.00  0.00     0.313 C 
ATOM      8  N1  <0> d           7.484  -0.605   0.546  0.00  0.00    -0.319 N 
ATOM      9  H9  <0> d           7.554  -0.663  -0.419  0.00  0.00     0.169 HD
ATOM     10  O1  <0> d           6.258  -0.080   2.320  0.00  0.00    -0.262 OA
BRANCH   8  11
ATOM     11  C6  <0> d           8.579  -0.937   1.348  0.00  0.00     0.035 A 
ATOM     12  C5  <0> d           8.846  -0.206   2.498  0.00  0.00     0.029 A 
ATOM     13  C4  <0> d           9.928  -0.539   3.291  0.00  0.00     0.003 A 
ATOM     14  C3  <0> d          10.750  -1.593   2.934  0.00  0.00     0.007 A 
ATOM     15  C2  <0> d          10.489  -2.319   1.786  0.00  0.00    -0.060 A 
ATOM     16  C1  <0> d          11.388  -3.466   1.401  0.00  0.00     0.048 C 
ATOM     17  C7  <0> d           9.407  -1.994   0.992  0.00  0.00     0.036 A 
ENDBRANCH   8  11
ENDBRANCH   4   7
ENDBRANCH   2   3
ENDBRANCH   1   2
BRANCH   1  18
ATOM     18  C12 <0> d           0.460   1.546   0.046  0.00  0.00    -0.025 A 
ATOM     19  C17 <0> d           0.083   2.872   0.122  0.00  0.00     0.018 A 
ATOM     20  C16 <0> d          -0.964   3.351  -0.650  0.00  0.00    -0.036 A 
ATOM     21  C15 <0> d          -1.636   2.497  -1.506  0.00  0.00     0.016 A 
ATOM     22  C18 <0> d          -1.335   4.807  -0.519  0.00  0.00     0.041 C 
ATOM     23  C14 <0> d          -1.249   1.157  -1.580  0.00  0.00     0.025 A 
ATOM     24  N3  <0> d          -2.690   2.912  -2.318  0.00  0.00    -0.287 NA
ATOM     25  C13 <0> d          -0.211   0.687  -0.805  0.00  0.00     0.011 A 
ATOM     26  C20 <0> d          -3.314   4.155  -1.860  0.00  0.00     0.095 C 
ATOM     27  C21 <0> d          -3.690   1.846  -2.468  0.00  0.00     0.116 C 
ATOM     28  C19 <0> d          -2.222   5.220  -1.695  0.00  0.00     0.019 C 
ENDBRANCH   1  18
BRANCH   1  29
ATOM     29  N4  <0> d           1.193  -0.226   1.574  0.00  0.00    -0.061 N 
ATOM     30  C22 <0> d           2.229  -0.648   2.530  0.00  0.00     0.236 C 
ATOM     31  C23 <0> d           1.446  -1.603   3.466  0.00  0.00     0.029 C 
ATOM     32  C24 <0> d           0.063  -0.922   3.576  0.00  0.00     0.029 C 
ATOM     33  C25 <0> d          -0.042  -0.021   2.332  0.00  0.00     0.236 C 
ATOM     34  H33 <0> d           1.051  -0.961   0.871  0.00  0.00     0.280 HD
ENDBRANCH   1  29
TORSDOF 6
