REMARK  6 active torsions:
REMARK  status: ('A' for Active; 'I' for Inactive)
REMARK    1  A    between atoms: C7_8  and  N2_12 
REMARK    2  A    between atoms: N2_12  and  C9_13 
REMARK    3  A    between atoms: C9_13  and  C10_14 
REMARK    4  A    between atoms: C10_14  and  C11_15 
REMARK    5  A    between atoms: C11_15  and  C12_16 
REMARK    6  A    between atoms: C12_16  and  N3_17 
ROOT
ATOM      1  N2  <0> d           4.143  -1.157  -1.251  0.00  0.00    -0.058 N 
ATOM      2  H6  <0> d           3.508  -1.938  -1.317  0.00  0.00     0.278 HD
ATOM      3  H18 <0> d           4.035  -0.566  -2.061  0.00  0.00     0.278 HD
ENDROOT
BRANCH   1   4
ATOM      4  C7  <0> d           3.844  -0.385  -0.038  0.00  0.00     0.312 A 
ATOM      5  C4  <0> d           2.392   0.034  -0.021  0.00  0.00     0.009 A 
ATOM      6  C3  <0> d           2.386   1.423  -0.013  0.00  0.00     0.043 A 
ATOM      7  C5  <0> d           1.213  -0.676  -0.012  0.00  0.00     0.031 A 
ATOM      8  C2  <0> d           1.164   2.093   0.002  0.00  0.00     0.031 A 
ATOM      9  N1  <0> d           3.694   1.911  -0.024  0.00  0.00    -0.325 N 
ATOM     10  C1  <0> d          -0.017   1.379   0.010  0.00  0.00     0.021 A 
ATOM     11  C6  <0> d           0.002  -0.004   0.002  0.00  0.00     0.011 A 
ATOM     12 Br1  <0> d          -1.621  -0.975   0.012  0.00  0.00    -0.051 Br
ATOM     13  C8  <0> d           4.605   0.924  -0.038  0.00  0.00     0.257 A 
ATOM     14  H5  <0> d           3.919   2.855  -0.022  0.00  0.00     0.169 HD
ATOM     15  O1  <0> d           5.810   1.057  -0.049  0.00  0.00    -0.270 OA
ENDBRANCH   1   4
BRANCH   1  16
ATOM     16  C9  <0> d           5.524  -1.654  -1.187  0.00  0.00     0.233 C 
BRANCH  16  17
ATOM     17  C10 <0> d           5.835  -2.459  -2.450  0.00  0.00     0.029 C 
BRANCH  17  18
ATOM     18  C11 <0> d           7.274  -2.975  -2.384  0.00  0.00     0.022 C 
BRANCH  18  19
ATOM     19  C12 <0> d           7.585  -3.780  -3.648  0.00  0.00     0.129 C 
BRANCH  19  20
ATOM     20  N3  <0> d           8.963  -4.275  -3.584  0.00  0.00    -0.352 N 
ATOM     21  C15 <0> d           9.368  -5.451  -3.059  0.00  0.00     0.182 A 
ATOM     22  N4  <0> d          10.664  -5.542  -3.187  0.00  0.00    -0.361 N 
ATOM     23  C14 <0> d          11.128  -4.435  -3.784  0.00  0.00     0.106 A 
ATOM     24  H19 <0> d          11.206  -6.290  -2.892  0.00  0.00     0.166 HD
ATOM     25  C13 <0> d          10.080  -3.630  -4.042  0.00  0.00     0.108 A 
ENDBRANCH  19  20
ENDBRANCH  18  19
ENDBRANCH  17  18
ENDBRANCH  16  17
ENDBRANCH   1  16
TORSDOF 6
