REMARK  5 active torsions:
REMARK  status: ('A' for Active; 'I' for Inactive)
REMARK    1  A    between atoms: C2_2  and  N1_4 
REMARK    2  A    between atoms: C6_7  and  C8_9 
REMARK    3  A    between atoms: C8_9  and  N2_10 
REMARK    4  A    between atoms: N2_10  and  C9_11 
REMARK    5  A    between atoms: C9_11  and  C13_16 
ROOT
ATOM      1  C8  <0> d           4.201  -0.935  -2.194  0.00  0.00     0.277 C 
ENDROOT
BRANCH   1   2
ATOM      2  C6  <0> d           3.104  -1.115  -1.143  0.00  0.00     0.041 C 
ATOM      3  C5  <0> d           2.108  -2.224  -1.575  0.00  0.00     0.036 C 
ATOM      4  C4  <0> d           0.822  -1.799  -0.823  0.00  0.00     0.236 C 
ATOM      5  N1  <0> d           0.822  -0.322  -0.880  0.00  0.00    -0.067 N 
ATOM      6  C7  <0> d           2.211   0.141  -1.061  0.00  0.00     0.241 C 
ATOM      7  H24 <0> d           0.258  -0.014  -1.657  0.00  0.00     0.280 HD
BRANCH   5   8
ATOM      8  C2  <0> d           0.280   0.221   0.373  0.00  0.00     0.180 C 
ATOM      9  C1  <0> d           0.302   1.750   0.318  0.00  0.00     0.039 C 
ATOM     10  C3  <0> d          -1.161  -0.262   0.556  0.00  0.00     0.039 C 
ENDBRANCH   5   8
ENDBRANCH   1   2
BRANCH   1  11
ATOM     11  N2  <0> d           5.034  -2.144  -2.245  0.00  0.00     0.105 N 
ATOM     12  H17 <0> d           5.346  -2.407  -1.323  0.00  0.00     0.317 HD
BRANCH  11  13
ATOM     13  C9  <0> d           6.172  -1.961  -3.155  0.00  0.00     0.253 C 
ATOM     14  C12 <0> d           5.631  -1.602  -4.557  0.00  0.00     0.127 C 
ATOM     15  S1  <0> d           5.825   0.233  -4.559  0.00  0.00    -0.166 SA
ATOM     16  C11 <0> d           7.322   0.314  -3.483  0.00  0.00     0.077 C 
ATOM     17  C10 <0> d           7.100  -0.909  -2.566  0.00  0.00     0.064 C 
BRANCH  13  18
ATOM     18  C13 <0> d           6.925  -3.263  -3.249  0.00  0.00     0.214 C 
ATOM     19  O1  <0> d           6.529  -4.241  -2.638  0.00  0.00    -0.646 OA
ATOM     20  O2  <0> d           7.929  -3.339  -3.936  0.00  0.00    -0.646 OA
ENDBRANCH  13  18
ENDBRANCH  11  13
ENDBRANCH   1  11
TORSDOF 5
