REMARK  8 active torsions:
REMARK  status: ('A' for Active; 'I' for Inactive)
REMARK    1  A    between atoms: C2_2  and  C3_3 
REMARK    2  A    between atoms: C6_6  and  C9_9 
REMARK    3  A    between atoms: C9_9  and  C10_10 
REMARK    4  A    between atoms: C9_9  and  N4_27 
REMARK    5  A    between atoms: C10_10  and  N1_11 
REMARK       I    between atoms: N1_11  and  C11_12 
REMARK       I    between atoms: C11_12  and  N2_14 
REMARK    6  A    between atoms: N2_14  and  C12_15 
REMARK    7  A    between atoms: C15_18  and  C19_22 
REMARK       I    between atoms: C19_22  and  N3_24 
REMARK    8  A    between atoms: N3_24  and  C20_25 
ROOT
ATOM      1  N1  <0> d           3.332  -1.321   6.998  0.00  0.00    -0.341 N 
ATOM      2  C11 <0> d           3.453  -0.530   8.083  0.00  0.00     0.320 C 
ATOM      3  O1  <0> d           3.222   0.661   7.995  0.00  0.00    -0.247 OA
ATOM      4  N2  <0> d           3.831  -1.058   9.264  0.00  0.00    -0.308 N 
ATOM      5  H13 <0> d           3.516  -2.271   7.068  0.00  0.00     0.164 HD
ATOM      6  H14 <0> d           3.939  -2.018   9.354  0.00  0.00     0.170 HD
ENDROOT
BRANCH   1   7
ATOM      7  C10 <0> d           2.921  -0.747   5.715  0.00  0.00     0.162 C 
BRANCH   7   8
ATOM      8  C9  <0> d           2.742  -1.868   4.689  0.00  0.00     0.237 C 
BRANCH   8   9
ATOM      9  C6  <0> d           4.074  -2.520   4.419  0.00  0.00    -0.026 A 
ATOM     10  C5  <0> d           4.396  -3.715   5.033  0.00  0.00     0.010 A 
ATOM     11  C4  <0> d           5.617  -4.313   4.785  0.00  0.00     0.007 A 
ATOM     12  C3  <0> d           6.516  -3.716   3.922  0.00  0.00    -0.059 A 
ATOM     13  C8  <0> d           6.197  -2.517   3.312  0.00  0.00     0.007 A 
ATOM     14  C7  <0> d           4.974  -1.922   3.557  0.00  0.00     0.010 A 
BRANCH  12  15
ATOM     15  C2  <0> d           7.848  -4.368   3.651  0.00  0.00     0.034 C 
ATOM     16  C1  <0> d           8.876  -3.869   4.669  0.00  0.00     0.010 C 
ENDBRANCH  12  15
ENDBRANCH   8   9
BRANCH   8  17
ATOM     17  N4  <0> d           2.209  -1.308   3.440  0.00  0.00    -0.069 N 
ATOM     18  C22 <0> d           1.942  -2.397   2.490  0.00  0.00     0.270 C 
ATOM     19  C23 <0> d           0.960  -0.587   3.720  0.00  0.00     0.270 C 
ATOM     20  H33 <0> d           2.883  -0.672   3.042  0.00  0.00     0.279 HD
ENDBRANCH   8  17
ENDBRANCH   7   8
ENDBRANCH   1   7
BRANCH   4  21
ATOM     21  C12 <0> d           4.066  -0.225  10.357  0.00  0.00     0.042 A 
ATOM     22  C17 <0> d           3.945  -0.724  11.649  0.00  0.00    -0.034 A 
ATOM     23  C16 <0> d           4.181   0.095  12.730  0.00  0.00     0.026 A 
ATOM     24  C18 <0> d           3.560  -2.165  11.866  0.00  0.00     0.050 C 
ATOM     25  C15 <0> d           4.533   1.432  12.528  0.00  0.00     0.032 A 
ATOM     26  C14 <0> d           4.649   1.932  11.228  0.00  0.00     0.019 A 
ATOM     27  C13 <0> d           4.416   1.107  10.152  0.00  0.00     0.031 A 
BRANCH  25  28
ATOM     28  C19 <0> d           4.783   2.314  13.685  0.00  0.00     0.251 C 
ATOM     29  O2  <0> d           4.682   1.877  14.815  0.00  0.00    -0.268 OA
ATOM     30  N3  <0> d           5.123   3.603  13.489  0.00  0.00    -0.357 N 
ATOM     31  H21 <0> d           5.203   3.951  12.587  0.00  0.00     0.162 HD
BRANCH  30  32
ATOM     32  C20 <0> d           5.370   4.479  14.637  0.00  0.00     0.118 C 
ATOM     33  C21 <0> d           5.736   5.879  14.141  0.00  0.00     0.026 C 
ENDBRANCH  30  32
ENDBRANCH  25  28
ENDBRANCH   4  21
TORSDOF 8
