REMARK  4 active torsions:
REMARK  status: ('A' for Active; 'I' for Inactive)
REMARK    1  A    between atoms: C3_3  and  C13_19 
REMARK    2  A    between atoms: C4_4  and  C6_9 
REMARK    3  A    between atoms: C8_11  and  O3_17 
REMARK    4  A    between atoms: C9_12  and  O2_16 
ROOT
ATOM      1  C1  <0> d          -0.557   1.642  -0.258  0.00  0.00     0.069 C 
ATOM      2  C2  <0> d          -1.053   1.808   1.156  0.00  0.00     0.022 A 
ATOM      3  C3  <0> d          -0.173   1.733   2.185  0.00  0.00     0.037 A 
ATOM      4  C4  <0> d          -0.716   1.906   3.589  0.00  0.00     0.158 A 
ATOM      5  N1  <0> d          -2.164   2.143   3.719  0.00  0.00    -0.330 N 
ATOM      6  C5  <0> d          -2.910   2.191   2.598  0.00  0.00     0.321 A 
ATOM      7  O1  <0> d          -4.106   2.385   2.696  0.00  0.00    -0.247 OA
ATOM      8  N2  <0> d          -2.377   2.037   1.379  0.00  0.00    -0.312 N 
ATOM      9  H5  <0> d          -2.571   2.261   4.592  0.00  0.00     0.165 HD
ATOM     10  H6  <0> d          -2.969   2.086   0.612  0.00  0.00     0.170 HD
ENDROOT
BRANCH   4  11
ATOM     11  C6  <0> d          -0.375   0.667   4.375  0.00  0.00    -0.027 A 
ATOM     12  C11 <0> d          -1.117  -0.486   4.200  0.00  0.00     0.030 A 
ATOM     13  C10 <0> d          -0.805  -1.628   4.916  0.00  0.00     0.043 A 
ATOM     14  C9  <0> d           0.247  -1.614   5.819  0.00  0.00     0.115 A 
ATOM     15  I1  <0> d          -1.926  -3.376   4.641  0.00  0.00    -0.042 I 
ATOM     16  C8  <0> d           0.990  -0.451   5.998  0.00  0.00     0.103 A 
ATOM     17  C7  <0> d           0.675   0.687   5.274  0.00  0.00     0.049 A 
BRANCH  14  18
ATOM     18  O2  <0> d           0.551  -2.734   6.527  0.00  0.00    -0.357 OA
ATOM     19  H9  <0> d           0.086  -2.803   7.372  0.00  0.00     0.218 HD
ENDBRANCH  14  18
BRANCH  16  20
ATOM     20  O3  <0> d           2.022  -0.432   6.883  0.00  0.00    -0.353 OA
ATOM     21  C12 <0> d           2.740   0.796   7.016  0.00  0.00     0.210 C 
ENDBRANCH  16  20
ENDBRANCH   4  11
BRANCH   3  22
ATOM     22  C13 <0> d           1.194   1.504   1.957  0.00  0.00     0.156 C 
ATOM     23  O4  <0> d           1.564   0.438   1.507  0.00  0.00    -0.293 OA
ATOM     24  C14 <0> d           2.201   2.580   2.271  0.00  0.00     0.096 C 
ENDBRANCH   3  22
TORSDOF 4
