REMARK  2 active torsions:
REMARK  status: ('A' for Active; 'I' for Inactive)
REMARK    1  A    between atoms: C6_7  and  N2_9 
REMARK       I    between atoms: N2_9  and  C8_10 
REMARK    2  A    between atoms: C8_10  and  C9_12 
ROOT
ATOM      1  N2  <0> d           0.817  -1.934  -1.270  0.00  0.00    -0.350 N 
ATOM      2  C8  <0> d           0.954  -2.589  -2.440  0.00  0.00     0.250 C 
ATOM      3  O1  <0> d           1.024  -1.965  -3.482  0.00  0.00    -0.268 OA
ATOM      4  H14 <0> d           0.761  -2.432  -0.439  0.00  0.00     0.163 HD
ENDROOT
BRANCH   2   5
ATOM      5  C9  <0> d           1.018  -4.055  -2.457  0.00  0.00     0.041 C 
ATOM      6  C15 <0> d           0.933  -4.839  -1.181  0.00  0.00     0.199 C 
ATOM      7  C13 <0> d           1.723  -6.122  -1.391  0.00  0.00     0.066 C 
ATOM      8  N4  <0> d           1.599  -4.229  -0.037  0.00  0.00    -0.266 NA
ATOM      9  C12 <0> d           1.628  -6.858  -2.586  0.00  0.00     0.049 C 
ATOM     10  N3  <0> d           2.432  -6.255  -0.315  0.00  0.00    -0.244 NA
ATOM     11  C11 <0> d           1.311  -6.130  -3.702  0.00  0.00     0.013 C 
ATOM     12  C10 <0> d           1.161  -4.726  -3.627  0.00  0.00     0.034 C 
ATOM     13 Br1  <0> d           1.072  -7.010  -5.359  0.00  0.00    -0.051 Br
ATOM     14  C14 <0> d           2.425  -5.129   0.416  0.00  0.00     0.228 C 
ENDBRANCH   2   5
BRANCH   1  15
ATOM     15  C6  <0> d           0.753  -0.471  -1.252  0.00  0.00     0.114 C 
ATOM     16  C5  <0> d           0.002  -0.004   0.002  0.00  0.00     0.013 C 
ATOM     17  C1  <0> d          -0.019   1.530   0.011  0.00  0.00     0.034 C 
ATOM     18  C4  <0> d           0.777  -0.484   1.236  0.00  0.00     0.034 C 
ATOM     19  C2  <0> d           1.423   2.043  -0.001  0.00  0.00     0.235 C 
ATOM     20  N1  <0> d           2.357   0.915  -0.016  0.00  0.00    -0.069 N 
ATOM     21  C7  <0> d           2.170   0.107  -1.223  0.00  0.00     0.260 C 
ATOM     22  C3  <0> d           2.193   0.094   1.186  0.00  0.00     0.235 C 
ATOM     23  H18 <0> d           3.298   1.280  -0.019  0.00  0.00     0.280 HD
ENDBRANCH   1  15
TORSDOF 2
