REMARK  6 active torsions:
REMARK  status: ('A' for Active; 'I' for Inactive)
REMARK    1  A    between atoms: C3_3  and  C6_9 
REMARK    2  A    between atoms: C6_9  and  O2_11 
REMARK    3  A    between atoms: O2_11  and  C7_12 
REMARK    4  A    between atoms: C7_12  and  C8_13 
REMARK       I    between atoms: C8_13  and  N3_15 
REMARK    5  A    between atoms: N3_15  and  C9_16 
REMARK    6  A    between atoms: C10_17  and  C16_24 
REMARK       I    between atoms: C16_24  and  N4_26 
ROOT
ATOM      1  C8  <0> d           1.141   2.072   0.002  0.00  0.00     0.246 C 
ATOM      2  O3  <0> d           2.200   1.480  -0.011  0.00  0.00    -0.271 OA
ATOM      3  N3  <0> d          -0.017   1.382   0.010  0.00  0.00    -0.319 N 
ATOM      4  H9  <0> d          -0.863   1.856   0.016  0.00  0.00     0.169 HD
ENDROOT
BRANCH   3   5
ATOM      5  C9  <0> d           0.002  -0.004   0.002  0.00  0.00     0.093 A 
ATOM      6  S1  <0> d           1.372  -1.061  -0.016  0.00  0.00    -0.075 SA
ATOM      7  C12 <0> d           0.532  -2.626  -0.017  0.00  0.00    -0.008 A 
ATOM      8  C11 <0> d          -0.776  -2.312  -0.003  0.00  0.00    -0.026 A 
ATOM      9  C13 <0> d           0.754  -4.114  -0.030  0.00  0.00     0.047 C 
ATOM     10  C10 <0> d          -1.071  -0.879   0.013  0.00  0.00     0.072 A 
ATOM     11  C15 <0> d          -1.586  -3.609  -0.000  0.00  0.00     0.041 C 
ATOM     12  C14 <0> d          -0.606  -4.707  -0.459  0.00  0.00     0.010 C 
BRANCH  10  13
ATOM     13  C16 <0> d          -2.452  -0.388   0.036  0.00  0.00     0.252 C 
ATOM     14  O4  <0> d          -3.041  -0.178  -1.008  0.00  0.00    -0.268 OA
ATOM     15  N4  <0> d          -3.069  -0.167   1.214  0.00  0.00    -0.366 N 
ATOM     16  H16 <0> d          -2.600  -0.334   2.046  0.00  0.00     0.159 HD
ATOM     17  H17 <0> d          -3.983   0.158   1.229  0.00  0.00     0.159 HD
ENDBRANCH  10  13
ENDBRANCH   3   5
BRANCH   1  18
ATOM     18  C7  <0> d           1.121   3.579   0.011  0.00  0.00     0.282 C 
BRANCH  18  19
ATOM     19  O2  <0> d           2.483   4.082   0.000  0.00  0.00    -0.308 OA
BRANCH  19  20
ATOM     20  C6  <0> d           2.641   5.420   0.006  0.00  0.00     0.299 C 
ATOM     21  O1  <0> d           1.668   6.147   0.019  0.00  0.00    -0.259 OA
BRANCH  20  22
ATOM     22  C3  <0> d           3.993   6.001  -0.004  0.00  0.00     0.105 A 
ATOM     23  C2  <0> d           4.756   6.333  -1.147  0.00  0.00     0.070 A 
ATOM     24  C1  <0> d           4.327   6.155  -2.580  0.00  0.00     0.073 C 
ATOM     25  N2  <0> d           5.895   6.824  -0.743  0.00  0.00    -0.176 NA
ATOM     26  N1  <0> d           5.922   6.822   0.656  0.00  0.00    -0.262 N 
ATOM     27  C4  <0> d           4.759   6.319   1.104  0.00  0.00     0.140 A 
ATOM     28  C5  <0> d           7.030   7.289   1.492  0.00  0.00     0.181 C 
ATOM     29 Cl1  <0> d           4.303   6.108   2.765  0.00  0.00    -0.062 Cl
ENDBRANCH  20  22
ENDBRANCH  19  20
ENDBRANCH  18  19
ENDBRANCH   1  18
TORSDOF 6
