REMARK  5 active torsions:
REMARK  status: ('A' for Active; 'I' for Inactive)
REMARK    1  A    between atoms: C6_6  and  O1_9 
REMARK    2  A    between atoms: O1_9  and  C9_10 
REMARK    3  A    between atoms: C9_10  and  C10_11 
REMARK    4  A    between atoms: C9_10  and  C11_13 
REMARK    5  A    between atoms: C10_11  and  N1_12 
ROOT
ATOM      1  C9  <0> d          -0.043  -4.199   2.277  0.00  0.00     0.194 C 
ENDROOT
BRANCH   1   2
ATOM      2  O1  <0> d           0.050  -2.776   2.358  0.00  0.00    -0.339 OA
BRANCH   2   3
ATOM      3  C6  <0> d          -0.017  -2.085   1.190  0.00  0.00     0.076 A 
ATOM      4  C5  <0> d          -0.051  -2.765  -0.018  0.00  0.00     0.037 A 
ATOM      5  C4  <0> d          -0.118  -2.061  -1.205  0.00  0.00     0.003 A 
ATOM      6  C3  <0> d          -0.153  -0.679  -1.188  0.00  0.00     0.007 A 
ATOM      7  C2  <0> d          -0.119   0.002   0.015  0.00  0.00    -0.053 A 
ATOM      8  C1  <0> d          -0.157   1.508   0.029  0.00  0.00     0.049 C 
ATOM      9  C7  <0> d          -0.045  -0.698   1.204  0.00  0.00    -0.023 A 
ATOM     10  C8  <0> d          -0.002   0.045   2.514  0.00  0.00     0.052 C 
ENDBRANCH   2   3
ENDBRANCH   1   2
BRANCH   1  11
ATOM     11  C10 <0> d           1.363  -4.804   2.303  0.00  0.00     0.267 C 
BRANCH  11  12
ATOM     12  N1  <0> d           2.135  -4.297   1.161  0.00  0.00    -0.077 N 
ATOM     13  H13 <0> d           3.062  -4.696   1.179  0.00  0.00     0.274 HD
ATOM     14  H14 <0> d           1.674  -4.555   0.302  0.00  0.00     0.274 HD
ATOM     15  H17 <0> d           2.201  -3.292   1.219  0.00  0.00     0.274 HD
ENDBRANCH  11  12
ENDBRANCH   1  11
BRANCH   1  16
ATOM     16  C11 <0> d          -0.835  -4.719   3.448  0.00  0.00     0.015 A 
ATOM     17  S1  <0> d          -0.889  -4.113   5.127  0.00  0.00    -0.085 SA
ATOM     18  C14 <0> d          -2.052  -5.297   5.785  0.00  0.00     0.051 A 
ATOM     19  C13 <0> d          -2.311  -6.069   4.699  0.00  0.00     0.028 A 
ATOM     20 Br1  <0> d          -2.738  -5.443   7.541  0.00  0.00    -0.043 Br
ATOM     21  C12 <0> d          -1.687  -5.772   3.502  0.00  0.00     0.019 A 
ENDBRANCH   1  16
TORSDOF 5
