REMARK  6 active torsions:
REMARK  status: ('A' for Active; 'I' for Inactive)
REMARK    1  A    between atoms: C2_2  and  C3_3 
REMARK    2  A    between atoms: C2_2  and  N1_10 
REMARK    3  A    between atoms: N1_10  and  C9_11 
REMARK    4  A    between atoms: C9_11  and  C10_12 
REMARK       I    between atoms: C10_12  and  N2_14 
REMARK    5  A    between atoms: N2_14  and  C11_15 
REMARK    6  A    between atoms: C11_15  and  C12_16 
ROOT
ATOM      1  C10 <0> d           2.125   0.993   1.166  0.00  0.00     0.243 C 
ATOM      2  O1  <0> d           1.591   0.218   1.931  0.00  0.00    -0.272 OA
ATOM      3  N2  <0> d           3.408   1.356   1.360  0.00  0.00    -0.357 N 
ATOM      4  H13 <0> d           3.892   2.059   0.665  0.00  0.00     0.162 HD
ENDROOT
BRANCH   1   5
ATOM      5  C9  <0> d           1.353   1.550  -0.003  0.00  0.00     0.335 C 
BRANCH   5   6
ATOM      6  N1  <0> d          -0.012   1.005   0.008  0.00  0.00    -0.059 N 
ATOM      7  H10 <0> d          -0.497   1.287   0.954  0.00  0.00     0.278 HD
ATOM      8  H22 <0> d           0.046  -0.091  -0.062  0.00  0.00     0.278 HD
BRANCH   6   9
ATOM      9  C2  <0> d          -0.795   1.527  -1.120  0.00  0.00     0.217 C 
ATOM     10  C1  <0> d          -0.534   0.673  -2.362  0.00  0.00     0.045 C 
BRANCH   9  11
ATOM     11  C3  <0> d          -2.262   1.479  -0.777  0.00  0.00    -0.006 A 
ATOM     12  C8  <0> d          -3.161   2.271  -1.469  0.00  0.00     0.042 A 
ATOM     13  C7  <0> d          -4.507   2.226  -1.153  0.00  0.00     0.024 A 
ATOM     14 Cl1  <0> d          -2.599   3.321  -2.732  0.00  0.00    -0.084 Cl
ATOM     15  C6  <0> d          -4.954   1.389  -0.148  0.00  0.00     0.002 A 
ATOM     16  C5  <0> d          -4.055   0.598   0.543  0.00  0.00     0.001 A 
ATOM     17  C4  <0> d          -2.711   0.638   0.225  0.00  0.00     0.011 A 
ENDBRANCH   9  11
ENDBRANCH   6   9
ENDBRANCH   5   6
ENDBRANCH   1   5
BRANCH   3  18
ATOM     18  C11 <0> d           4.159   0.815   2.495  0.00  0.00     0.157 C 
BRANCH  18  19
ATOM     19  C12 <0> d           5.579   1.382   2.485  0.00  0.00     0.171 C 
ATOM     20  O3  <0> d           6.236   1.018   1.266  0.00  0.00    -0.339 OA
ATOM     21  C19 <0> d           7.586   1.185   1.224  0.00  0.00     0.102 A 
ATOM     22  C14 <0> d           8.320   1.341   2.394  0.00  0.00     0.102 A 
ATOM     23  C18 <0> d           8.233   1.199  -0.003  0.00  0.00     0.039 A 
ATOM     24  O2  <0> d           7.705   1.336   3.608  0.00  0.00    -0.346 OA
ATOM     25  C15 <0> d           9.695   1.506   2.328  0.00  0.00     0.039 A 
ATOM     26  C13 <0> d           6.380   0.795   3.655  0.00  0.00     0.209 C 
ATOM     27  C16 <0> d          10.334   1.517   1.103  0.00  0.00     0.003 A 
ATOM     28  C17 <0> d           9.603   1.364  -0.061  0.00  0.00     0.003 A 
ENDBRANCH  18  19
ENDBRANCH   3  18
TORSDOF 6
