REMARK  6 active torsions:
REMARK  status: ('A' for Active; 'I' for Inactive)
REMARK    1  A    between atoms: C4_4  and  C18_28 
REMARK    2  A    between atoms: C7_8  and  N3_14 
REMARK    3  A    between atoms: C8_9  and  C9_11 
REMARK       I    between atoms: C9_11  and  N2_13 
REMARK       I    between atoms: N3_14  and  C10_15 
REMARK    4  A    between atoms: C10_15  and  C11_17 
REMARK    5  A    between atoms: C11_17  and  N4_19 
REMARK    6  A    between atoms: C15_22  and  C16_24 
ROOT
ATOM      1  C1  <0> d           4.099   2.463  -0.074  0.00  0.00     0.049 C 
ATOM      2  C2  <0> d           3.740   3.920   0.065  0.00  0.00    -0.044 A 
ATOM      3  C3  <0> d           4.666   4.826   0.524  0.00  0.00     0.040 A 
ATOM      4  C4  <0> d           4.333   6.166   0.651  0.00  0.00     0.100 A 
ATOM      5  N1  <0> d           3.124   6.588   0.334  0.00  0.00    -0.239 NA
ATOM      6  C5  <0> d           2.203   5.759  -0.110  0.00  0.00     0.112 A 
ATOM      7  C6  <0> d           2.442   4.376  -0.275  0.00  0.00     0.034 A 
ATOM      8  C7  <0> d           1.312   3.610  -0.776  0.00  0.00     0.071 A 
ATOM      9  C8  <0> d           0.138   4.276  -1.045  0.00  0.00     0.102 A 
ATOM     10  S1  <0> d           0.515   5.965  -0.621  0.00  0.00    -0.062 SA
ENDROOT
BRANCH   8  11
ATOM     11  N3  <0> d           1.417   2.237  -0.984  0.00  0.00    -0.323 N 
ATOM     12  C10 <0> d           0.523   1.400  -0.421  0.00  0.00     0.246 C 
ATOM     13  O2  <0> d          -0.339   1.837   0.312  0.00  0.00    -0.271 OA
ATOM     14  H8  <0> d           2.133   1.884  -1.534  0.00  0.00     0.169 HD
BRANCH  12  15
ATOM     15  C11 <0> d           0.591  -0.078  -0.707  0.00  0.00     0.198 C 
ATOM     16  C12 <0> d           1.946  -0.623  -0.252  0.00  0.00     0.044 C 
BRANCH  15  17
ATOM     17  N4  <0> d          -0.480  -0.765   0.019  0.00  0.00    -0.260 N 
ATOM     18  N5  <0> d          -0.658  -0.777   1.408  0.00  0.00    -0.171 NA
ATOM     19  C15 <0> d          -1.719  -1.494   1.677  0.00  0.00     0.120 A 
ATOM     20  C14 <0> d          -2.250  -1.961   0.470  0.00  0.00     0.061 A 
ATOM     21  C13 <0> d          -1.472  -1.494  -0.534  0.00  0.00     0.030 A 
ATOM     22  C17 <0> d          -1.677  -1.745  -2.006  0.00  0.00     0.070 C 
BRANCH  19  23
ATOM     23  C16 <0> d          -2.274  -1.769   3.051  0.00  0.00     0.406 C 
ATOM     24  F1  <0> d          -3.581  -1.278   3.133  0.00  0.00    -0.207 F 
ATOM     25  F2  <0> d          -2.279  -3.149   3.285  0.00  0.00    -0.207 F 
ENDBRANCH  19  23
ENDBRANCH  15  17
ENDBRANCH  12  15
ENDBRANCH   8  11
BRANCH   9  26
ATOM     26  C9  <0> d          -1.118   3.728  -1.556  0.00  0.00     0.258 C 
ATOM     27  O1  <0> d          -1.254   2.524  -1.674  0.00  0.00    -0.267 OA
ATOM     28  N2  <0> d          -2.126   4.557  -1.896  0.00  0.00    -0.365 N 
ATOM     29  H6  <0> d          -2.017   5.516  -1.802  0.00  0.00     0.159 HD
ATOM     30  H7  <0> d          -2.959   4.193  -2.235  0.00  0.00     0.159 HD
ENDBRANCH   9  26
BRANCH   4  31
ATOM     31  C18 <0> d           5.359   7.148   1.156  0.00  0.00     0.405 C 
ATOM     32  F3  <0> d           4.714   8.189   1.833  0.00  0.00    -0.207 F 
ATOM     33  F4  <0> d           6.237   6.497   2.029  0.00  0.00    -0.207 F 
ENDBRANCH   4  31
TORSDOF 6
