REMARK  2 active torsions:
REMARK  status: ('A' for Active; 'I' for Inactive)
REMARK    1  A    between atoms: N2_6  and  N3_7 
REMARK       I    between atoms: N3_7  and  C5_8 
REMARK    2  A    between atoms: C5_8  and  C6_10 
ROOT
ATOM      1  N3  <0> d           2.272  -4.157   1.078  0.00  0.00    -0.245 N 
ATOM      2  C5  <0> d           3.177  -5.155   1.021  0.00  0.00     0.269 C 
ATOM      3  O1  <0> d           3.494  -5.625  -0.051  0.00  0.00    -0.269 OA
ATOM      4  H9  <0> d           2.018  -3.781   1.935  0.00  0.00     0.192 HD
ENDROOT
BRANCH   2   5
ATOM      5  C6  <0> d           3.794  -5.686   2.289  0.00  0.00     0.246 C 
ATOM      6  O3  <0> d           4.792  -6.661   1.968  0.00  0.00    -0.331 OA
ATOM      7  C13 <0> d           5.231  -7.446   2.990  0.00  0.00     0.103 A 
ATOM      8  C8  <0> d           4.503  -7.552   4.169  0.00  0.00     0.102 A 
ATOM      9  C12 <0> d           6.418  -8.149   2.847  0.00  0.00     0.040 A 
ATOM     10  O2  <0> d           3.338  -6.867   4.332  0.00  0.00    -0.345 OA
ATOM     11  C9  <0> d           4.964  -8.364   5.194  0.00  0.00     0.039 A 
ATOM     12  C7  <0> d           2.716  -6.363   3.145  0.00  0.00     0.218 C 
ATOM     13  C10 <0> d           6.147  -9.064   5.045  0.00  0.00     0.003 A 
ATOM     14  C11 <0> d           6.873  -8.956   3.873  0.00  0.00     0.003 A 
ENDBRANCH   2   5
BRANCH   1  15
ATOM     15  N2  <0> d           1.698  -3.664  -0.101  0.00  0.00    -0.181 NA
ATOM     16  C4  <0> d           0.917  -2.651  -0.058  0.00  0.00     0.036 C 
ATOM     17  C3  <0> d           0.368  -2.031  -1.325  0.00  0.00     0.086 C 
ATOM     18  C14 <0> d           0.512  -2.031   1.264  0.00  0.00     0.086 C 
ATOM     19  C2  <0> d           0.592  -0.516  -1.255  0.00  0.00     0.277 C 
ATOM     20  N1  <0> d           0.020   0.004  -0.007  0.00  0.00     0.084 N 
ATOM     21  C1  <0> d           0.007   1.473  -0.006  0.00  0.00     0.309 C 
ATOM     22  C15 <0> d           0.728  -0.516   1.169  0.00  0.00     0.277 C 
ENDBRANCH   1  15
TORSDOF 2
