REMARK  7 active torsions:
REMARK  status: ('A' for Active; 'I' for Inactive)
REMARK    1  A    between atoms: N1_2  and  C2_3 
REMARK    2  A    between atoms: C2_3  and  C3_4 
REMARK    3  A    between atoms: C3_4  and  C4_5 
REMARK    4  A    between atoms: C3_4  and  O4_19 
REMARK    5  A    between atoms: C4_5  and  O1_6 
REMARK    6  A    between atoms: O1_6  and  C5_7 
REMARK    7  A    between atoms: C6_8  and  N3_16 
ROOT
ATOM      1  C5  <0> d          -3.956  -4.626  -0.349  0.00  0.00     0.118 A 
ATOM      2  C6  <0> d          -4.627  -5.049   0.792  0.00  0.00     0.139 A 
ATOM      3  C7  <0> d          -5.840  -5.691   0.683  0.00  0.00     0.061 A 
ATOM      4  C8  <0> d          -6.399  -5.915  -0.579  0.00  0.00     0.048 A 
ATOM      5  C9  <0> d          -5.722  -5.487  -1.724  0.00  0.00     0.043 A 
ATOM      6  C10 <0> d          -4.510  -4.842  -1.605  0.00  0.00     0.043 A 
ATOM      7  I1  <0> d          -3.498  -4.192  -3.320  0.00  0.00    -0.042 I 
ATOM      8  C11 <0> d          -7.660  -6.582  -0.698  0.00  0.00     0.099 C 
ATOM      9  N2  <0> d          -8.661  -7.111  -0.792  0.00  0.00    -0.191 NA
ENDROOT
BRANCH   2  10
ATOM     10  N3  <0> d          -4.035  -4.811   2.128  0.00  0.00    -0.113 N 
ATOM     11  O2  <0> d          -4.617  -5.179   3.122  0.00  0.00    -0.532 OA
ATOM     12  O3  <0> d          -2.969  -4.249   2.226  0.00  0.00    -0.532 OA
ENDBRANCH   2  10
BRANCH   1  13
ATOM     13  O1  <0> d          -2.760  -3.994  -0.236  0.00  0.00    -0.345 OA
BRANCH  13  14
ATOM     14  C4  <0> d          -2.786  -2.571  -0.111  0.00  0.00     0.209 C 
BRANCH  14  15
ATOM     15  C3  <0> d          -1.355  -2.042   0.004  0.00  0.00     0.168 C 
BRANCH  15  16
ATOM     16  C2  <0> d          -1.376  -0.512   0.012  0.00  0.00     0.265 C 
BRANCH  16  17
ATOM     17  N1  <0> d           0.002  -0.004   0.002  0.00  0.00    -0.077 N 
ATOM     18  C1  <0> d          -0.018   1.465   0.010  0.00  0.00     0.267 C 
ATOM     19  H5  <0> d           0.474  -0.330  -0.828  0.00  0.00     0.276 HD
ATOM     20  H13 <0> d           0.490  -0.338   0.820  0.00  0.00     0.276 HD
ENDBRANCH  16  17
ENDBRANCH  15  16
BRANCH  15  21
ATOM     21  O4  <0> d          -0.768  -2.518   1.217  0.00  0.00    -0.392 OA
ATOM     22  H12 <0> d          -1.239  -2.243   2.016  0.00  0.00     0.210 HD
ENDBRANCH  15  21
ENDBRANCH  14  15
ENDBRANCH  13  14
ENDBRANCH   1  13
TORSDOF 7
