REMARK  7 active torsions:
REMARK  status: ('A' for Active; 'I' for Inactive)
REMARK    1  A    between atoms: C2_2  and  C3_3 
REMARK    2  A    between atoms: C3_3  and  C4_4 
REMARK    3  A    between atoms: C3_3  and  N3_21 
REMARK    4  A    between atoms: C4_4  and  C5_5 
REMARK    5  A    between atoms: C4_4  and  N1_11 
REMARK    6  A    between atoms: N1_11  and  C10_13 
REMARK    7  A    between atoms: C10_13  and  C11_14 
ROOT
ATOM      1  C4  <0> d          -1.423  -2.261   0.283  0.00  0.00     0.292 C 
ENDROOT
BRANCH   1   2
ATOM      2  C3  <0> d          -1.598  -0.753   0.473  0.00  0.00     0.221 C 
BRANCH   2   3
ATOM      3  C2  <0> d          -2.503  -0.492   1.678  0.00  0.00     0.031 C 
ATOM      4  C1  <0> d          -2.779   1.008   1.794  0.00  0.00     0.007 C 
ENDBRANCH   2   3
BRANCH   2   5
ATOM      5  N3  <0> d          -0.286  -0.133   0.703  0.00  0.00    -0.073 N 
ATOM      6  H27 <0> d           0.122  -0.511   1.544  0.00  0.00     0.274 HD
ATOM      7  H28 <0> d           0.320  -0.327  -0.081  0.00  0.00     0.274 HD
ATOM      8  H30 <0> d          -0.398   0.865   0.802  0.00  0.00     0.274 HD
ENDBRANCH   2   5
ENDBRANCH   1   2
BRANCH   1   9
ATOM      9  C5  <0> d          -0.716  -2.840   1.482  0.00  0.00     0.019 A 
ATOM     10  S1  <0> d          -1.383  -3.268   3.082  0.00  0.00    -0.103 SA
ATOM     11  C8  <0> d           0.124  -3.861   3.832  0.00  0.00     0.069 A 
ATOM     12  C7  <0> d           1.023  -3.688   2.832  0.00  0.00     0.018 A 
ATOM     13  C6  <0> d           0.592  -3.165   1.627  0.00  0.00     0.036 A 
ATOM     14 Br1  <0> d           2.838  -4.157   3.080  0.00  0.00    -0.051 Br
ENDBRANCH   1   9
BRANCH   1  15
ATOM     15  N1  <0> d          -2.741  -2.893   0.140  0.00  0.00     0.096 N 
ATOM     16  C9  <0> d          -2.622  -4.356   0.098  0.00  0.00     0.310 C 
BRANCH  15  17
ATOM     17  C10 <0> d          -3.441  -2.387  -1.049  0.00  0.00     0.277 C 
BRANCH  17  18
ATOM     18  C11 <0> d          -4.927  -2.738  -0.953  0.00  0.00     0.017 C 
ATOM     19  C15 <0> d          -5.635  -2.323  -2.246  0.00  0.00     0.034 C 
ATOM     20  C14 <0> d          -7.134  -2.604  -2.113  0.00  0.00     0.234 C 
ATOM     21  N2  <0> d          -7.681  -1.839  -0.987  0.00  0.00    -0.075 N 
ATOM     22  C13 <0> d          -7.057  -2.282   0.266  0.00  0.00     0.234 C 
ATOM     23  C16 <0> d          -9.132  -2.050  -0.911  0.00  0.00     0.269 C 
ATOM     24  H29 <0> d          -7.493  -0.857  -1.126  0.00  0.00     0.279 HD
ATOM     25  C12 <0> d          -5.556  -1.989   0.225  0.00  0.00     0.034 C 
ENDBRANCH  17  18
ENDBRANCH  15  17
ENDBRANCH   1  15
TORSDOF 7
