REMARK  7 active torsions:
REMARK  status: ('A' for Active; 'I' for Inactive)
REMARK    1  A    between atoms: C9_10  and  C11_12 
REMARK    2  A    between atoms: C11_12  and  C12_13 
REMARK    3  A    between atoms: C11_12  and  N4_30 
REMARK    4  A    between atoms: C12_13  and  N2_14 
REMARK       I    between atoms: N2_14  and  C13_15 
REMARK    5  A    between atoms: C13_15  and  C14_17 
REMARK       I    between atoms: C14_17  and  N3_19 
REMARK    6  A    between atoms: N3_19  and  C15_20 
REMARK    7  A    between atoms: C15_20  and  C16_21 
ROOT
ATOM      1  C11 <0> d           2.585   1.181   0.120  0.00  0.00     0.237 C 
ENDROOT
BRANCH   1   2
ATOM      2  C9  <0> d           1.257   1.675   0.634  0.00  0.00    -0.025 A 
ATOM      3  C8  <0> d           0.884   2.992   0.433  0.00  0.00     0.011 A 
ATOM      4  C7  <0> d          -0.330   3.443   0.905  0.00  0.00     0.025 A 
ATOM      5  C6  <0> d          -1.188   2.579   1.586  0.00  0.00     0.016 A 
ATOM      6  N1  <0> d          -2.397   3.098   2.047  0.00  0.00    -0.287 NA
ATOM      7  C5  <0> d          -0.815   1.259   1.775  0.00  0.00    -0.036 A 
ATOM      8  C1  <0> d          -2.920   4.115   1.125  0.00  0.00     0.116 C 
ATOM      9  C2  <0> d          -3.402   2.066   2.314  0.00  0.00     0.095 C 
ATOM     10  C3  <0> d          -2.794   1.021   3.258  0.00  0.00     0.019 C 
ATOM     11  C4  <0> d          -1.702   0.272   2.491  0.00  0.00     0.041 C 
ATOM     12  C10 <0> d           0.411   0.815   1.305  0.00  0.00     0.018 A 
ENDBRANCH   1   2
BRANCH   1  13
ATOM     13  C12 <0> d           2.540   1.090  -1.406  0.00  0.00     0.161 C 
BRANCH  13  14
ATOM     14  N2  <0> d           3.845   0.653  -1.908  0.00  0.00    -0.351 N 
ATOM     15  C13 <0> d           4.069   0.588  -3.235  0.00  0.00     0.309 C 
ATOM     16  O1  <0> d           3.189   0.890  -4.015  0.00  0.00    -0.262 OA
ATOM     17  H17 <0> d           4.548   0.411  -1.285  0.00  0.00     0.162 HD
BRANCH  15  18
ATOM     18  C14 <0> d           5.401   0.142  -3.747  0.00  0.00     0.309 C 
ATOM     19  O2  <0> d           6.280  -0.161  -2.968  0.00  0.00    -0.262 OA
ATOM     20  N3  <0> d           5.625   0.076  -5.075  0.00  0.00    -0.350 N 
ATOM     21  H18 <0> d           4.921   0.318  -5.698  0.00  0.00     0.162 HD
BRANCH  20  22
ATOM     22  C15 <0> d           6.930  -0.360  -5.577  0.00  0.00     0.155 C 
BRANCH  22  23
ATOM     23  C16 <0> d           6.919  -0.345  -7.107  0.00  0.00     0.139 C 
ATOM     24  O3  <0> d           6.874   1.013  -7.596  0.00  0.00    -0.384 OA
ATOM     25  C19 <0> d           7.359   0.944  -8.954  0.00  0.00     0.168 C 
ATOM     26  C18 <0> d           8.538  -0.053  -8.903  0.00  0.00     0.029 C 
ATOM     27  C17 <0> d           8.242  -0.921  -7.660  0.00  0.00     0.035 C 
ENDBRANCH  22  23
ENDBRANCH  20  22
ENDBRANCH  15  18
ENDBRANCH  13  14
ENDBRANCH   1  13
BRANCH   1  28
ATOM     28  N4  <0> d           3.669   2.099   0.527  0.00  0.00    -0.069 N 
ATOM     29  C20 <0> d           3.856   3.146  -0.499  0.00  0.00     0.270 C 
ATOM     30  C21 <0> d           3.344   2.720   1.828  0.00  0.00     0.270 C 
ATOM     31  H33 <0> d           4.541   1.565   0.621  0.00  0.00     0.279 HD
ENDBRANCH   1  28
TORSDOF 7
