REMARK  2 active torsions:
REMARK  status: ('A' for Active; 'I' for Inactive)
REMARK    1  A    between atoms: C5_5  and  C8_8 
REMARK    2  A    between atoms: N1_12  and  C13_15 
ROOT
ATOM      1  C8  <0> d           1.471   4.913   0.014  0.00  0.00     0.160 A 
ATOM      2  C9  <0> d           0.666   3.629   0.014  0.00  0.00     0.061 A 
ATOM      3  C10 <0> d          -0.678   3.731   0.027  0.00  0.00     0.048 A 
ATOM      4  C11 <0> d          -1.213   2.317   0.020  0.00  0.00     0.184 A 
ATOM      5  N1  <0> d          -0.018   1.461   0.010  0.00  0.00    -0.337 N 
ATOM      6  C12 <0> d           1.054   2.273   0.004  0.00  0.00     0.255 A 
ATOM      7  O1  <0> d           2.209   1.889  -0.009  0.00  0.00    -0.268 OA
ATOM      8  N2  <0> d          -1.295   4.950   0.039  0.00  0.00    -0.306 N 
ATOM      9  C17 <0> d          -0.634   6.115   0.039  0.00  0.00     0.323 A 
ATOM     10  O4  <0> d          -1.269   7.151   0.050  0.00  0.00    -0.247 OA
ATOM     11  N3  <0> d           0.712   6.175   0.027  0.00  0.00    -0.330 N 
ATOM     12  C18 <0> d          -2.760   4.985   0.053  0.00  0.00     0.161 C 
ATOM     13  H18 <0> d           1.171   7.030   0.028  0.00  0.00     0.165 HD
ENDROOT
BRANCH   1  14
ATOM     14  C5  <0> d           2.347   4.911  -1.212  0.00  0.00    -0.031 A 
ATOM     15  C4  <0> d           3.680   4.561  -1.109  0.00  0.00     0.010 A 
ATOM     16  C3  <0> d           4.484   4.560  -2.233  0.00  0.00     0.007 A 
ATOM     17  C2  <0> d           3.955   4.908  -3.462  0.00  0.00    -0.062 A 
ATOM     18  C1  <0> d           4.831   4.907  -4.688  0.00  0.00     0.048 C 
ATOM     19  C7  <0> d           2.621   5.258  -3.565  0.00  0.00     0.007 A 
ATOM     20  C6  <0> d           1.816   5.255  -2.442  0.00  0.00     0.010 A 
ENDBRANCH   1  14
BRANCH   5  21
ATOM     21  C13 <0> d           0.002  -0.004   0.002  0.00  0.00     0.102 C 
ATOM     22  C16 <0> d           0.750  -0.515   1.257  0.00  0.00     0.165 C 
ATOM     23  S1  <0> d           1.522  -2.074   0.660  0.00  0.00     0.146 S 
ATOM     24  C15 <0> d           0.998  -2.018  -1.105  0.00  0.00     0.142 C 
ATOM     25  O2  <0> d           2.935  -1.946   0.727  0.00  0.00    -0.228 OA
ATOM     26  O3  <0> d           0.889  -3.176   1.297  0.00  0.00    -0.228 OA
ATOM     27  C14 <0> d           0.712  -0.498  -1.269  0.00  0.00     0.041 C 
ENDBRANCH   5  21
TORSDOF 2
