REMARK  3 active torsions:
REMARK  status: ('A' for Active; 'I' for Inactive)
REMARK    1  A    between atoms: C2_2  and  S1_4 
REMARK    2  A    between atoms: S1_4  and  C4_7 
REMARK    3  A    between atoms: P1_14  and  O5_23 
ROOT
ATOM      1  C4  <0> d          -0.038   0.027   2.837  0.00  0.00     0.094 C 
ATOM      2  C5  <0> d          -0.662  -0.804   3.668  0.00  0.00     0.005 C 
ATOM      3  C6  <0> d          -1.451  -0.244   4.820  0.00  0.00     0.020 C 
ATOM      4  C7  <0> d          -2.502  -1.240   5.290  0.00  0.00     0.033 C 
ATOM      5  C8  <0> d          -3.547  -1.487   4.196  0.00  0.00     0.104 C 
ATOM      6  C9  <0> d          -4.586  -2.455   4.777  0.00  0.00     0.201 C 
ATOM      7  O3  <0> d          -5.585  -2.747   3.784  0.00  0.00    -0.296 OA
ATOM      8  P1  <0> d          -6.294  -1.492   3.030  0.00  0.00     0.444 P 
ATOM      9  O4  <0> d          -7.346  -0.904   3.889  0.00  0.00    -0.233 OA
ATOM     10  N1  <0> d          -5.083  -0.399   2.780  0.00  0.00    -0.255 N 
ATOM     11  N2  <0> d          -4.164  -0.220   3.794  0.00  0.00    -0.219 NA
ATOM     12  C10 <0> d          -3.160   0.741   3.304  0.00  0.00     0.123 C 
ATOM     13  C11 <0> d          -2.151   1.046   4.383  0.00  0.00     0.034 C 
ATOM     14  C12 <0> d          -1.119   1.980   3.794  0.00  0.00     0.024 C 
ATOM     15  C13 <0> d          -0.116   1.481   3.071  0.00  0.00     0.134 C 
ATOM     16  F1  <0> d           0.823   2.302   2.551  0.00  0.00    -0.205 F 
ATOM     17  H16 <0> d          -5.022   0.101   1.950  0.00  0.00     0.186 HD
ENDROOT
BRANCH   1  18
ATOM     18  S1  <0> d           0.879  -0.605   1.472  0.00  0.00     0.181 S 
ATOM     19  O1  <0> d           0.754  -2.017   1.573  0.00  0.00    -0.222 OA
ATOM     20  O2  <0> d           2.152   0.018   1.571  0.00  0.00    -0.222 OA
BRANCH  18  21
ATOM     21  C2  <0> d           0.002  -0.004   0.002  0.00  0.00     0.105 C 
ATOM     22  C1  <0> d          -0.019   1.526   0.010  0.00  0.00     0.026 C 
ATOM     23  C3  <0> d           0.718  -0.497  -1.257  0.00  0.00     0.026 C 
ENDBRANCH  18  21
ENDBRANCH   1  18
BRANCH   8  24
ATOM     24  O5  <0> d          -6.922  -1.966   1.625  0.00  0.00    -0.302 OA
ATOM     25  C14 <0> d          -7.783  -1.141   0.839  0.00  0.00     0.214 C 
ENDBRANCH   8  24
TORSDOF 3
