REMARK  6 active torsions:
REMARK  status: ('A' for Active; 'I' for Inactive)
REMARK    1  A    between atoms: C2_2  and  C3_3 
REMARK    2  A    between atoms: C6_6  and  C9_9 
REMARK    3  A    between atoms: C9_9  and  C10_10 
REMARK    4  A    between atoms: C10_10  and  N1_11 
REMARK       I    between atoms: N1_11  and  C11_12 
REMARK    5  A    between atoms: C11_12  and  C12_14 
REMARK       I    between atoms: N2_16  and  C20_24 
REMARK    6  A    between atoms: C20_24  and  C21_26 
ROOT
ATOM      1  C12 <0> d           4.231  -0.702   8.864  0.00  0.00     0.106 C 
ATOM      2  C13 <0> d           3.517  -1.429  10.026  0.00  0.00     0.141 C 
ATOM      3  N2  <0> d           4.336  -1.118  11.222  0.00  0.00    -0.345 N 
ATOM      4  C14 <0> d           4.726   0.301  11.043  0.00  0.00     0.136 C 
ATOM      5  C15 <0> d           5.023   0.433   9.535  0.00  0.00    -0.007 C 
ATOM      6  C16 <0> d           6.516   0.261   9.275  0.00  0.00     0.039 C 
ATOM      7  C17 <0> d           7.278   1.431   9.903  0.00  0.00     0.233 C 
ATOM      8  N3  <0> d           6.802   2.693   9.325  0.00  0.00    -0.075 N 
ATOM      9  C18 <0> d           5.387   2.896   9.659  0.00  0.00     0.233 C 
ATOM     10  C19 <0> d           4.546   1.787   9.021  0.00  0.00     0.039 C 
ATOM     11  C20 <0> d           4.654  -1.940  12.242  0.00  0.00     0.272 C 
ATOM     12  O2  <0> d           5.170  -1.490  13.247  0.00  0.00    -0.266 OA
ATOM     13  H24 <0> d           7.346   3.458   9.695  0.00  0.00     0.277 HD
ATOM     14  H34 <0> d           6.908   2.664   8.322  0.00  0.00     0.277 HD
ENDROOT
BRANCH   1  15
ATOM     15  C11 <0> d           3.221  -0.137   7.899  0.00  0.00     0.224 C 
ATOM     16  N1  <0> d           3.564   0.075   6.613  0.00  0.00    -0.360 N 
ATOM     17  H15 <0> d           4.460  -0.135   6.309  0.00  0.00     0.162 HD
ATOM     18  O1  <0> d           2.100   0.126   8.280  0.00  0.00    -0.273 OA
BRANCH  16  19
ATOM     19  C10 <0> d           2.582   0.624   5.675  0.00  0.00     0.127 C 
BRANCH  19  20
ATOM     20  C9  <0> d           3.221   0.766   4.292  0.00  0.00     0.058 C 
BRANCH  20  21
ATOM     21  C6  <0> d           2.212   1.331   3.327  0.00  0.00    -0.057 A 
ATOM     22  C5  <0> d           2.103   2.699   3.162  0.00  0.00     0.007 A 
ATOM     23  C4  <0> d           1.177   3.217   2.276  0.00  0.00     0.007 A 
ATOM     24  C3  <0> d           0.360   2.367   1.554  0.00  0.00    -0.059 A 
ATOM     25  C8  <0> d           0.465   0.999   1.723  0.00  0.00     0.007 A 
ATOM     26  C7  <0> d           1.394   0.481   2.606  0.00  0.00     0.007 A 
BRANCH  24  27
ATOM     27  C2  <0> d          -0.649   2.932   0.588  0.00  0.00     0.034 C 
ATOM     28  C1  <0> d          -1.972   3.178   1.318  0.00  0.00     0.010 C 
ENDBRANCH  24  27
ENDBRANCH  20  21
ENDBRANCH  19  20
ENDBRANCH  16  19
ENDBRANCH   1  15
BRANCH  11  29
ATOM     29  C21 <0> d           4.377  -3.377  12.139  0.00  0.00     0.121 A 
ATOM     30  N5  <0> d           4.338  -4.289  13.176  0.00  0.00    -0.340 N 
ATOM     31  C23 <0> d           4.049  -5.487  12.637  0.00  0.00     0.209 A 
ATOM     32  C24 <0> d           4.565  -4.005  14.595  0.00  0.00     0.157 C 
ATOM     33  N4  <0> d           3.920  -5.355  11.342  0.00  0.00    -0.253 NA
ATOM     34  C22 <0> d           4.113  -4.082  10.998  0.00  0.00     0.153 A 
ENDBRANCH  11  29
TORSDOF 6
