REMARK  2 active torsions:
REMARK  status: ('A' for Active; 'I' for Inactive)
REMARK    1  A    between atoms: C4_4  and  N1_7 
REMARK    2  A    between atoms: C10_13  and  C11_14 
ROOT
ATOM      1  N1  <0> d           3.646  -0.561   0.042  0.00  0.00    -0.225 NA
ATOM      2  C7  <0> d           3.856  -1.567   0.861  0.00  0.00     0.174 A 
ATOM      3  N2  <0> d           3.126  -1.934   1.971  0.00  0.00    -0.301 N 
ATOM      4  C8  <0> d           3.478  -2.984   2.693  0.00  0.00     0.264 A 
ATOM      5  O1  <0> d           2.846  -3.323   3.675  0.00  0.00    -0.267 OA
ATOM      6  C9  <0> d           4.676  -3.728   2.251  0.00  0.00     0.077 A 
ATOM      7  C10 <0> d           5.255  -4.827   2.794  0.00  0.00     0.037 C 
ATOM      8  S1  <0> d           5.151  -2.794   0.803  0.00  0.00    -0.046 SA
ATOM      9  H6  <0> d           2.346  -1.417   2.225  0.00  0.00     0.171 HD
ENDROOT
BRANCH   1  10
ATOM     10  C4  <0> d           2.588   0.282   0.250  0.00  0.00     0.059 A 
ATOM     11  C3  <0> d           2.764   1.664   0.152  0.00  0.00     0.031 A 
ATOM     12  C2  <0> d           1.694   2.508   0.363  0.00  0.00     0.002 A 
ATOM     13  C1  <0> d           0.448   1.989   0.671  0.00  0.00     0.000 A 
ATOM     14  C6  <0> d           0.268   0.620   0.769  0.00  0.00     0.002 A 
ATOM     15  C5  <0> d           1.329  -0.236   0.561  0.00  0.00     0.031 A 
ENDBRANCH   1  10
BRANCH   7  16
ATOM     16  C11 <0> d           4.591  -5.541   3.894  0.00  0.00    -0.017 A 
ATOM     17  C15 <0> d           5.335  -6.054   4.962  0.00  0.00     0.127 A 
ATOM     18  N3  <0> d           4.737  -6.688   5.949  0.00  0.00    -0.272 NA
ATOM     19  C14 <0> d           3.431  -6.874   5.969  0.00  0.00     0.116 A 
ATOM     20  C13 <0> d           2.624  -6.402   4.948  0.00  0.00     0.020 A 
ATOM     21  C12 <0> d           3.199  -5.724   3.889  0.00  0.00     0.014 A 
ENDBRANCH   7  16
TORSDOF 2
