REMARK  9 active torsions:
REMARK  status: ('A' for Active; 'I' for Inactive)
REMARK    1  A    between atoms: C2_2  and  N1_3 
REMARK    2  A    between atoms: N1_3  and  C3_4 
REMARK       I    between atoms: N1_3  and  C5_6 
REMARK    3  A    between atoms: C5_6  and  C6_8 
REMARK    4  A    between atoms: C6_8  and  S1_9 
REMARK    5  A    between atoms: S1_9  and  C7_10 
REMARK    6  A    between atoms: C11_15  and  N3_19 
REMARK       I    between atoms: N3_19  and  C14_20 
REMARK    7  A    between atoms: C14_20  and  C15_22 
REMARK    8  A    between atoms: C15_22  and  S3_23 
REMARK    9  A    between atoms: S3_23  and  C16_24 
ROOT
ATOM      1  C7  <0> d          -1.366  -0.558   5.122  0.00  0.00     0.212 A 
ATOM      2  N2  <0> d          -0.111  -1.304   5.286  0.00  0.00    -0.367 N 
ATOM      3  C8  <0> d           1.080  -0.574   5.271  0.00  0.00     0.046 A 
ATOM      4  C9  <0> d           2.371  -1.114   5.412  0.00  0.00     0.033 A 
ATOM      5  C10 <0> d           3.487  -0.311   5.385  0.00  0.00     0.032 A 
ATOM      6  C11 <0> d           3.377   1.062   5.216  0.00  0.00     0.036 A 
ATOM      7  C12 <0> d           2.111   1.621   5.074  0.00  0.00     0.050 A 
ATOM      8  C13 <0> d           0.999   0.811   5.103  0.00  0.00     0.032 A 
ATOM      9  S2  <0> d          -0.740   1.162   4.958  0.00  0.00    -0.091 SA
ATOM     10  H14 <0> d          -0.109  -2.267   5.399  0.00  0.00     0.161 HD
ENDROOT
BRANCH   6  11
ATOM     11  N3  <0> d           4.520   1.872   5.189  0.00  0.00    -0.326 N 
ATOM     12  C14 <0> d           4.469   3.128   5.674  0.00  0.00     0.231 C 
ATOM     13  O2  <0> d           3.462   3.526   6.221  0.00  0.00    -0.272 OA
ATOM     14  H18 <0> d           5.349   1.528   4.820  0.00  0.00     0.169 HD
BRANCH  12  15
ATOM     15  C15 <0> d           5.662   4.038   5.538  0.00  0.00     0.180 C 
BRANCH  15  16
ATOM     16  S3  <0> d           5.284   5.648   6.284  0.00  0.00    -0.114 SA
BRANCH  16  17
ATOM     17  C16 <0> d           6.800   6.612   6.040  0.00  0.00     0.247 A 
ATOM     18  N5  <0> d           7.930   5.952   6.706  0.00  0.00    -0.359 N 
ATOM     19  C22 <0> d           8.808   5.662   5.790  0.00  0.00     0.057 A 
ATOM     20  H27 <0> d           8.008   5.767   7.655  0.00  0.00     0.162 HD
ATOM     21  C17 <0> d           8.306   6.116   4.464  0.00  0.00     0.057 A 
ATOM     22  C21 <0> d          10.123   5.009   5.838  0.00  0.00     0.031 A 
ATOM     23  N4  <0> d           7.137   6.668   4.612  0.00  0.00    -0.359 N 
ATOM     24  C18 <0> d           9.159   5.879   3.291  0.00  0.00     0.031 A 
ATOM     25  H26 <0> d           6.589   7.048   3.907  0.00  0.00     0.162 HD
ATOM     26  C19 <0> d          10.350   5.268   3.447  0.00  0.00     0.002 A 
ATOM     27  C20 <0> d          10.825   4.840   4.699  0.00  0.00     0.002 A 
ENDBRANCH  16  17
ENDBRANCH  15  16
ENDBRANCH  12  15
ENDBRANCH   6  11
BRANCH   1  28
ATOM     28  S1  <0> d          -2.244  -1.079   3.623  0.00  0.00    -0.124 SA
BRANCH  28  29
ATOM     29  C6  <0> d          -1.040  -0.812   2.294  0.00  0.00     0.179 C 
BRANCH  29  30
ATOM     30  C5  <0> d          -1.651  -1.211   0.975  0.00  0.00     0.229 C 
ATOM     31  N1  <0> d          -0.935  -1.098  -0.161  0.00  0.00    -0.352 N 
ATOM     32  O1  <0> d          -2.787  -1.634   0.936  0.00  0.00    -0.273 OA
BRANCH  31  33
ATOM     33  C2  <0> d           0.438  -0.587  -0.114  0.00  0.00     0.121 C 
ATOM     34  C1  <0> d           0.421   0.934  -0.275  0.00  0.00     0.026 C 
ENDBRANCH  31  33
BRANCH  31  35
ATOM     35  C3  <0> d          -1.528  -1.486  -1.443  0.00  0.00     0.121 C 
ATOM     36  C4  <0> d          -1.241  -2.964  -1.712  0.00  0.00     0.026 C 
ENDBRANCH  31  35
ENDBRANCH  29  30
ENDBRANCH  28  29
ENDBRANCH   1  28
TORSDOF 9
