REMARK  3 active torsions:
REMARK  status: ('A' for Active; 'I' for Inactive)
REMARK    1  A    between atoms: C2_2  and  S1_4 
REMARK    2  A    between atoms: S1_4  and  C4_5 
REMARK    3  A    between atoms: N3_11  and  C6_12 
ROOT
ATOM      1  C4  <0> d          -4.869  -0.203   0.125  0.00  0.00     0.197 A 
ATOM      2  N1  <0> d          -5.742  -1.167   0.089  0.00  0.00    -0.144 NA
ATOM      3  N2  <0> d          -5.048  -2.378  -0.045  0.00  0.00    -0.226 N 
ATOM      4  H1  <0> d          -5.442  -3.262  -0.099  0.00  0.00     0.194 HD
ATOM      5  C5  <0> d          -3.732  -2.086  -0.093  0.00  0.00     0.349 A 
ATOM      6  O1  <0> d          -2.821  -2.886  -0.212  0.00  0.00    -0.244 OA
ATOM      7  N3  <0> d          -3.607  -0.748   0.017  0.00  0.00    -0.239 N 
ENDROOT
BRANCH   7   8
ATOM      8  C6  <0> d          -2.400  -0.032   0.016  0.00  0.00     0.049 A 
ATOM      9  C11 <0> d          -1.510  -0.171   1.071  0.00  0.00     0.069 A 
ATOM     10  C10 <0> d          -0.317   0.536   1.069  0.00  0.00     0.104 A 
ATOM     11  C9  <0> d          -0.014   1.381   0.008  0.00  0.00     0.102 A 
ATOM     12  O2  <0> d           0.545   0.392   2.113  0.00  0.00    -0.346 OA
ATOM     13  C8  <0> d          -0.906   1.516  -1.046  0.00  0.00     0.042 A 
ATOM     14  O3  <0> d           1.155   2.080  -0.014  0.00  0.00    -0.346 OA
ATOM     15  C7  <0> d          -2.096   0.815  -1.041  0.00  0.00     0.033 A 
ATOM     16  C13 <0> d           1.854   2.204   1.229  0.00  0.00     0.202 C 
ATOM     17  C12 <0> d           1.893   0.824   1.899  0.00  0.00     0.202 C 
ENDBRANCH   7   8
BRANCH   1  18
ATOM     18  S1  <0> d          -5.237   1.512   0.286  0.00  0.00    -0.086 SA
BRANCH  18  19
ATOM     19  C2  <0> d          -7.044   1.439   0.370  0.00  0.00     0.047 C 
ATOM     20  C1  <0> d          -7.599   2.839   0.641  0.00  0.00     0.021 C 
ATOM     21  C3  <0> d          -7.596   0.920  -0.959  0.00  0.00     0.021 C 
ENDBRANCH  18  19
ENDBRANCH   1  18
TORSDOF 3
