REMARK  3 active torsions:
REMARK  status: ('A' for Active; 'I' for Inactive)
REMARK    1  A    between atoms: C2_2  and  C3_3 
REMARK    2  A    between atoms: N1_6  and  C10_12 
REMARK    3  A    between atoms: C10_12  and  C11_13 
ROOT
ATOM      1  C3  <0> d           0.189  -0.658  -1.115  0.00  0.00     0.187 C 
ATOM      2  C4  <0> d           0.414  -2.171  -1.173  0.00  0.00     0.060 C 
ATOM      3  C5  <0> d           1.911  -2.454  -1.319  0.00  0.00     0.237 C 
ATOM      4  N1  <0> d           2.330  -2.170  -2.698  0.00  0.00    -0.070 N 
ATOM      5  C6  <0> d           2.443  -0.719  -2.891  0.00  0.00     0.240 C 
ATOM      6  C7  <0> d           1.358  -0.242  -3.855  0.00  0.00     0.033 C 
ATOM      7  C8  <0> d           0.023  -0.896  -3.494  0.00  0.00     0.238 C 
ATOM      8  N2  <0> d          -0.546  -0.229  -2.314  0.00  0.00    -0.070 N 
ATOM      9  C9  <0> d           1.222   1.279  -3.756  0.00  0.00     0.013 C 
ATOM     10  H16 <0> d          -1.518  -0.480  -2.221  0.00  0.00     0.277 HD
ATOM     11  H31 <0> d           1.646  -2.542  -3.340  0.00  0.00     0.279 HD
ATOM     12  H32 <0> d          -0.464   0.772  -2.420  0.00  0.00     0.277 HD
ENDROOT
BRANCH   4  13
ATOM     13  C10 <0> d           3.632  -2.800  -2.953  0.00  0.00     0.243 C 
BRANCH  13  14
ATOM     14  C11 <0> d           3.888  -2.851  -4.460  0.00  0.00    -0.027 C 
ATOM     15  C12 <0> d           4.083  -1.430  -4.993  0.00  0.00     0.016 C 
ATOM     16  C13 <0> d           5.146  -3.676  -4.737  0.00  0.00     0.016 C 
ATOM     17  C14 <0> d           2.690  -3.497  -5.159  0.00  0.00     0.016 C 
ENDBRANCH  13  14
ENDBRANCH   4  13
BRANCH   1  18
ATOM     18  C2  <0> d          -0.623  -0.310   0.134  0.00  0.00     0.028 C 
ATOM     19  C1  <0> d          -0.743   1.210   0.258  0.00  0.00     0.007 C 
ENDBRANCH   1  18
TORSDOF 3
