REMARK  6 active torsions:
REMARK  status: ('A' for Active; 'I' for Inactive)
REMARK    1  A    between atoms: C4_4  and  C7_7 
REMARK    2  A    between atoms: C7_7  and  C8_8 
REMARK    3  A    between atoms: C8_8  and  N1_9 
REMARK    4  A    between atoms: C11_13  and  C22_29 
REMARK    5  A    between atoms: C22_29  and  C23_30 
REMARK    6  A    between atoms: C23_30  and  C24_31 
REMARK       I    between atoms: C24_31  and  N4_33 
ROOT
ATOM      1  N1  <0> d           5.450  -1.678   1.382  0.00  0.00    -0.287 N 
ATOM      2  C9  <0> d           5.532  -3.014   1.369  0.00  0.00     0.233 A 
ATOM      3  O1  <0> d           4.587  -3.774   1.372  0.00  0.00    -0.272 OA
ATOM      4  C10 <0> d           6.985  -3.428   1.349  0.00  0.00     0.128 A 
ATOM      5  C11 <0> d           7.339  -4.116   2.684  0.00  0.00     0.237 C 
ATOM      6  N2  <0> d           7.718  -3.005   3.597  0.00  0.00     0.113 N 
ATOM      7  C12 <0> d           8.467  -2.071   2.737  0.00  0.00     0.279 A 
ATOM      8  C13 <0> d           7.745  -2.072   1.367  0.00  0.00     0.147 A 
ATOM      9  C14 <0> d           6.630  -1.049   1.373  0.00  0.00     0.234 A 
ATOM     10  O2  <0> d           6.783   0.153   1.372  0.00  0.00    -0.272 OA
ATOM     11  C15 <0> d           9.905  -2.482   2.596  0.00  0.00     0.019 A 
ATOM     12  C16 <0> d          10.524  -3.618   2.123  0.00  0.00     0.036 A 
ATOM     13  C17 <0> d          11.906  -3.704   2.122  0.00  0.00     0.034 A 
ATOM     14  C18 <0> d          12.662  -2.647   2.596  0.00  0.00     0.026 A 
ATOM     15  C19 <0> d          12.045  -1.508   3.071  0.00  0.00     0.032 A 
ATOM     16  C20 <0> d          10.656  -1.413   3.076  0.00  0.00     0.044 A 
ATOM     17  N3  <0> d           9.813  -0.382   3.499  0.00  0.00    -0.324 N 
ATOM     18  C21 <0> d           8.512  -0.690   3.334  0.00  0.00     0.267 A 
ATOM     19  O3  <0> d           7.561   0.009   3.612  0.00  0.00    -0.270 OA
ATOM     20 Cl1  <0> d          12.688  -5.135   1.526  0.00  0.00    -0.084 Cl
ATOM     21  H13 <0> d           6.899  -2.562   3.986  0.00  0.00     0.318 HD
ATOM     22  H17 <0> d          10.127   0.457   3.868  0.00  0.00     0.169 HD
ENDROOT
BRANCH   5  23
ATOM     23  C22 <0> d           6.125  -4.868   3.233  0.00  0.00     0.045 C 
BRANCH  23  24
ATOM     24  C23 <0> d           6.529  -5.643   4.488  0.00  0.00     0.105 C 
BRANCH  24  25
ATOM     25  C24 <0> d           5.334  -6.384   5.028  0.00  0.00     0.215 C 
ATOM     26  O4  <0> d           4.263  -6.301   4.465  0.00  0.00    -0.274 OA
ATOM     27  N4  <0> d           5.454  -7.140   6.138  0.00  0.00    -0.370 N 
ATOM     28  H22 <0> d           6.310  -7.207   6.588  0.00  0.00     0.159 HD
ATOM     29  H23 <0> d           4.684  -7.617   6.486  0.00  0.00     0.159 HD
ENDBRANCH  24  25
ENDBRANCH  23  24
ENDBRANCH   5  23
BRANCH   1  30
ATOM     30  C8  <0> d           4.171  -0.963   1.399  0.00  0.00     0.139 C 
BRANCH  30  31
ATOM     31  C7  <0> d           3.711  -0.707  -0.038  0.00  0.00     0.059 C 
BRANCH  31  32
ATOM     32  C4  <0> d           2.396   0.029  -0.020  0.00  0.00    -0.057 A 
ATOM     33  C3  <0> d           2.377   1.411  -0.013  0.00  0.00     0.007 A 
ATOM     34  C2  <0> d           1.171   2.086   0.002  0.00  0.00     0.001 A 
ATOM     35  C1  <0> d          -0.017   1.378   0.010  0.00  0.00     0.000 A 
ATOM     36  C6  <0> d           0.002  -0.004   0.002  0.00  0.00     0.001 A 
ATOM     37  C5  <0> d           1.208  -0.679  -0.012  0.00  0.00     0.007 A 
ENDBRANCH  31  32
ENDBRANCH  30  31
ENDBRANCH   1  30
TORSDOF 6
