REMARK  5 active torsions:
REMARK  status: ('A' for Active; 'I' for Inactive)
REMARK    1  A    between atoms: C7_8  and  C9_12 
REMARK    2  A    between atoms: C9_12  and  C10_13 
REMARK    3  A    between atoms: C9_12  and  O3_31 
REMARK    4  A    between atoms: C10_13  and  N2_14 
REMARK    5  A    between atoms: C17_21  and  O2_30 
ROOT
ATOM      1  N2  <0> d           3.305  -4.670   1.381  0.00  0.00    -0.068 N 
ATOM      2  C11 <0> d           4.383  -4.421   0.415  0.00  0.00     0.238 C 
ATOM      3  C12 <0> d           5.280  -5.657   0.319  0.00  0.00     0.066 C 
ATOM      4  C13 <0> d           5.864  -5.966   1.699  0.00  0.00     0.073 C 
ATOM      5  C14 <0> d           4.725  -6.171   2.699  0.00  0.00     0.066 C 
ATOM      6  C15 <0> d           3.843  -4.920   2.725  0.00  0.00     0.238 C 
ATOM      7  C16 <0> d           6.712  -7.240   1.621  0.00  0.00     0.075 C 
ATOM      8  C17 <0> d           7.198  -7.585   3.031  0.00  0.00     0.157 C 
ATOM      9  C18 <0> d           7.774  -6.354   3.684  0.00  0.00     0.005 A 
ATOM     10  C19 <0> d           8.599  -6.508   4.786  0.00  0.00     0.036 A 
ATOM     11  C20 <0> d           9.138  -5.402   5.414  0.00  0.00     0.034 A 
ATOM     12  C21 <0> d           8.853  -4.132   4.943  0.00  0.00     0.026 A 
ATOM     13  C22 <0> d           8.034  -3.973   3.844  0.00  0.00     0.039 A 
ATOM     14  C23 <0> d           7.492  -5.086   3.207  0.00  0.00     0.078 A 
ATOM     15  O1  <0> d           6.695  -4.888   2.125  0.00  0.00    -0.339 OA
ATOM     16 Cl1  <0> d          10.171  -5.604   6.794  0.00  0.00    -0.084 Cl
ATOM     17  H25 <0> d           2.772  -5.577   1.061  0.00  0.00     0.280 HD
ENDROOT
BRANCH   1  18
ATOM     18  C10 <0> d           2.344  -3.560   1.397  0.00  0.00     0.271 C 
BRANCH  18  19
ATOM     19  C9  <0> d           1.879  -3.267  -0.031  0.00  0.00     0.179 C 
BRANCH  19  20
ATOM     20  C7  <0> d           0.871  -2.148  -0.012  0.00  0.00    -0.000 A 
ATOM     21  C4  <0> d           1.162  -0.712  -0.020  0.00  0.00     0.004 A 
ATOM     22  C3  <0> d          -0.085  -0.062   0.004  0.00  0.00     0.043 A 
ATOM     23  C5  <0> d           2.339   0.038  -0.045  0.00  0.00     0.056 A 
ATOM     24  C2  <0> d          -0.132   1.328   0.003  0.00  0.00     0.033 A 
ATOM     25  N1  <0> d          -1.054  -1.042   0.026  0.00  0.00    -0.365 N 
ATOM     26  C1  <0> d           1.037   2.055  -0.022  0.00  0.00     0.044 A 
ATOM     27  C6  <0> d           2.270   1.415  -0.046  0.00  0.00     0.117 A 
ATOM     28  F1  <0> d           3.407   2.144  -0.071  0.00  0.00    -0.206 F 
ATOM     29  C8  <0> d          -0.465  -2.277   0.016  0.00  0.00     0.099 A 
ATOM     30  H1  <0> d          -2.118  -0.764   0.047  0.00  0.00     0.165 HD
ENDBRANCH  19  20
BRANCH  19  31
ATOM     31  O3  <0> d           1.280  -4.440  -0.586  0.00  0.00    -0.389 OA
ATOM     32  H24 <0> d           1.867  -5.365  -0.682  0.00  0.00     0.210 HD
ENDBRANCH  19  31
ENDBRANCH  18  19
ENDBRANCH   1  18
BRANCH   8  33
ATOM     33  O2  <0> d           8.204  -8.597   2.954  0.00  0.00    -0.391 OA
ATOM     34  H23 <0> d           8.675  -8.976   3.873  0.00  0.00     0.210 HD
ENDBRANCH   8  33
TORSDOF 5
