REMARK  3 active torsions:
REMARK  status: ('A' for Active; 'I' for Inactive)
REMARK    1  A    between atoms: C6_6  and  C7_7 
REMARK    2  A    between atoms: C8_12  and  C10_16 
REMARK    3  A    between atoms: C10_16  and  N2_17 
ROOT
ATOM      1  C1  <0> d          -0.017   1.379   0.010  0.00  0.00     0.043 A 
ATOM      2  C2  <0> d           1.169   2.091   0.002  0.00  0.00     0.037 A 
ATOM      3  C3  <0> d           2.381   1.424  -0.020  0.00  0.00     0.056 A 
ATOM      4  C4  <0> d           2.406   0.039  -0.038  0.00  0.00     0.071 A 
ATOM      5  C5  <0> d           1.211  -0.678  -0.015  0.00  0.00     0.112 A 
ATOM      6  C6  <0> d           0.002  -0.004   0.002  0.00  0.00     0.085 A 
ATOM      7  O1  <0> d           1.242  -2.038   0.010  0.00  0.00    -0.332 OA
ATOM      8  C8  <0> d           2.330  -2.675  -0.663  0.00  0.00     0.246 C 
ATOM      9  C9  <0> d           3.621  -1.982  -0.305  0.00  0.00     0.253 C 
ATOM     10  O2  <0> d           4.653  -2.616  -0.232  0.00  0.00    -0.270 OA
ATOM     11  N1  <0> d           3.624  -0.654  -0.067  0.00  0.00    -0.322 N 
ATOM     12 Cl1  <0> d           1.137   3.827   0.019  0.00  0.00    -0.084 Cl
ATOM     13  H4  <0> d           4.459  -0.184   0.083  0.00  0.00     0.169 HD
ENDROOT
BRANCH   8  14
ATOM     14  C10 <0> d           2.112  -2.595  -2.175  0.00  0.00     0.271 C 
BRANCH  14  15
ATOM     15  N2  <0> d           0.856  -3.272  -2.525  0.00  0.00    -0.076 N 
ATOM     16  H7  <0> d           0.712  -3.219  -3.522  0.00  0.00     0.274 HD
ATOM     17  H8  <0> d           0.906  -4.239  -2.243  0.00  0.00     0.274 HD
ATOM     18  H9  <0> d           0.088  -2.822  -2.050  0.00  0.00     0.274 HD
ENDBRANCH  14  15
ENDBRANCH   8  14
BRANCH   6  19
ATOM     19  C7  <0> d          -1.292  -0.776   0.013  0.00  0.00     0.420 C 
ATOM     20  F1  <0> d          -2.368   0.118   0.030  0.00  0.00    -0.166 F 
ATOM     21  F2  <0> d          -1.368  -1.575  -1.133  0.00  0.00    -0.166 F 
ATOM     22  F3  <0> d          -1.341  -1.587   1.152  0.00  0.00    -0.166 F 
ENDBRANCH   6  19
TORSDOF 3
