REMARK  4 active torsions:
REMARK  status: ('A' for Active; 'I' for Inactive)
REMARK    1  A    between atoms: C2_2  and  O1_3 
REMARK    2  A    between atoms: O1_3  and  C3_4 
REMARK    3  A    between atoms: C6_7  and  N1_10 
REMARK    4  A    between atoms: C11_13  and  C14_16 
ROOT
ATOM      1  N1  <0> d          -1.983  -6.028  -0.090  0.00  0.00    -0.319 N 
ATOM      2  C9  <0> d          -1.862  -6.838  -1.185  0.00  0.00     0.014 A 
ATOM      3  C10 <0> d          -2.212  -8.091  -0.849  0.00  0.00     0.038 A 
ATOM      4  C11 <0> d          -2.581  -8.052   0.574  0.00  0.00    -0.011 A 
ATOM      5  C12 <0> d          -2.406  -6.737   0.975  0.00  0.00     0.023 A 
ATOM      6  C13 <0> d          -2.652  -6.195   2.359  0.00  0.00     0.069 C 
ATOM      7  C22 <0> d          -1.409  -6.395  -2.552  0.00  0.00     0.068 C 
ENDROOT
BRANCH   4   8
ATOM      8  C14 <0> d          -3.019  -9.139   1.373  0.00  0.00     0.034 C 
ATOM      9  C15 <0> d          -2.509 -10.403   1.158  0.00  0.00     0.081 C 
ATOM     10  C20 <0> d          -1.380 -10.642   0.229  0.00  0.00     0.283 C 
ATOM     11  C16 <0> d          -3.068 -11.602   1.842  0.00  0.00     0.144 C 
ATOM     12  N4  <0> d          -1.241 -11.877  -0.296  0.00  0.00    -0.184 NA
ATOM     13  O2  <0> d          -0.595  -9.751  -0.050  0.00  0.00    -0.265 OA
ATOM     14  C19 <0> d          -2.041 -12.836   0.092  0.00  0.00     0.178 C 
ATOM     15  N3  <0> d          -3.034 -12.766   1.048  0.00  0.00    -0.287 N 
ATOM     16  S1  <0> d          -2.118 -14.516  -0.489  0.00  0.00    -0.082 SA
ATOM     17  C17 <0> d          -3.910 -13.707   1.169  0.00  0.00     0.089 C 
ATOM     18  C18 <0> d          -3.765 -14.908   0.246  0.00  0.00     0.090 C 
ATOM     19  C21 <0> d          -3.729 -16.219   1.034  0.00  0.00     0.027 C 
ATOM     20  N2  <0> d          -3.545 -11.577   3.059  0.00  0.00    -0.283 NA
ATOM     21  H15 <0> d          -3.546 -10.748   3.563  0.00  0.00     0.188 HD
ENDBRANCH   4   8
BRANCH   1  22
ATOM     22  C6  <0> d          -1.701  -4.654  -0.075  0.00  0.00     0.039 A 
ATOM     23  C5  <0> d          -0.403  -4.210  -0.293  0.00  0.00     0.033 A 
ATOM     24  C4  <0> d          -0.126  -2.857  -0.279  0.00  0.00     0.039 A 
ATOM     25  C3  <0> d          -1.143  -1.942  -0.048  0.00  0.00     0.068 A 
ATOM     26  C8  <0> d          -2.438  -2.386   0.175  0.00  0.00     0.039 A 
ATOM     27  C7  <0> d          -2.718  -3.738   0.156  0.00  0.00     0.033 A 
BRANCH  25  28
ATOM     28  O1  <0> d          -0.869  -0.611  -0.035  0.00  0.00    -0.352 OA
BRANCH  28  29
ATOM     29  C2  <0> d           0.486  -0.225  -0.272  0.00  0.00     0.171 C 
ATOM     30  C1  <0> d           0.598   1.300  -0.219  0.00  0.00     0.034 C 
ENDBRANCH  28  29
ENDBRANCH  25  28
ENDBRANCH   1  22
TORSDOF 4
