REMARK  5 active torsions:
REMARK  status: ('A' for Active; 'I' for Inactive)
REMARK    1  A    between atoms: C2_2  and  C8_12 
REMARK    2  A    between atoms: C3_4  and  N2_6 
REMARK    3  A    between atoms: C8_12  and  C9_13 
REMARK       I    between atoms: C9_13  and  N3_15 
REMARK    4  A    between atoms: N3_15  and  C10_16 
REMARK    5  A    between atoms: C10_16  and  C11_17 
ROOT
ATOM      1  C1  <0> d          -5.611   2.823   6.527  0.00  0.00     0.081 A 
ATOM      2  C2  <0> d          -4.287   3.063   6.360  0.00  0.00     0.052 A 
ATOM      3  N1  <0> d          -3.756   4.108   6.964  0.00  0.00    -0.228 NA
ATOM      4  C3  <0> d          -4.487   4.904   7.719  0.00  0.00     0.175 A 
ATOM      5  S1  <0> d          -6.058   4.173   7.608  0.00  0.00    -0.062 SA
ENDROOT
BRANCH   2   6
ATOM      6  C8  <0> d          -3.442   2.159   5.498  0.00  0.00     0.162 C 
BRANCH   6   7
ATOM      7  C9  <0> d          -3.554   2.590   4.059  0.00  0.00     0.223 C 
ATOM      8  O2  <0> d          -4.250   3.537   3.761  0.00  0.00    -0.273 OA
ATOM      9  N3  <0> d          -2.880   1.922   3.102  0.00  0.00    -0.358 N 
ATOM     10  H11 <0> d          -2.248   1.063   3.371  0.00  0.00     0.162 HD
BRANCH   9  11
ATOM     11  C10 <0> d          -2.988   2.341   1.702  0.00  0.00     0.154 C 
BRANCH  11  12
ATOM     12  C11 <0> d          -2.131   1.423   0.827  0.00  0.00     0.139 C 
ATOM     13  O3  <0> d          -0.731   1.573   1.163  0.00  0.00    -0.384 OA
ATOM     14  C14 <0> d          -0.013   1.086   0.008  0.00  0.00     0.168 C 
ATOM     15  C13 <0> d          -0.804   1.620  -1.206  0.00  0.00     0.029 C 
ATOM     16  C12 <0> d          -2.230   1.847  -0.655  0.00  0.00     0.035 C 
ENDBRANCH  11  12
ENDBRANCH   9  11
ENDBRANCH   6   7
ENDBRANCH   2   6
BRANCH   4  17
ATOM     17  N2  <0> d          -4.099   6.039   8.423  0.00  0.00    -0.296 N 
ATOM     18  C7  <0> d          -2.847   6.527   8.444  0.00  0.00     0.225 C 
ATOM     19  C6  <0> d          -2.785   7.761   9.316  0.00  0.00     0.105 C 
ATOM     20  O1  <0> d          -1.905   6.048   7.850  0.00  0.00    -0.273 OA
ATOM     21  C5  <0> d          -4.087   7.704  10.148  0.00  0.00     0.029 C 
ATOM     22  C4  <0> d          -5.006   6.860   9.234  0.00  0.00     0.135 C 
ENDBRANCH   4  17
TORSDOF 5
