REMARK  6 active torsions:
REMARK  status: ('A' for Active; 'I' for Inactive)
REMARK    1  A    between atoms: C8_8  and  C11_11 
REMARK    2  A    between atoms: C13_13  and  C14_16 
REMARK       I    between atoms: C14_16  and  N3_18 
REMARK    3  A    between atoms: N3_18  and  N4_19 
REMARK    4  A    between atoms: C15_20  and  C16_21 
REMARK    5  A    between atoms: C19_24  and  O3_28 
REMARK    6  A    between atoms: C20_25  and  O2_27 
ROOT
ATOM      1  C11 <0> d           0.206  -2.960  -0.017  0.00  0.00     0.088 A 
ATOM      2  C12 <0> d          -1.071  -2.541   0.087  0.00  0.00     0.046 A 
ATOM      3  C13 <0> d          -1.880  -3.825   0.042  0.00  0.00     0.249 A 
ATOM      4  N1  <0> d          -0.849  -4.867  -0.092  0.00  0.00    -0.173 NA
ATOM      5  N2  <0> d           0.253  -4.314  -0.123  0.00  0.00    -0.154 NA
ENDROOT
BRANCH   3   6
ATOM      6  C14 <0> d          -2.805  -3.830  -1.147  0.00  0.00     0.268 C 
ATOM      7  O1  <0> d          -2.501  -4.441  -2.150  0.00  0.00    -0.269 OA
ATOM      8  N3  <0> d          -3.971  -3.155  -1.098  0.00  0.00    -0.245 N 
ATOM      9  H8  <0> d          -4.214  -2.666  -0.296  0.00  0.00     0.192 HD
BRANCH   8  10
ATOM     10  N4  <0> d          -4.831  -3.159  -2.204  0.00  0.00    -0.184 NA
ATOM     11  C15 <0> d          -5.953  -2.509  -2.156  0.00  0.00     0.150 C 
BRANCH  11  12
ATOM     12  C16 <0> d          -6.858  -2.514  -3.320  0.00  0.00    -0.014 A 
ATOM     13  C21 <0> d          -8.066  -1.814  -3.270  0.00  0.00     0.052 A 
ATOM     14  C20 <0> d          -8.908  -1.817  -4.366  0.00  0.00     0.099 A 
ATOM     15  C19 <0> d          -8.556  -2.526  -5.513  0.00  0.00     0.098 A 
ATOM     16  C18 <0> d          -7.359  -3.225  -5.561  0.00  0.00     0.040 A 
ATOM     17  C17 <0> d          -6.511  -3.222  -4.473  0.00  0.00     0.016 A 
BRANCH  14  18
ATOM     18  O2  <0> d         -10.082  -1.132  -4.324  0.00  0.00    -0.358 OA
ATOM     19  H13 <0> d         -10.828  -1.651  -3.993  0.00  0.00     0.217 HD
ENDBRANCH  14  18
BRANCH  15  20
ATOM     20  O3  <0> d          -9.388  -2.531  -6.588  0.00  0.00    -0.358 OA
ATOM     21  H14 <0> d         -10.035  -3.250  -6.581  0.00  0.00     0.217 HD
ENDBRANCH  15  20
ENDBRANCH  11  12
ENDBRANCH   8  10
ENDBRANCH   3   6
BRANCH   1  22
ATOM     22  C8  <0> d           1.390  -2.070  -0.022  0.00  0.00     0.005 A 
ATOM     23  C7  <0> d           1.242  -0.691  -0.042  0.00  0.00     0.015 A 
ATOM     24  C6  <0> d           2.337   0.170  -0.046  0.00  0.00     0.009 A 
ATOM     25  C5  <0> d           3.607  -0.325  -0.032  0.00  0.00    -0.046 A 
ATOM     26  C4  <0> d           3.777  -1.707  -0.013  0.00  0.00    -0.012 A 
ATOM     27  C22 <0> d           4.982   0.299  -0.031  0.00  0.00     0.044 A 
ATOM     28  C3  <0> d           5.104  -2.126   0.001  0.00  0.00    -0.046 A 
ATOM     29  C9  <0> d           2.699  -2.608  -0.008  0.00  0.00    -0.012 A 
ATOM     30  C2  <0> d           5.352  -3.464   0.019  0.00  0.00     0.008 A 
ATOM     31  C23 <0> d           5.969  -0.889  -0.009  0.00  0.00     0.044 A 
ATOM     32  C1  <0> d           4.295  -4.377   0.024  0.00  0.00     0.001 A 
ATOM     33  C10 <0> d           2.988  -3.979   0.011  0.00  0.00     0.013 A 
ENDBRANCH   1  22
TORSDOF 6
