REMARK  11 active torsions:
REMARK  status: ('A' for Active; 'I' for Inactive)
REMARK    1  A    between atoms: C3_3  and  C7_8 
REMARK    2  A    between atoms: C4_4  and  O1_7 
REMARK    3  A    between atoms: N1_9  and  C8_10 
REMARK    4  A    between atoms: C8_10  and  C9_11 
REMARK    5  A    between atoms: C9_11  and  S1_12 
REMARK    6  A    between atoms: S1_12  and  S2_13 
REMARK    7  A    between atoms: S2_13  and  C10_14 
REMARK    8  A    between atoms: C10_14  and  C11_15 
REMARK    9  A    between atoms: C11_15  and  N2_16 
REMARK   10  A    between atoms: C12_17  and  C13_18 
REMARK   11  A    between atoms: C14_19  and  O2_24 
ROOT
ATOM      1  S1  <0> d           8.281   3.245   1.574  0.00  0.00    -0.096 SA
ENDROOT
BRANCH   1   2
ATOM      2  C9  <0> d           6.625   2.545   1.335  0.00  0.00     0.105 C 
BRANCH   2   3
ATOM      3  C8  <0> d           6.087   2.963  -0.035  0.00  0.00     0.130 C 
BRANCH   3   4
ATOM      4  N1  <0> d           4.749   2.397  -0.227  0.00  0.00    -0.397 N 
ATOM      5  C7  <0> d           3.724   3.181  -0.326  0.00  0.00     0.097 C 
ATOM      6  H21 <0> d           4.632   1.436  -0.281  0.00  0.00     0.158 HD
BRANCH   5   7
ATOM      7  C3  <0> d           2.370   2.611  -0.445  0.00  0.00     0.012 A 
ATOM      8  C2  <0> d           1.274   3.446  -0.673  0.00  0.00     0.015 A 
ATOM      9  C1  <0> d           0.010   2.906  -0.784  0.00  0.00     0.001 A 
ATOM     10  C6  <0> d          -0.178   1.539  -0.670  0.00  0.00     0.003 A 
ATOM     11  C5  <0> d           0.897   0.702  -0.445  0.00  0.00     0.037 A 
ATOM     12  C4  <0> d           2.175   1.227  -0.331  0.00  0.00     0.077 A 
BRANCH  12  13
ATOM     13  O1  <0> d           3.232   0.406  -0.110  0.00  0.00    -0.360 OA
ATOM     14  H5  <0> d           3.425   0.255   0.826  0.00  0.00     0.217 HD
ENDBRANCH  12  13
ENDBRANCH   5   7
ENDBRANCH   3   4
ENDBRANCH   2   3
ENDBRANCH   1   2
BRANCH   1  15
ATOM     15  S2  <0> d           7.944   5.256   1.787  0.00  0.00    -0.096 SA
BRANCH  15  16
ATOM     16  C10 <0> d           7.561   5.453   3.549  0.00  0.00     0.105 C 
BRANCH  16  17
ATOM     17  C11 <0> d           8.826   5.215   4.376  0.00  0.00     0.130 C 
BRANCH  17  18
ATOM     18  N2  <0> d           8.516   5.374   5.799  0.00  0.00    -0.397 N 
ATOM     19  C12 <0> d           8.605   4.359   6.597  0.00  0.00     0.097 C 
ATOM     20  H22 <0> d           8.245   6.239   6.143  0.00  0.00     0.158 HD
BRANCH  19  21
ATOM     21  C13 <0> d           8.234   4.503   8.016  0.00  0.00     0.012 A 
ATOM     22  C18 <0> d           8.420   3.440   8.903  0.00  0.00     0.015 A 
ATOM     23  C17 <0> d           8.077   3.584  10.230  0.00  0.00     0.001 A 
ATOM     24  C16 <0> d           7.535   4.774  10.687  0.00  0.00     0.003 A 
ATOM     25  C15 <0> d           7.340   5.831   9.819  0.00  0.00     0.037 A 
ATOM     26  C14 <0> d           7.686   5.707   8.483  0.00  0.00     0.077 A 
BRANCH  26  27
ATOM     27  O2  <0> d           7.495   6.745   7.630  0.00  0.00    -0.360 OA
ATOM     28  H20 <0> d           6.628   6.747   7.200  0.00  0.00     0.217 HD
ENDBRANCH  26  27
ENDBRANCH  19  21
ENDBRANCH  17  18
ENDBRANCH  16  17
ENDBRANCH  15  16
ENDBRANCH   1  15
TORSDOF 11
