REMARK  3 active torsions:
REMARK  status: ('A' for Active; 'I' for Inactive)
REMARK    1  A    between atoms: C3_3  and  C6_7 
REMARK       I    between atoms: C6_7  and  N1_9 
REMARK    2  A    between atoms: N1_9  and  N2_10 
REMARK       I    between atoms: N2_10  and  C7_11 
REMARK    3  A    between atoms: C7_11  and  C8_13 
REMARK       I    between atoms: N3_21  and  C16_22 
ROOT
ATOM      1  N2  <0> d          -3.676   1.670   0.029  0.00  0.00    -0.263 N 
ATOM      2  C7  <0> d          -2.503   1.007   0.020  0.00  0.00     0.270 C 
ATOM      3  O3  <0> d          -2.491  -0.209   0.014  0.00  0.00    -0.266 OA
ATOM      4  H7  <0> d          -3.687   2.770   0.035  0.00  0.00     0.190 HD
ENDROOT
BRANCH   2   5
ATOM      5  C8  <0> d          -1.232   1.757   0.017  0.00  0.00     0.034 A 
ATOM      6  C13 <0> d          -0.013   1.076   0.008  0.00  0.00     0.026 A 
ATOM      7  C12 <0> d           1.171   1.780   0.000  0.00  0.00    -0.029 A 
ATOM      8  C11 <0> d           1.168   3.169   0.007  0.00  0.00     0.043 A 
ATOM      9  C14 <0> d           2.606   1.304  -0.015  0.00  0.00     0.061 A 
ATOM     10  C10 <0> d          -0.054   3.850   0.023  0.00  0.00     0.031 A 
ATOM     11  N3  <0> d           2.463   3.685  -0.002  0.00  0.00    -0.318 N 
ATOM     12  C9  <0> d          -1.239   3.155   0.031  0.00  0.00     0.019 A 
ATOM     13  C15 <0> d           3.441   2.595  -0.017  0.00  0.00     0.137 A 
ATOM     14  C16 <0> d           2.770   4.997   0.002  0.00  0.00     0.220 C 
ATOM     15  O4  <0> d           3.931   5.348  -0.007  0.00  0.00    -0.273 OA
ATOM     16  C17 <0> d           1.671   6.029   0.018  0.00  0.00     0.117 C 
ENDBRANCH   2   5
BRANCH   1  17
ATOM     17  N1  <0> d          -4.883   0.958   0.031  0.00  0.00    -0.263 N 
ATOM     18  C6  <0> d          -6.057   1.620   0.040  0.00  0.00     0.272 C 
ATOM     19  O2  <0> d          -6.068   2.836   0.047  0.00  0.00    -0.266 OA
ATOM     20  H6  <0> d          -4.872  -0.142   0.026  0.00  0.00     0.190 HD
BRANCH  18  21
ATOM     21  C3  <0> d          -7.326   0.871   0.043  0.00  0.00     0.064 A 
ATOM     22  C2  <0> d          -8.588   1.387   0.052  0.00  0.00     0.064 A 
ATOM     23  C1  <0> d          -8.941   2.853   0.060  0.00  0.00     0.077 C 
ATOM     24  O1  <0> d          -9.459   0.374   0.051  0.00  0.00    -0.326 OA
ATOM     25  C5  <0> d          -8.820  -0.807   0.042  0.00  0.00     0.143 A 
ATOM     26  C4  <0> d          -7.496  -0.589   0.030  0.00  0.00     0.044 A 
ENDBRANCH  18  21
ENDBRANCH   1  17
TORSDOF 3
