REMARK  2 active torsions:
REMARK  status: ('A' for Active; 'I' for Inactive)
REMARK    1  A    between atoms: N1_7  and  S1_8 
REMARK    2  A    between atoms: S1_8  and  C7_11 
ROOT
ATOM      1  C7  <0> d           0.122   0.795   3.656  0.00  0.00     0.080 A 
ATOM      2  C8  <0> d          -0.882   1.737   3.525  0.00  0.00     0.027 A 
ATOM      3  C9  <0> d          -1.800   1.924   4.538  0.00  0.00     0.031 A 
ATOM      4  C10 <0> d          -1.721   1.162   5.702  0.00  0.00     0.042 A 
ATOM      5  C11 <0> d          -0.708   0.219   5.821  0.00  0.00    -0.013 A 
ATOM      6  C12 <0> d           0.204   0.031   4.807  0.00  0.00     0.036 A 
ATOM      7  C13 <0> d          -0.888  -0.432   7.174  0.00  0.00     0.063 A 
ATOM      8  C14 <0> d          -2.100   0.264   7.757  0.00  0.00     0.234 A 
ATOM      9  O3  <0> d          -2.602   0.049   8.841  0.00  0.00    -0.272 OA
ATOM     10  N2  <0> d          -2.516   1.163   6.849  0.00  0.00    -0.326 N 
ATOM     11  C15 <0> d           0.341  -0.193   8.052  0.00  0.00     0.030 C 
ATOM     12  C16 <0> d          -1.154  -1.930   7.017  0.00  0.00     0.030 C 
ATOM     13  H16 <0> d          -3.281   1.746   6.976  0.00  0.00     0.169 HD
ENDROOT
BRANCH   1  14
ATOM     14  S1  <0> d           1.290   0.564   2.357  0.00  0.00     0.261 S 
ATOM     15  O1  <0> d           2.381  -0.155   2.916  0.00  0.00    -0.200 OA
ATOM     16  O2  <0> d           1.452   1.827   1.727  0.00  0.00    -0.200 OA
BRANCH  14  17
ATOM     17  N1  <0> d           0.588  -0.436   1.239  0.00  0.00    -0.302 N 
ATOM     18  C2  <0> d           0.577  -1.891   1.439  0.00  0.00     0.092 C 
ATOM     19  C1  <0> d           1.418  -2.247   2.667  0.00  0.00     0.033 C 
ATOM     20  C3  <0> d           1.170  -2.566   0.198  0.00  0.00     0.026 C 
ATOM     21  C4  <0> d           0.410  -2.097  -1.045  0.00  0.00     0.004 C 
ATOM     22  C5  <0> d           0.566  -0.582  -1.198  0.00  0.00     0.021 C 
ATOM     23  C6  <0> d          -0.034   0.115   0.027  0.00  0.00     0.136 C 
ENDBRANCH  14  17
ENDBRANCH   1  14
TORSDOF 2
