REMARK  4 active torsions:
REMARK  status: ('A' for Active; 'I' for Inactive)
REMARK    1  A    between atoms: C6_6  and  O1_7 
REMARK    2  A    between atoms: C8_10  and  N1_11 
REMARK    3  A    between atoms: N1_11  and  C9_12 
REMARK    4  A    between atoms: C9_12  and  C10_13 
ROOT
ATOM      1  C1  <0> d          -0.557   3.708   5.219  0.00  0.00     0.037 A 
ATOM      2  C2  <0> d          -0.032   3.179   4.054  0.00  0.00     0.015 A 
ATOM      3  C3  <0> d          -0.414   1.925   3.632  0.00  0.00     0.008 A 
ATOM      4  C4  <0> d          -1.331   1.176   4.360  0.00  0.00     0.080 A 
ATOM      5  C5  <0> d          -1.854   1.709   5.535  0.00  0.00     0.073 A 
ATOM      6  C6  <0> d          -1.468   2.969   5.960  0.00  0.00     0.068 A 
ATOM      7  O2  <0> d          -1.575  -0.023   3.762  0.00  0.00    -0.348 OA
ATOM      8  C7  <0> d          -0.514  -0.316   2.837  0.00  0.00     0.213 C 
ATOM      9  C8  <0> d          -0.016   1.091   2.429  0.00  0.00     0.245 C 
ENDROOT
BRANCH   9  10
ATOM     10  N1  <0> d          -0.700   1.560   1.217  0.00  0.00    -0.061 N 
ATOM     11  H8  <0> d          -1.732   1.179   1.208  0.00  0.00     0.278 HD
ATOM     12  H15 <0> d          -0.715   2.659   1.206  0.00  0.00     0.278 HD
BRANCH  10  13
ATOM     13  C9  <0> d          -0.013   1.086   0.008  0.00  0.00     0.271 C 
BRANCH  13  14
ATOM     14  C10 <0> d          -0.742   1.585  -1.213  0.00  0.00    -0.030 A 
ATOM     15  C14 <0> d          -0.410   2.802  -1.789  0.00  0.00     0.028 A 
ATOM     16  C13 <0> d          -1.101   3.227  -2.909  0.00  0.00     0.116 A 
ATOM     17  N2  <0> d          -2.063   2.490  -3.428  0.00  0.00    -0.273 NA
ATOM     18  C12 <0> d          -2.405   1.328  -2.906  0.00  0.00     0.116 A 
ATOM     19  C11 <0> d          -1.755   0.836  -1.790  0.00  0.00     0.028 A 
ENDBRANCH  13  14
ENDBRANCH  10  13
ENDBRANCH   9  10
BRANCH   6  20
ATOM     20  O1  <0> d          -1.984   3.483   7.107  0.00  0.00    -0.361 OA
ATOM     21  H5  <0> d          -2.706   2.899   7.696  0.00  0.00     0.217 HD
ENDBRANCH   6  20
TORSDOF 4
