REMARK  3 active torsions:
REMARK  status: ('A' for Active; 'I' for Inactive)
REMARK    1  A    between atoms: C5_5  and  S2_7 
REMARK    2  A    between atoms: S2_7  and  N1_10 
REMARK       I    between atoms: N2_13  and  C10_16 
REMARK    3  A    between atoms: C10_16  and  C11_18 
ROOT
ATOM      1  N1  <0> d           4.443   0.237   1.736  0.00  0.00    -0.303 N 
ATOM      2  C6  <0> d           5.194   1.258   0.993  0.00  0.00     0.155 C 
ATOM      3  C7  <0> d           4.519   2.618   1.211  0.00  0.00     0.146 C 
ATOM      4  N2  <0> d           4.301   2.808   2.652  0.00  0.00    -0.345 N 
ATOM      5  C8  <0> d           3.549   1.787   3.395  0.00  0.00     0.146 C 
ATOM      6  C9  <0> d           4.220   0.430   3.176  0.00  0.00     0.155 C 
ATOM      7  C10 <0> d           4.780   3.900   3.280  0.00  0.00     0.259 C 
ATOM      8  O3  <0> d           4.512   4.095   4.450  0.00  0.00    -0.267 OA
ENDROOT
BRANCH   7   9
ATOM      9  C11 <0> d           5.628   4.855   2.551  0.00  0.00     0.100 A 
ATOM     10  C15 <0> d           7.040   4.818   2.688  0.00  0.00     0.261 A 
ATOM     11  N3  <0> d           7.801   5.697   2.008  0.00  0.00    -0.333 N 
ATOM     12  O4  <0> d           7.562   3.991   3.414  0.00  0.00    -0.267 OA
ATOM     13  C14 <0> d           7.241   6.628   1.200  0.00  0.00     0.091 A 
ATOM     14  H19 <0> d           8.766   5.664   2.101  0.00  0.00     0.168 HD
ATOM     15  C13 <0> d           5.895   6.705   1.042  0.00  0.00     0.018 A 
ATOM     16  C12 <0> d           5.059   5.816   1.718  0.00  0.00     0.024 A 
ENDBRANCH   7   9
BRANCH   1  17
ATOM     17  S2  <0> d           3.854  -1.104   0.964  0.00  0.00     0.266 S 
ATOM     18  O1  <0> d           3.695  -2.108   1.957  0.00  0.00    -0.200 OA
ATOM     19  O2  <0> d           4.660  -1.295  -0.191  0.00  0.00    -0.200 OA
BRANCH  17  20
ATOM     20  C5  <0> d           2.237  -0.705   0.389  0.00  0.00     0.112 C 
ATOM     21  C4  <0> d           1.859  -0.533  -0.863  0.00  0.00     0.007 C 
ATOM     22  C3  <0> d           0.432  -0.210  -1.171  0.00  0.00     0.044 C 
ATOM     23  C2  <0> d          -0.299   0.314   0.093  0.00  0.00     0.052 C 
ATOM     24  C1  <0> d          -0.264   1.841   0.170  0.00  0.00     0.022 C 
ATOM     25  S1  <0> d           0.774  -0.452   1.381  0.00  0.00    -0.112 SA
ENDBRANCH  17  20
ENDBRANCH   1  17
TORSDOF 3
