REMARK  4 active torsions:
REMARK  status: ('A' for Active; 'I' for Inactive)
REMARK    1  A    between atoms: C2_2  and  C5_8 
REMARK    2  A    between atoms: C3_4  and  C4_6 
REMARK    3  A    between atoms: C4_6  and  N2_7 
REMARK    4  A    between atoms: C5_8  and  N3_9 
ROOT
ATOM      1  C5  <0> d           1.827   3.465   0.003  0.00  0.00     0.332 C 
ENDROOT
BRANCH   1   2
ATOM      2  C2  <0> d           1.309   2.050   0.001  0.00  0.00     0.070 A 
ATOM      3  C1  <0> d          -0.022   1.781   0.012  0.00  0.00     0.080 A 
ATOM      4  S1  <0> d           0.002  -0.004   0.002  0.00  0.00    -0.083 SA
ATOM      5  C3  <0> d           1.672  -0.212  -0.015  0.00  0.00     0.100 A 
ATOM      6  N1  <0> d           2.126   1.016  -0.013  0.00  0.00    -0.247 NA
BRANCH   5   7
ATOM      7  C4  <0> d           2.455  -1.500  -0.030  0.00  0.00     0.296 C 
BRANCH   7   8
ATOM      8  N2  <0> d           2.723  -1.926   1.350  0.00  0.00    -0.073 N 
ATOM      9  H6  <0> d           3.257  -1.213   1.824  0.00  0.00     0.274 HD
ATOM     10  H7  <0> d           1.849  -2.069   1.833  0.00  0.00     0.274 HD
ATOM     11  H22 <0> d           3.247  -2.788   1.340  0.00  0.00     0.274 HD
ENDBRANCH   7   8
ENDBRANCH   5   7
ENDBRANCH   1   2
BRANCH   1  12
ATOM     12  N3  <0> d           2.122   3.876   1.382  0.00  0.00     0.103 N 
ATOM     13  C9  <0> d           2.402   5.316   1.453  0.00  0.00     0.252 C 
ATOM     14  C8  <0> d           2.638   5.710   2.914  0.00  0.00     0.154 C 
ATOM     15  C10 <0> d           1.218   6.111   0.901  0.00  0.00     0.038 C 
ATOM     16  O1  <0> d           3.721   4.939   3.438  0.00  0.00    -0.382 OA
ATOM     17  C13 <0> d           2.969   7.201   2.985  0.00  0.00     0.034 C 
ATOM     18  C7  <0> d           3.493   3.527   3.383  0.00  0.00     0.198 C 
ATOM     19  C6  <0> d           3.247   3.105   1.933  0.00  0.00     0.299 C 
ATOM     20  C12 <0> d           1.792   8.006   2.430  0.00  0.00     0.003 C 
ATOM     21  C11 <0> d           1.536   7.606   0.976  0.00  0.00     0.002 C 
ENDBRANCH   1  12
TORSDOF 4
