REMARK  4 active torsions:
REMARK  status: ('A' for Active; 'I' for Inactive)
REMARK    1  A    between atoms: C18_19  and  C19_20 
REMARK    2  A    between atoms: C18_19  and  O4_24 
REMARK    3  A    between atoms: C19_20  and  C20_22 
REMARK    4  A    between atoms: C20_22  and  O3_23 
ROOT
ATOM      1  C1  <0> d          -0.219   1.635   0.091  0.00  0.00     0.013 C 
ATOM      2  C2  <0> d          -0.183   0.110  -0.028  0.00  0.00     0.025 C 
ATOM      3  C3  <0> d          -1.621  -0.466   0.077  0.00  0.00     0.014 C 
ATOM      4  C4  <0> d          -1.737  -0.838   1.561  0.00  0.00     0.006 C 
ATOM      5  C5  <0> d          -2.805  -1.852   1.897  0.00  0.00     0.020 C 
ATOM      6  C6  <0> d          -4.171  -1.166   1.985  0.00  0.00     0.010 C 
ATOM      7  C7  <0> d          -5.226  -2.168   2.457  0.00  0.00     0.007 C 
ATOM      8  C8  <0> d          -4.878  -2.641   3.869  0.00  0.00     0.005 C 
ATOM      9  C9  <0> d          -5.980  -3.569   4.391  0.00  0.00     0.084 C 
ATOM     10  C10 <0> d          -5.545  -4.112   5.735  0.00  0.00     0.127 C 
ATOM     11  O1  <0> d          -6.276  -4.043   6.695  0.00  0.00    -0.298 OA
ATOM     12  C11 <0> d          -4.176  -4.742   5.849  0.00  0.00     0.079 C 
ATOM     13  C12 <0> d          -3.140  -3.778   5.259  0.00  0.00     0.021 C 
ATOM     14  C13 <0> d          -3.552  -3.404   3.835  0.00  0.00    -0.016 C 
ATOM     15  C14 <0> d          -2.498  -2.503   3.226  0.00  0.00    -0.070 C 
ATOM     16  C15 <0> d          -1.372  -2.358   3.868  0.00  0.00    -0.022 C 
ATOM     17  C16 <0> d          -0.209  -1.540   3.357  0.00  0.00     0.040 C 
ATOM     18  C17 <0> d          -0.344  -1.455   1.849  0.00  0.00     0.002 C 
ATOM     19  C18 <0> d           0.619  -0.496   1.148  0.00  0.00     0.131 C 
ATOM     20  C21 <0> d          -0.248  -2.858   1.247  0.00  0.00     0.019 C 
ATOM     21  C22 <0> d          -3.713  -4.676   2.999  0.00  0.00     0.020 C 
ENDROOT
BRANCH  19  22
ATOM     22  C19 <0> d           1.818  -1.246   0.629  0.00  0.00     0.185 C 
ATOM     23  O2  <0> d           1.806  -1.704  -0.489  0.00  0.00    -0.292 OA
BRANCH  22  24
ATOM     24  C20 <0> d           3.032  -1.426   1.504  0.00  0.00     0.245 C 
BRANCH  24  25
ATOM     25  O3  <0> d           4.027  -2.165   0.792  0.00  0.00    -0.393 OA
ATOM     26  H25 <0> d           4.838  -2.318   1.296  0.00  0.00     0.209 HD
ENDBRANCH  24  25
ENDBRANCH  22  24
ENDBRANCH  19  22
BRANCH  19  27
ATOM     27  O4  <0> d           1.032   0.535   2.048  0.00  0.00    -0.381 OA
ATOM     28  H26 <0> d           1.615   1.196   1.648  0.00  0.00     0.211 HD
ENDBRANCH  19  27
TORSDOF 4
