REMARK  3 active torsions:
REMARK  status: ('A' for Active; 'I' for Inactive)
REMARK    1  A    between atoms: C6_6  and  O1_7 
REMARK    2  A    between atoms: C10_11  and  N1_12 
REMARK    3  A    between atoms: N1_12  and  C11_13 
ROOT
ATOM      1  C1  <0> d           4.040   0.663  -3.985  0.00  0.00     0.037 A 
ATOM      2  C2  <0> d           3.553   1.519  -3.021  0.00  0.00     0.012 A 
ATOM      3  C3  <0> d           3.377   1.086  -1.712  0.00  0.00    -0.019 A 
ATOM      4  C4  <0> d           3.696  -0.210  -1.373  0.00  0.00    -0.047 A 
ATOM      5  C5  <0> d           4.182  -1.076  -2.342  0.00  0.00     0.044 A 
ATOM      6  C6  <0> d           4.356  -0.645  -3.646  0.00  0.00     0.066 A 
ATOM      7  C7  <0> d           3.545  -0.741   0.029  0.00  0.00     0.039 C 
ATOM      8  C8  <0> d           2.622   0.158   0.848  0.00  0.00     0.007 C 
ATOM      9  C9  <0> d           3.110   1.605   0.712  0.00  0.00     0.041 C 
ATOM     10  C10 <0> d           2.834   2.075  -0.714  0.00  0.00     0.255 C 
ENDROOT
BRANCH  10  11
ATOM     11  N1  <0> d           3.474   3.380  -0.927  0.00  0.00     0.106 N 
ATOM     12  H13 <0> d           4.428   3.373  -0.597  0.00  0.00     0.317 HD
BRANCH  11  13
ATOM     13  C11 <0> d           2.703   4.455  -0.288  0.00  0.00     0.312 C 
ATOM     14  C16 <0> d           3.646   5.402   0.424  0.00  0.00     0.251 C 
ATOM     15  N2  <0> d           4.723   5.876  -0.210  0.00  0.00    -0.359 N 
ATOM     16  O2  <0> d           3.418   5.734   1.568  0.00  0.00    -0.271 OA
ATOM     17  C15 <0> d           5.011   5.475  -1.597  0.00  0.00     0.122 C 
ATOM     18  H22 <0> d           5.320   6.488   0.248  0.00  0.00     0.162 HD
ATOM     19  C14 <0> d           3.999   6.153  -2.523  0.00  0.00     0.020 C 
ATOM     20  C13 <0> d           2.734   5.324  -2.642  0.00  0.00     0.004 C 
ATOM     21  C12 <0> d           1.934   5.239  -1.354  0.00  0.00     0.045 C 
ENDBRANCH  11  13
ENDBRANCH  10  11
BRANCH   6  22
ATOM     22  O1  <0> d           4.835  -1.498  -4.590  0.00  0.00    -0.361 OA
ATOM     23  H6  <0> d           5.798  -1.496  -4.670  0.00  0.00     0.217 HD
ENDBRANCH   6  22
TORSDOF 3
