REMARK  3 active torsions:
REMARK  status: ('A' for Active; 'I' for Inactive)
REMARK    1  A    between atoms: C2_2  and  C11_13 
REMARK       I    between atoms: C11_13  and  N1_15 
REMARK    2  A    between atoms: N1_15  and  C13_17 
REMARK    3  A    between atoms: C13_17  and  C14_18 
ROOT
ATOM      1  C11 <0> d          -1.287  -0.754   0.038  0.00  0.00     0.255 C 
ATOM      2  O3  <0> d          -1.831  -0.928  -1.032  0.00  0.00    -0.270 OA
ATOM      3  N1  <0> d          -2.015  -0.753   1.172  0.00  0.00    -0.347 N 
ATOM      4  C12 <0> d          -3.439  -1.095   1.129  0.00  0.00     0.153 C 
ENDROOT
BRANCH   1   5
ATOM      5  C2  <0> d           0.203  -0.539   0.099  0.00  0.00     0.151 C 
ATOM      6  C1  <0> d           0.494   0.938   0.375  0.00  0.00     0.057 C 
ATOM      7  O2  <0> d           0.760  -1.340   1.150  0.00  0.00    -0.296 OA
ATOM      8  C10 <0> d           0.501  -2.669   1.044  0.00  0.00     0.295 C 
ATOM      9  C9  <0> d           0.611  -3.271  -0.305  0.00  0.00     0.045 A 
ATOM     10  O1  <0> d           0.194  -3.334   2.013  0.00  0.00    -0.259 OA
ATOM     11  C4  <0> d           0.766  -2.436  -1.413  0.00  0.00    -0.038 A 
ATOM     12  C8  <0> d           0.556  -4.653  -0.472  0.00  0.00     0.018 A 
ATOM     13  C3  <0> d           0.832  -0.941  -1.236  0.00  0.00     0.088 C 
ATOM     14  C5  <0> d           0.861  -2.988  -2.674  0.00  0.00     0.008 A 
ATOM     15  C6  <0> d           0.804  -4.361  -2.836  0.00  0.00     0.001 A 
ATOM     16  C7  <0> d           0.652  -5.192  -1.739  0.00  0.00     0.001 A 
ENDBRANCH   1   5
BRANCH   3  17
ATOM     17  C13 <0> d          -1.382  -0.412   2.449  0.00  0.00     0.203 C 
BRANCH  17  18
ATOM     18  C14 <0> d          -1.639   1.039   2.764  0.00  0.00     0.125 A 
ATOM     19  N3  <0> d          -2.431   1.707   1.988  0.00  0.00    -0.232 NA
ATOM     20  C17 <0> d          -2.721   3.031   2.210  0.00  0.00     0.082 A 
ATOM     21  C16 <0> d          -2.097   3.619   3.324  0.00  0.00     0.101 A 
ATOM     22  C18 <0> d          -3.555   3.879   1.469  0.00  0.00     0.040 A 
ATOM     23  C15 <0> d          -1.242   2.887   4.148  0.00  0.00     0.266 A 
ATOM     24  S1  <0> d          -2.686   5.291   3.292  0.00  0.00    -0.094 SA
ATOM     25  N2  <0> d          -1.024   1.584   3.847  0.00  0.00    -0.309 N 
ATOM     26  O4  <0> d          -0.704   3.405   5.113  0.00  0.00    -0.267 OA
ATOM     27  H1  <0> d          -0.435   1.046   4.398  0.00  0.00     0.170 HD
ATOM     28  C19 <0> d          -3.717   5.167   1.839  0.00  0.00     0.053 A 
ENDBRANCH  17  18
ENDBRANCH   3  17
TORSDOF 3
