REMARK  5 active torsions:
REMARK  status: ('A' for Active; 'I' for Inactive)
REMARK    1  A    between atoms: C2_4  and  S2_6 
REMARK    2  A    between atoms: S2_6  and  C3_7 
REMARK    3  A    between atoms: C3_7  and  C4_8 
REMARK       I    between atoms: C4_8  and  N3_10 
REMARK    4  A    between atoms: N3_10  and  C5_11 
REMARK    5  A    between atoms: C5_11  and  C6_12 
ROOT
ATOM      1  C4  <0> d           5.459  -2.124  -0.063  0.00  0.00     0.227 C 
ATOM      2  O1  <0> d           5.049  -3.265  -0.066  0.00  0.00    -0.273 OA
ATOM      3  N3  <0> d           6.785  -1.884  -0.075  0.00  0.00    -0.358 N 
ATOM      4  H5  <0> d           7.113  -0.971  -0.073  0.00  0.00     0.162 HD
ENDROOT
BRANCH   1   5
ATOM      5  C3  <0> d           4.486  -0.973  -0.047  0.00  0.00     0.184 C 
BRANCH   5   6
ATOM      6  S2  <0> d           2.790  -1.616  -0.034  0.00  0.00    -0.092 SA
BRANCH   6   7
ATOM      7  C2  <0> d           1.785  -0.169  -0.016  0.00  0.00     0.158 A 
ATOM      8  N2  <0> d           2.132   1.112  -0.012  0.00  0.00    -0.136 NA
ATOM      9  N1  <0> d           1.272   2.034   0.001  0.00  0.00    -0.154 NA
ATOM     10  C1  <0> d          -0.022   1.786   0.012  0.00  0.00     0.193 A 
ATOM     11  S1  <0> d           0.002  -0.004   0.002  0.00  0.00    -0.052 SA
ENDBRANCH   6   7
ENDBRANCH   5   6
ENDBRANCH   1   5
BRANCH   3  12
ATOM     12  C5  <0> d           7.732  -3.002  -0.090  0.00  0.00     0.156 C 
BRANCH  12  13
ATOM     13  C6  <0> d           9.162  -2.460  -0.101  0.00  0.00     0.163 C 
ATOM     14  O3  <0> d           9.420  -1.767   1.124  0.00  0.00    -0.380 OA
ATOM     15  C9  <0> d          10.756  -1.265   1.227  0.00  0.00     0.194 C 
ATOM     16  C8  <0> d          11.743  -2.428   1.088  0.00  0.00     0.193 C 
ATOM     17  O2  <0> d          11.485  -3.119  -0.137  0.00  0.00    -0.386 OA
ATOM     18  C7  <0> d          10.149  -3.622  -0.240  0.00  0.00     0.201 C 
ENDBRANCH  12  13
ENDBRANCH   3  12
TORSDOF 5
