REMARK  3 active torsions:
REMARK  status: ('A' for Active; 'I' for Inactive)
REMARK    1  A    between atoms: C2_2  and  C3_3 
REMARK    2  A    between atoms: C2_2  and  N2_13 
REMARK       I    between atoms: C3_3  and  N1_5 
REMARK    3  A    between atoms: N1_5  and  C4_6 
ROOT
ATOM      1  C1  <0> d           0.529   3.878  -1.379  0.00  0.00     0.050 C 
ATOM      2  C2  <0> d           1.349   3.481  -0.151  0.00  0.00     0.276 C 
ENDROOT
BRANCH   2   3
ATOM      3  C3  <0> d           0.748   4.109   1.080  0.00  0.00     0.253 C 
ATOM      4  O1  <0> d           0.351   3.408   1.986  0.00  0.00    -0.271 OA
ATOM      5  N1  <0> d           0.651   5.450   1.173  0.00  0.00    -0.324 N 
ATOM      6  H5  <0> d           1.093   6.089   0.394  0.00  0.00     0.169 HD
BRANCH   5   7
ATOM      7  C4  <0> d          -0.011   6.030   2.261  0.00  0.00     0.052 A 
ATOM      8  C9  <0> d           0.298   7.327   2.653  0.00  0.00     0.037 A 
ATOM      9  C8  <0> d          -0.358   7.896   3.728  0.00  0.00     0.021 A 
ATOM     10 Br1  <0> d           1.613   8.311   1.717  0.00  0.00    -0.049 Br
ATOM     11  C7  <0> d          -1.321   7.178   4.412  0.00  0.00     0.002 A 
ATOM     12  C6  <0> d          -1.630   5.887   4.024  0.00  0.00     0.002 A 
ATOM     13  C5  <0> d          -0.982   5.313   2.948  0.00  0.00     0.031 A 
ENDBRANCH   5   7
ENDBRANCH   2   3
BRANCH   2  14
ATOM     14  N2  <0> d           1.340   2.019  -0.008  0.00  0.00    -0.049 N 
ATOM     15  C13 <0> d          -0.034   1.500   0.013  0.00  0.00     0.338 C 
ATOM     16  C12 <0> d          -0.016  -0.002   0.003  0.00  0.00     0.243 C 
ATOM     17  N3  <0> d           1.061  -0.711  -0.352  0.00  0.00    -0.358 N 
ATOM     18  O2  <0> d          -1.020  -0.597   0.333  0.00  0.00    -0.272 OA
ATOM     19  C11 <0> d           2.328  -0.092  -0.730  0.00  0.00     0.150 C 
ATOM     20  H14 <0> d           0.962  -1.806  -0.353  0.00  0.00     0.162 HD
ATOM     21  C10 <0> d           2.108   1.379  -1.089  0.00  0.00     0.256 C 
ATOM     22  H17 <0> d           1.818   1.776   0.953  0.00  0.00     0.281 HD
ENDBRANCH   2  14
TORSDOF 3
