REMARK  7 active torsions:
REMARK  status: ('A' for Active; 'I' for Inactive)
REMARK    1  A    between atoms: C3_3  and  C7_8 
REMARK    2  A    between atoms: C5_5  and  O1_7 
REMARK    3  A    between atoms: C7_8  and  N1_9 
REMARK    4  A    between atoms: N1_9  and  C8_10 
REMARK    5  A    between atoms: N3_18  and  C15_19 
REMARK    6  A    between atoms: C15_19  and  C16_20 
REMARK    7  A    between atoms: C16_20  and  O2_21 
ROOT
ATOM      1  C8  <0> d           5.338   3.222   1.239  0.00  0.00     0.222 C 
ATOM      2  C9  <0> d           5.866   3.575   2.635  0.00  0.00     0.038 C 
ATOM      3  C10 <0> d           7.274   4.165   2.516  0.00  0.00     0.008 C 
ATOM      4  C11 <0> d           8.258   3.063   2.104  0.00  0.00     0.059 C 
ATOM      5  C12 <0> d           7.689   2.339   0.910  0.00  0.00     0.040 A 
ATOM      6  C13 <0> d           6.390   2.411   0.523  0.00  0.00     0.016 A 
ATOM      7  C14 <0> d           6.234   1.621  -0.613  0.00  0.00     0.150 A 
ATOM      8  N2  <0> d           7.397   1.090  -0.902  0.00  0.00    -0.184 NA
ATOM      9  N3  <0> d           8.330   1.530   0.051  0.00  0.00    -0.272 N 
ENDROOT
BRANCH   1  10
ATOM     10  N1  <0> d           4.104   2.435   1.361  0.00  0.00    -0.063 N 
ATOM     11  H9  <0> d           4.269   1.642   1.963  0.00  0.00     0.278 HD
ATOM     12  H22 <0> d           3.820   2.111   0.449  0.00  0.00     0.278 HD
BRANCH  10  13
ATOM     13  C7  <0> d           3.043   3.273   1.935  0.00  0.00     0.271 C 
BRANCH  13  14
ATOM     14  C3  <0> d           1.746   2.506   1.943  0.00  0.00    -0.030 A 
ATOM     15  C2  <0> d           1.408   1.733   3.038  0.00  0.00     0.009 A 
ATOM     16  C1  <0> d           0.218   1.028   3.048  0.00  0.00     0.003 A 
ATOM     17  C6  <0> d          -0.635   1.095   1.964  0.00  0.00     0.036 A 
ATOM     18  C5  <0> d          -0.298   1.871   0.864  0.00  0.00     0.066 A 
ATOM     19  C4  <0> d           0.895   2.578   0.856  0.00  0.00     0.045 A 
BRANCH  18  20
ATOM     20  O1  <0> d          -1.137   1.940  -0.203  0.00  0.00    -0.361 OA
ATOM     21  H6  <0> d          -0.972   1.266  -0.877  0.00  0.00     0.217 HD
ENDBRANCH  18  20
ENDBRANCH  13  14
ENDBRANCH  10  13
ENDBRANCH   1  10
BRANCH   9  22
ATOM     22  C15 <0> d           9.750   1.172   0.098  0.00  0.00     0.177 C 
BRANCH  22  23
ATOM     23  C16 <0> d           9.931  -0.087   0.948  0.00  0.00     0.185 C 
BRANCH  23  24
ATOM     24  O2  <0> d          11.316  -0.436   0.994  0.00  0.00    -0.399 OA
ATOM     25  H21 <0> d          11.506  -1.226   1.518  0.00  0.00     0.209 HD
ENDBRANCH  23  24
ENDBRANCH  22  23
ENDBRANCH   9  22
TORSDOF 7
