REMARK  6 active torsions:
REMARK  status: ('A' for Active; 'I' for Inactive)
REMARK    1  A    between atoms: C2_2  and  C3_3 
REMARK    2  A    between atoms: C3_3  and  C4_4 
REMARK    3  A    between atoms: C4_4  and  C6_6 
REMARK    4  A    between atoms: C4_4  and  N1_9 
REMARK    5  A    between atoms: N1_9  and  C7_10 
REMARK    6  A    between atoms: C7_10  and  C8_11 
ROOT
ATOM      1  N1  <0> d           1.390  -2.507  -2.510  0.00  0.00    -0.051 N 
ATOM      2  H11 <0> d           0.920  -2.107  -3.309  0.00  0.00     0.279 HD
ATOM      3  H19 <0> d           2.360  -2.229  -2.518  0.00  0.00     0.279 HD
ENDROOT
BRANCH   1   4
ATOM      4  C4  <0> d           0.752  -2.027  -1.277  0.00  0.00     0.209 C 
ATOM      5  C5  <0> d          -0.684  -2.551  -1.208  0.00  0.00     0.058 C 
BRANCH   4   6
ATOM      6  C3  <0> d           1.539  -2.534  -0.066  0.00  0.00     0.049 C 
BRANCH   6   7
ATOM      7  C2  <0> d           0.875  -2.035   1.219  0.00  0.00    -0.002 C 
ATOM      8  C1  <0> d           1.661  -2.542   2.429  0.00  0.00     0.005 C 
ENDBRANCH   6   7
ENDBRANCH   4   6
BRANCH   4   9
ATOM      9  C6  <0> d           0.738  -0.520  -1.271  0.00  0.00     0.210 C 
ATOM     10  O1  <0> d           1.328   0.098  -2.141  0.00  0.00    -0.646 OA
ATOM     11  O2  <0> d           0.137   0.080  -0.397  0.00  0.00    -0.646 OA
ENDBRANCH   4   9
ENDBRANCH   1   4
BRANCH   1  12
ATOM     12  C7  <0> d           1.299  -3.972  -2.572  0.00  0.00     0.294 C 
BRANCH  12  13
ATOM     13  C8  <0> d           2.061  -4.473  -3.771  0.00  0.00     0.078 A 
ATOM     14  N3  <0> d           1.585  -4.563  -5.015  0.00  0.00    -0.232 NA
ATOM     15  C14 <0> d           2.532  -5.042  -5.809  0.00  0.00     0.134 A 
ATOM     16  N2  <0> d           3.648  -5.274  -5.048  0.00  0.00    -0.316 N 
ATOM     17  C13 <0> d           2.558  -5.327  -7.189  0.00  0.00     0.051 A 
ATOM     18  C9  <0> d           3.339  -4.912  -3.765  0.00  0.00     0.127 A 
ATOM     19  C10 <0> d           4.781  -5.778  -5.618  0.00  0.00     0.098 A 
ATOM     20  C11 <0> d           4.821  -6.056  -6.938  0.00  0.00     0.018 A 
ATOM     21  C12 <0> d           3.694  -5.829  -7.745  0.00  0.00     0.005 A 
ENDBRANCH  12  13
ENDBRANCH   1  12
TORSDOF 6
