REMARK  2 active torsions:
REMARK  status: ('A' for Active; 'I' for Inactive)
REMARK    1  A    between atoms: N1_6  and  C7_10 
REMARK    2  A    between atoms: C10_13  and  N2_16 
ROOT
ATOM      1  C7  <0> d           1.033  -4.110  -0.022  0.00  0.00     0.096 C 
ATOM      2  C8  <0> d          -0.168  -4.728   0.698  0.00  0.00     0.028 C 
ATOM      3  C9  <0> d          -0.039  -6.252   0.689  0.00  0.00     0.035 C 
ATOM      4  C10 <0> d           1.250  -6.659   1.406  0.00  0.00     0.183 C 
ATOM      5  C11 <0> d           2.450  -6.042   0.686  0.00  0.00     0.035 C 
ATOM      6  C12 <0> d           2.322  -4.518   0.695  0.00  0.00     0.028 C 
ENDROOT
BRANCH   1   7
ATOM      7  N1  <0> d           0.910  -2.651  -0.014  0.00  0.00    -0.284 N 
ATOM      8  C4  <0> d           0.854  -2.002  -1.187  0.00  0.00     0.227 C 
ATOM      9  C3  <0> d           0.739  -0.502  -1.246  0.00  0.00     0.108 C 
ATOM     10  O1  <0> d           0.897  -2.636  -2.219  0.00  0.00    -0.273 OA
ATOM     11  C2  <0> d           0.002  -0.004   0.002  0.00  0.00    -0.001 C 
ATOM     12  C1  <0> d          -0.019   1.526   0.010  0.00  0.00     0.011 C 
ATOM     13  C6  <0> d           0.743  -0.515   1.242  0.00  0.00     0.108 C 
ATOM     14  C5  <0> d           0.857  -2.015   1.166  0.00  0.00     0.227 C 
ATOM     15  O2  <0> d           0.903  -2.660   2.192  0.00  0.00    -0.273 OA
ENDBRANCH   1   7
BRANCH   4  16
ATOM     16  N2  <0> d           1.373  -8.123   1.398  0.00  0.00    -0.075 N 
ATOM     17  H19 <0> d           1.399  -8.453   0.445  0.00  0.00     0.274 HD
ATOM     18  H20 <0> d           2.223  -8.392   1.871  0.00  0.00     0.274 HD
ATOM     19  H21 <0> d           0.581  -8.530   1.873  0.00  0.00     0.274 HD
ENDBRANCH   4  16
TORSDOF 2
