REMARK  7 active torsions:
REMARK  status: ('A' for Active; 'I' for Inactive)
REMARK    1  A    between atoms: C2_2  and  O1_3 
REMARK    2  A    between atoms: O1_3  and  C3_4 
REMARK    3  A    between atoms: C8_11  and  C12_15 
REMARK    4  A    between atoms: C12_15  and  C13_16 
REMARK    5  A    between atoms: C12_15  and  N6_25 
REMARK    6  A    between atoms: N5_20  and  C14_21 
REMARK    7  A    between atoms: N7_28  and  C22_31 
ROOT
ATOM      1  C12 <0> d           3.992  -6.233   3.057  0.00  0.00     0.281 C 
ENDROOT
BRANCH   1   2
ATOM      2  C8  <0> d           2.530  -6.138   3.497  0.00  0.00     0.138 A 
ATOM      3  C7  <0> d           2.426  -6.713   4.891  0.00  0.00     0.232 A 
ATOM      4  N1  <0> d           1.614  -7.731   5.122  0.00  0.00    -0.326 N 
ATOM      5  O2  <0> d           3.088  -6.242   5.797  0.00  0.00    -0.272 OA
ATOM      6  C6  <0> d           0.863  -8.293   4.175  0.00  0.00     0.044 A 
ATOM      7  H42 <0> d           1.562  -8.085   6.024  0.00  0.00     0.169 HD
ATOM      8  C5  <0> d           0.020  -9.373   4.496  0.00  0.00     0.033 A 
ATOM      9  C10 <0> d           0.881  -7.817   2.780  0.00  0.00    -0.010 A 
ATOM     10  C4  <0> d          -0.750  -9.956   3.541  0.00  0.00     0.039 A 
ATOM     11  C3  <0> d          -0.754  -9.525   2.209  0.00  0.00     0.069 A 
ATOM     12  C11 <0> d           0.031  -8.491   1.798  0.00  0.00     0.050 A 
ATOM     13  C9  <0> d           1.678  -6.773   2.416  0.00  0.00     0.003 A 
BRANCH  11  14
ATOM     14  O1  <0> d          -1.552 -10.156   1.307  0.00  0.00    -0.351 OA
BRANCH  14  15
ATOM     15  C2  <0> d          -2.354 -11.234   1.793  0.00  0.00     0.171 C 
ATOM     16  C1  <0> d          -3.178 -11.816   0.642  0.00  0.00     0.034 C 
ENDBRANCH  14  15
ENDBRANCH  11  14
ENDBRANCH   1   2
BRANCH   1  17
ATOM     17  C13 <0> d           4.881  -5.533   4.087  0.00  0.00     0.262 A 
ATOM     18  N5  <0> d           4.521  -4.103   4.192  0.00  0.00    -0.176 NA
ATOM     19  N4  <0> d           4.122  -3.948   5.497  0.00  0.00    -0.218 N 
ATOM     20  N3  <0> d           4.224  -5.171   6.158  0.00  0.00    -0.060 NA
ATOM     21  H13 <0> d           3.818  -3.117   5.896  0.00  0.00     0.206 HD
ATOM     22  N2  <0> d           4.636  -6.077   5.430  0.00  0.00    -0.149 NA
BRANCH  18  23
ATOM     23  C14 <0> d           3.433  -3.765   3.264  0.00  0.00     0.025 C 
ATOM     24  C15 <0> d           2.088  -3.925   3.976  0.00  0.00     0.033 C 
ATOM     25  C16 <0> d           3.594  -2.317   2.796  0.00  0.00     0.033 C 
ATOM     26  C17 <0> d           3.485  -4.700   2.055  0.00  0.00     0.033 C 
ENDBRANCH  18  23
ENDBRANCH   1  17
BRANCH   1  27
ATOM     27  N6  <0> d           4.382  -7.646   2.954  0.00  0.00     0.101 N 
ATOM     28  C21 <0> d           3.656  -8.314   1.865  0.00  0.00     0.300 C 
ATOM     29  C20 <0> d           4.044  -9.794   1.830  0.00  0.00     0.265 C 
ATOM     30  N7  <0> d           5.494  -9.915   1.622  0.00  0.00    -0.064 N 
ATOM     31  C19 <0> d           6.205  -9.264   2.730  0.00  0.00     0.265 C 
ATOM     32  H43 <0> d           5.747  -9.470   0.752  0.00  0.00     0.280 HD
ATOM     33  C18 <0> d           5.834  -7.780   2.773  0.00  0.00     0.300 C 
BRANCH  30  34
ATOM     34  C22 <0> d           5.864 -11.336   1.570  0.00  0.00     0.188 C 
ATOM     35  C27 <0> d           5.123 -12.014   0.416  0.00  0.00     0.033 C 
ATOM     36  C26 <0> d           5.508 -13.494   0.362  0.00  0.00     0.002 C 
ATOM     37  C25 <0> d           7.017 -13.620   0.144  0.00  0.00     0.000 C 
ATOM     38  C24 <0> d           7.758 -12.942   1.298  0.00  0.00     0.002 C 
ATOM     39  C23 <0> d           7.372 -11.462   1.352  0.00  0.00     0.033 C 
ENDBRANCH  30  34
ENDBRANCH   1  27
TORSDOF 7
