REMARK  7 active torsions:
REMARK  status: ('A' for Active; 'I' for Inactive)
REMARK    1  A    between atoms: C2_2  and  C3_3 
REMARK    2  A    between atoms: C13_14  and  C14_16 
REMARK    3  A    between atoms: C15_17  and  O4_33 
REMARK    4  A    between atoms: C16_19  and  O3_32 
REMARK    5  A    between atoms: N4_20  and  C18_23 
REMARK    6  A    between atoms: C18_23  and  C19_24 
REMARK    7  A    between atoms: C22_27  and  O2_30 
ROOT
ATOM      1  C14 <0> d           4.270   0.200  -2.368  0.00  0.00     0.189 C 
ATOM      2  C15 <0> d           4.988  -0.344  -1.167  0.00  0.00     0.152 C 
ATOM      3  N3  <0> d           5.113   0.309  -0.078  0.00  0.00    -0.218 NA
ATOM      4  C16 <0> d           4.580   1.645   0.139  0.00  0.00     0.356 C 
ATOM      5  N4  <0> d           4.315   2.339  -1.113  0.00  0.00    -0.302 N 
ATOM      6  C17 <0> d           4.160   1.696  -2.272  0.00  0.00     0.237 C 
ATOM      7  O1  <0> d           3.924   2.337  -3.274  0.00  0.00    -0.272 OA
ENDROOT
BRANCH   1   8
ATOM      8  C13 <0> d           2.868  -0.407  -2.438  0.00  0.00     0.268 C 
ATOM      9  C12 <0> d           2.970  -1.930  -2.544  0.00  0.00     0.146 C 
ATOM     10  C5  <0> d           1.542  -2.459  -2.447  0.00  0.00    -0.041 C 
ATOM     11  N1  <0> d           3.465  -2.378  -3.844  0.00  0.00    -0.379 N 
ATOM     12  C4  <0> d           0.621  -2.033  -1.330  0.00  0.00     0.073 C 
ATOM     13  C6  <0> d           1.371  -3.260  -3.488  0.00  0.00    -0.005 A 
ATOM     14  C3  <0> d           0.718  -0.497  -1.257  0.00  0.00     0.224 C 
ATOM     15  N2  <0> d           2.123  -0.083  -1.210  0.00  0.00     0.096 N 
ATOM     16  H17 <0> d           2.204   0.898  -0.989  0.00  0.00     0.317 HD
ATOM     17  C11 <0> d           2.576  -3.171  -4.368  0.00  0.00     0.039 A 
ATOM     18  C7  <0> d           0.259  -4.144  -3.875  0.00  0.00     0.014 A 
ATOM     19  C10 <0> d           2.611  -3.921  -5.580  0.00  0.00     0.030 A 
ATOM     20  C9  <0> d           1.538  -4.701  -5.863  0.00  0.00     0.002 A 
ATOM     21  C8  <0> d           0.408  -4.817  -5.047  0.00  0.00     0.001 A 
ATOM     22  H29 <0> d           4.311  -2.128  -4.247  0.00  0.00     0.160 HD
BRANCH  14  23
ATOM     23  C2  <0> d           0.002  -0.004   0.002  0.00  0.00     0.031 C 
ATOM     24  C1  <0> d          -0.019   1.526   0.010  0.00  0.00     0.007 C 
ENDBRANCH  14  23
ENDBRANCH   1   8
BRANCH   2  25
ATOM     25  O4  <0> d           5.525  -1.580  -1.243  0.00  0.00    -0.347 OA
ATOM     26  H28 <0> d           5.971  -1.865  -0.434  0.00  0.00     0.219 HD
ENDBRANCH   2  25
BRANCH   5  27
ATOM     27  C18 <0> d           4.214   3.801  -1.098  0.00  0.00     0.168 C 
BRANCH  27  28
ATOM     28  C19 <0> d           5.576   4.401  -1.334  0.00  0.00    -0.040 A 
ATOM     29  C24 <0> d           5.997   4.673  -2.623  0.00  0.00     0.011 A 
ATOM     30  C23 <0> d           7.242   5.229  -2.842  0.00  0.00     0.037 A 
ATOM     31  C22 <0> d           8.076   5.503  -1.768  0.00  0.00     0.068 A 
ATOM     32  C21 <0> d           7.655   5.223  -0.476  0.00  0.00     0.037 A 
ATOM     33  C20 <0> d           6.406   4.673  -0.262  0.00  0.00     0.011 A 
BRANCH  31  34
ATOM     34  O2  <0> d           9.305   6.045  -1.980  0.00  0.00    -0.356 OA
ATOM     35  C25 <0> d           9.672   6.306  -3.336  0.00  0.00     0.210 C 
ENDBRANCH  31  34
ENDBRANCH  27  28
ENDBRANCH   5  27
BRANCH   4  36
ATOM     36  O3  <0> d           3.362   1.544   0.879  0.00  0.00    -0.358 OA
ATOM     37  H27 <0> d           3.462   1.127   1.746  0.00  0.00     0.214 HD
ENDBRANCH   4  36
TORSDOF 7
