REMARK  4 active torsions:
REMARK  status: ('A' for Active; 'I' for Inactive)
REMARK    1  A    between atoms: C7_10  and  C8_12 
REMARK    2  A    between atoms: C8_12  and  C9_13 
REMARK    3  A    between atoms: C9_13  and  C10_14 
REMARK       I    between atoms: C10_14  and  N3_16 
REMARK    4  A    between atoms: N3_16  and  C11_17 
ROOT
ATOM      1  C9  <0> d           0.101  -4.872   4.030  0.00  0.00     0.110 C 
ENDROOT
BRANCH   1   2
ATOM      2  C8  <0> d           0.090  -3.432   4.547  0.00  0.00     0.088 C 
BRANCH   2   3
ATOM      3  C7  <0> d           0.057  -2.480   3.379  0.00  0.00     0.108 A 
ATOM      4  N1  <0> d           0.042  -1.142   3.610  0.00  0.00    -0.311 N 
ATOM      5  C6  <0> d           0.013  -0.257   2.596  0.00  0.00     0.260 A 
ATOM      6  H18 <0> d           0.053  -0.817   4.524  0.00  0.00     0.170 HD
ATOM      7  C5  <0> d          -0.003  -0.746   1.249  0.00  0.00     0.075 A 
ATOM      8  O1  <0> d           0.000   0.941   2.820  0.00  0.00    -0.267 OA
ATOM      9  C2  <0> d          -0.035  -0.005   0.002  0.00  0.00    -0.031 A 
ATOM     10  C4  <0> d           0.008  -2.145   1.110  0.00  0.00     0.116 A 
ATOM     11  C1  <0> d          -0.055   1.502   0.009  0.00  0.00     0.050 C 
ATOM     12  C3  <0> d          -0.041  -0.678  -1.160  0.00  0.00    -0.012 A 
ATOM     13  S1  <0> d          -0.011  -2.386  -0.648  0.00  0.00    -0.074 SA
ATOM     14  C19 <0> d          -0.066  -0.124  -2.561  0.00  0.00     0.057 C 
ATOM     15  N2  <0> d           0.032  -2.957   2.163  0.00  0.00    -0.227 NA
ENDBRANCH   2   3
ENDBRANCH   1   2
BRANCH   1  16
ATOM     16  C10 <0> d           0.134  -5.824   5.198  0.00  0.00     0.222 C 
ATOM     17  O2  <0> d           0.147  -5.394   6.332  0.00  0.00    -0.273 OA
ATOM     18  N3  <0> d           0.149  -7.155   4.982  0.00  0.00    -0.327 N 
ATOM     19  H8  <0> d           0.071  -7.501   4.080  0.00  0.00     0.169 HD
BRANCH  18  20
ATOM     20  C11 <0> d           0.277  -8.037   6.062  0.00  0.00     0.037 A 
ATOM     21  C16 <0> d           0.988  -9.216   5.907  0.00  0.00     0.069 A 
ATOM     22  C15 <0> d           1.118 -10.085   6.980  0.00  0.00     0.108 A 
ATOM     23  C14 <0> d           0.518  -9.770   8.209  0.00  0.00     0.093 A 
ATOM     24  O3  <0> d           1.732 -11.276   7.153  0.00  0.00    -0.294 OA
ATOM     25  C13 <0> d          -0.200  -8.580   8.345  0.00  0.00     0.037 A 
ATOM     26  N4  <0> d           0.808 -10.796   9.055  0.00  0.00    -0.226 NA
ATOM     27  C12 <0> d          -0.316  -7.729   7.284  0.00  0.00     0.032 A 
ATOM     28  C17 <0> d           1.523 -11.674   8.418  0.00  0.00     0.142 A 
ATOM     29  C18 <0> d           2.043 -12.957   9.015  0.00  0.00     0.100 C 
ENDBRANCH  18  20
ENDBRANCH   1  16
TORSDOF 4
