REMARK  2 active torsions:
REMARK  status: ('A' for Active; 'I' for Inactive)
REMARK    1  A    between atoms: C3_3  and  N5_16 
REMARK    2  A    between atoms: C4_4  and  N3_8 
ROOT
ATOM      1  C1  <0> d          -0.022   1.486  -0.010  0.00  0.00     0.075 C 
ATOM      2  C2  <0> d          -0.009  -0.021  -0.004  0.00  0.00     0.081 A 
ATOM      3  C3  <0> d           0.015  -0.843  -1.137  0.00  0.00     0.100 A 
ATOM      4  C4  <0> d           0.019  -2.139  -0.712  0.00  0.00     0.175 A 
ATOM      5  N1  <0> d          -0.002  -2.121   0.650  0.00  0.00    -0.255 N 
ATOM      6  N2  <0> d          -0.014  -0.782   1.061  0.00  0.00    -0.174 NA
ATOM      7  C5  <0> d          -0.006  -3.293   1.528  0.00  0.00     0.182 C 
ENDROOT
BRANCH   4   8
ATOM      8  N3  <0> d           0.041  -3.277  -1.525  0.00  0.00    -0.216 N 
ATOM      9  N4  <0> d           0.930  -4.354  -1.413  0.00  0.00    -0.169 NA
ATOM     10  C8  <0> d           0.638  -5.226  -2.345  0.00  0.00     0.070 A 
ATOM     11  C7  <0> d          -0.440  -4.732  -3.088  0.00  0.00     0.061 A 
ATOM     12  C9  <0> d           1.346  -6.535  -2.582  0.00  0.00     0.074 C 
ATOM     13  C6  <0> d          -0.792  -3.533  -2.567  0.00  0.00     0.054 A 
ATOM     14 Br1  <0> d          -1.262  -5.590  -4.559  0.00  0.00    -0.047 Br
ATOM     15  C10 <0> d          -1.906  -2.643  -3.054  0.00  0.00     0.072 C 
ENDBRANCH   4   8
BRANCH   3  16
ATOM     16  N5  <0> d           0.032  -0.409  -2.478  0.00  0.00    -0.394 N 
ATOM     17  H13 <0> d           0.027   0.539  -2.681  0.00  0.00     0.156 HD
ATOM     18  H14 <0> d           0.048  -1.059  -3.198  0.00  0.00     0.156 HD
ENDBRANCH   3  16
TORSDOF 2
