REMARK  1 active torsions:
REMARK  status: ('A' for Active; 'I' for Inactive)
REMARK    1  A    between atoms: C9_11  and  N2_14 
ROOT
ATOM      1  C1  <0> d          -0.019   1.526   0.010  0.00  0.00     0.040 C 
ATOM      2  C2  <0> d           0.002  -0.004   0.002  0.00  0.00     0.133 C 
ATOM      3  C3  <0> d           0.709  -0.493  -1.260  0.00  0.00     0.135 C 
ATOM      4  C4  <0> d           1.084  -1.945  -1.114  0.00  0.00     0.226 C 
ATOM      5  O1  <0> d           0.458  -2.798  -1.707  0.00  0.00    -0.273 OA
ATOM      6  N1  <0> d           2.120  -2.292  -0.319  0.00  0.00    -0.320 N 
ATOM      7  C5  <0> d           2.783  -1.300   0.416  0.00  0.00     0.074 A 
ATOM      8  C6  <0> d           4.168  -1.216   0.401  0.00  0.00     0.056 A 
ATOM      9  C7  <0> d           4.809  -0.234   1.135  0.00  0.00     0.038 A 
ATOM     10  C8  <0> d           4.073   0.666   1.885  0.00  0.00     0.056 A 
ATOM     11  C9  <0> d           2.687   0.590   1.904  0.00  0.00     0.063 A 
ATOM     12  C10 <0> d           2.038  -0.394   1.166  0.00  0.00     0.122 A 
ATOM     13  O2  <0> d           0.684  -0.473   1.163  0.00  0.00    -0.341 OA
ATOM     14 Cl1  <0> d           6.541  -0.131   1.114  0.00  0.00    -0.084 Cl
ATOM     15  C11 <0> d           2.546  -3.690  -0.227  0.00  0.00     0.159 C 
ENDROOT
BRANCH  11  16
ATOM     16  N2  <0> d           1.944   1.500   2.665  0.00  0.00    -0.397 N 
ATOM     17  H9  <0> d           2.398   2.186   3.179  0.00  0.00     0.156 HD
ATOM     18  H10 <0> d           0.976   1.445   2.677  0.00  0.00     0.156 HD
ENDBRANCH  11  16
TORSDOF 1
