REMARK  5 active torsions:
REMARK  status: ('A' for Active; 'I' for Inactive)
REMARK    1  A    between atoms: C2_2  and  C4_4 
REMARK    2  A    between atoms: C9_10  and  O1_11 
REMARK    3  A    between atoms: C12_15  and  C13_16 
REMARK    4  A    between atoms: C16_19  and  O3_24 
REMARK    5  A    between atoms: C17_20  and  O2_22 
ROOT
ATOM      1  C4  <0> d          -0.377   2.123  -1.352  0.00  0.00     0.015 C 
ATOM      2  C5  <0> d          -1.823   1.792  -1.562  0.00  0.00     0.044 C 
ATOM      3  C6  <0> d          -2.261   1.734  -2.966  0.00  0.00     0.276 C 
ATOM      4  N1  <0> d          -1.630   2.687  -3.845  0.00  0.00     0.125 N 
ATOM      5  C7  <0> d          -1.354   4.003  -3.335  0.00  0.00     0.289 C 
ATOM      6  C8  <0> d          -0.024   4.210  -2.639  0.00  0.00     0.033 C 
ATOM      7  C9  <0> d          -0.071   3.595  -1.234  0.00  0.00     0.140 C 
ATOM      8  C10 <0> d           1.106   3.521  -3.413  0.00  0.00     0.251 C 
ATOM      9  N2  <0> d           0.692   2.122  -3.610  0.00  0.00    -0.034 N 
ATOM     10  C11 <0> d           0.526   1.414  -2.348  0.00  0.00     0.250 C 
ATOM     11  C12 <0> d          -0.467   2.064  -4.502  0.00  0.00     0.455 C 
ATOM     12  C20 <0> d           0.268   5.708  -2.531  0.00  0.00     0.021 C 
ATOM     13  H31 <0> d           1.495   1.563  -4.112  0.00  0.00     0.282 HD
ENDROOT
BRANCH  11  14
ATOM     14  C13 <0> d          -0.155   2.803  -5.777  0.00  0.00     0.005 A 
ATOM     15  C18 <0> d          -1.171   3.421  -6.482  0.00  0.00     0.050 A 
ATOM     16  C17 <0> d          -0.885   4.101  -7.655  0.00  0.00     0.101 A 
ATOM     17  C16 <0> d           0.425   4.160  -8.121  0.00  0.00     0.099 A 
ATOM     18  C15 <0> d           1.438   3.539  -7.409  0.00  0.00     0.040 A 
ATOM     19  C14 <0> d           1.148   2.866  -6.237  0.00  0.00     0.014 A 
BRANCH  16  20
ATOM     20  O2  <0> d          -1.883   4.710  -8.351  0.00  0.00    -0.353 OA
ATOM     21  C19 <0> d          -3.204   4.607  -7.814  0.00  0.00     0.210 C 
ENDBRANCH  16  20
BRANCH  17  22
ATOM     22  O3  <0> d           0.710   4.827  -9.271  0.00  0.00    -0.358 OA
ATOM     23  H27 <0> d          -0.096   5.320  -9.835  0.00  0.00     0.217 HD
ENDBRANCH  17  22
ENDBRANCH  11  14
BRANCH   1  24
ATOM     24  C2  <0> d          -0.019   1.526   0.010  0.00  0.00    -0.010 C 
ATOM     25  C1  <0> d          -0.966   2.082   1.076  0.00  0.00     0.010 C 
ATOM     26  C3  <0> d          -0.155   0.003  -0.049  0.00  0.00     0.010 C 
ENDBRANCH   1  24
BRANCH   7  27
ATOM     27  O1  <0> d           1.193   3.771  -0.591  0.00  0.00    -0.394 OA
ATOM     28  H16 <0> d           1.586   4.784  -0.417  0.00  0.00     0.210 HD
ENDBRANCH   7  27
TORSDOF 5
