REMARK  2 active torsions:
REMARK  status: ('A' for Active; 'I' for Inactive)
REMARK    1  A    between atoms: C3_3  and  C12_15 
REMARK    2  A    between atoms: N1_6  and  C6_9 
ROOT
ATOM      1  C1  <0> d           0.412   1.164  -0.564  0.00  0.00     0.029 C 
ATOM      2  C2  <0> d           0.059  -0.296  -0.271  0.00  0.00     0.091 C 
ATOM      3  C3  <0> d          -1.406  -0.425   0.213  0.00  0.00     0.138 C 
ATOM      4  C4  <0> d          -1.250  -0.386   1.723  0.00  0.00     0.247 C 
ATOM      5  O1  <0> d          -2.139  -0.203   2.527  0.00  0.00    -0.271 OA
ATOM      6  N1  <0> d           0.049  -0.589   2.010  0.00  0.00    -0.243 N 
ATOM      7  N2  <0> d           0.814  -0.799   0.900  0.00  0.00    -0.221 NA
ATOM      8  C5  <0> d           1.137  -2.223   0.745  0.00  0.00     0.137 C 
ENDROOT
BRANCH   3   9
ATOM      9  C12 <0> d          -2.249   0.752  -0.282  0.00  0.00     0.286 C 
ATOM     10  N5  <0> d          -1.704   2.012   0.251  0.00  0.00     0.095 N 
ATOM     11  C17 <0> d          -2.349   3.181  -0.364  0.00  0.00     0.276 C 
ATOM     12  H21 <0> d          -1.783   2.043   1.257  0.00  0.00     0.316 HD
ATOM     13  C16 <0> d          -1.889   3.315  -1.823  0.00  0.00     0.089 C 
ATOM     14  C14 <0> d          -2.035   1.966  -2.479  0.00  0.00     0.036 A 
ATOM     15  C13 <0> d          -2.199   0.814  -1.789  0.00  0.00     0.067 A 
ATOM     16  N3  <0> d          -2.036   1.646  -3.799  0.00  0.00    -0.354 N 
ATOM     17  N4  <0> d          -2.300  -0.182  -2.670  0.00  0.00    -0.352 N 
ATOM     18  C15 <0> d          -2.204   0.305  -3.880  0.00  0.00     0.181 A 
ATOM     19  H22 <0> d          -2.425  -1.118  -2.448  0.00  0.00     0.166 HD
ATOM     20  H4  <0> d          -1.937   2.261  -4.542  0.00  0.00     0.166 HD
ENDBRANCH   3   9
BRANCH   6  21
ATOM     21  C6  <0> d           0.562  -0.585   3.312  0.00  0.00     0.054 A 
ATOM     22  C11 <0> d          -0.078  -1.302   4.314  0.00  0.00     0.031 A 
ATOM     23  C10 <0> d           0.434  -1.302   5.597  0.00  0.00     0.002 A 
ATOM     24  C9  <0> d           1.577  -0.578   5.886  0.00  0.00     0.000 A 
ATOM     25  C8  <0> d           2.213   0.141   4.892  0.00  0.00     0.002 A 
ATOM     26  C7  <0> d           1.710   0.140   3.606  0.00  0.00     0.031 A 
ENDBRANCH   6  21
TORSDOF 2
