REMARK  6 active torsions:
REMARK  status: ('A' for Active; 'I' for Inactive)
REMARK    1  A    between atoms: C2_2  and  C3_4 
REMARK    2  A    between atoms: C3_4  and  C4_5 
REMARK    3  A    between atoms: C4_5  and  S1_7 
REMARK    4  A    between atoms: S1_7  and  C5_8 
REMARK    5  A    between atoms: C5_8  and  C6_9 
REMARK    6  A    between atoms: C8_12  and  C9_14 
ROOT
ATOM      1  C3  <0> d          -0.196  -0.732  -1.235  0.00  0.00     0.122 C 
ATOM      2  C15 <0> d          -0.061   0.031  -2.439  0.00  0.00     0.106 C 
ATOM      3  N3  <0> d           0.047   0.637  -3.394  0.00  0.00    -0.191 NA
ENDROOT
BRANCH   1   4
ATOM      4  C2  <0> d          -0.650  -0.113  -0.057  0.00  0.00     0.169 C 
ATOM      5  C1  <0> d          -0.861   1.379  -0.023  0.00  0.00     0.097 C 
ATOM      6  O1  <0> d          -0.873  -0.781   0.934  0.00  0.00    -0.292 OA
ENDBRANCH   1   4
BRANCH   1   7
ATOM      7  C4  <0> d           0.125  -2.098  -1.231  0.00  0.00     0.088 C 
ATOM      8  N1  <0> d           0.146  -2.790  -0.056  0.00  0.00    -0.392 N 
ATOM      9  H4  <0> d           0.002  -2.326   0.783  0.00  0.00     0.156 HD
ATOM     10  H5  <0> d           0.304  -3.747  -0.059  0.00  0.00     0.156 HD
BRANCH   7  11
ATOM     11  S1  <0> d           0.479  -2.872  -2.656  0.00  0.00    -0.105 SA
BRANCH  11  12
ATOM     12  C5  <0> d           0.820  -4.582  -2.154  0.00  0.00     0.140 C 
BRANCH  12  13
ATOM     13  C6  <0> d           1.161  -5.404  -3.371  0.00  0.00     0.052 A 
ATOM     14  N2  <0> d           2.407  -5.503  -3.769  0.00  0.00    -0.244 NA
ATOM     15  C8  <0> d           2.735  -6.224  -4.833  0.00  0.00     0.108 A 
ATOM     16  S2  <0> d           1.133  -6.825  -5.351  0.00  0.00    -0.079 SA
ATOM     17  C7  <0> d           0.176  -6.038  -4.061  0.00  0.00     0.080 A 
BRANCH  15  18
ATOM     18  C9  <0> d           4.065  -6.462  -5.432  0.00  0.00    -0.000 A 
ATOM     19  C14 <0> d           4.188  -7.258  -6.571  0.00  0.00     0.016 A 
ATOM     20  C13 <0> d           5.431  -7.472  -7.129  0.00  0.00     0.024 A 
ATOM     21  C12 <0> d           6.558  -6.908  -6.554  0.00  0.00     0.034 A 
ATOM     22  C11 <0> d           6.442  -6.121  -5.420  0.00  0.00     0.024 A 
ATOM     23 Cl1  <0> d           8.120  -7.187  -7.257  0.00  0.00    -0.084 Cl
ATOM     24  C10 <0> d           5.204  -5.895  -4.857  0.00  0.00     0.016 A 
ENDBRANCH  15  18
ENDBRANCH  12  13
ENDBRANCH  11  12
ENDBRANCH   7  11
ENDBRANCH   1   7
TORSDOF 6
