REMARK  4 active torsions:
REMARK  status: ('A' for Active; 'I' for Inactive)
REMARK    1  A    between atoms: C5_5  and  C9_9 
REMARK    2  A    between atoms: C11_11  and  C18_26 
REMARK    3  A    between atoms: C14_16  and  C15_18 
REMARK       I    between atoms: C15_18  and  N4_20 
REMARK    4  A    between atoms: N4_20  and  N5_21 
ROOT
ATOM      1  C9  <0> d          -0.016   1.316   0.009  0.00  0.00     0.071 A 
ATOM      2  C10 <0> d           1.198   2.041   0.002  0.00  0.00     0.069 A 
ATOM      3  C11 <0> d           2.371   1.369  -0.014  0.00  0.00     0.146 A 
ATOM      4  N1  <0> d           2.358   0.001  -0.021  0.00  0.00    -0.210 N 
ATOM      5  C12 <0> d           1.162  -0.673  -0.013  0.00  0.00     0.154 A 
ATOM      6  N2  <0> d           0.002  -0.004   0.002  0.00  0.00    -0.229 NA
ATOM      7  C13 <0> d           1.456  -2.029  -0.022  0.00  0.00     0.091 A 
ATOM      8  C14 <0> d           2.849  -2.158  -0.036  0.00  0.00     0.150 A 
ATOM      9  N3  <0> d           3.387  -0.949  -0.035  0.00  0.00    -0.160 NA
ENDROOT
BRANCH   8  10
ATOM     10  C15 <0> d           3.597  -3.434  -0.050  0.00  0.00     0.290 C 
ATOM     11  O1  <0> d           2.995  -4.491  -0.049  0.00  0.00    -0.264 OA
ATOM     12  N4  <0> d           4.944  -3.426  -0.062  0.00  0.00    -0.256 N 
ATOM     13  H12 <0> d           5.424  -2.583  -0.062  0.00  0.00     0.191 HD
BRANCH  12  14
ATOM     14  N5  <0> d           5.652  -4.635  -0.075  0.00  0.00    -0.237 N 
ATOM     15  C17 <0> d           6.998  -4.791  -0.088  0.00  0.00     0.258 A 
ATOM     16  N7  <0> d           7.240  -6.073  -0.097  0.00  0.00    -0.142 NA
ATOM     17  N6  <0> d           6.131  -6.723  -0.090  0.00  0.00    -0.142 NA
ATOM     18  C16 <0> d           5.130  -5.885  -0.070  0.00  0.00     0.258 A 
ENDBRANCH  12  14
ENDBRANCH   8  10
BRANCH   3  19
ATOM     19  C18 <0> d           3.678   2.119  -0.023  0.00  0.00     0.434 C 
ATOM     20  F1  <0> d           4.070   2.358  -1.344  0.00  0.00    -0.165 F 
ATOM     21  F2  <0> d           3.521   3.339   0.645  0.00  0.00    -0.165 F 
ATOM     22  F3  <0> d           4.657   1.357   0.624  0.00  0.00    -0.165 F 
ENDBRANCH   3  19
BRANCH   1  23
ATOM     23  C5  <0> d          -1.309   2.038   0.019  0.00  0.00    -0.007 A 
ATOM     24  C4  <0> d          -1.335   3.429  -0.078  0.00  0.00     0.014 A 
ATOM     25  C3  <0> d          -2.542   4.097  -0.069  0.00  0.00     0.008 A 
ATOM     26  C2  <0> d          -3.727   3.388   0.037  0.00  0.00    -0.056 A 
ATOM     27  C1  <0> d          -5.042   4.123   0.046  0.00  0.00     0.049 C 
ATOM     28  C7  <0> d          -3.708   2.009   0.134  0.00  0.00    -0.055 A 
ATOM     29  C6  <0> d          -2.506   1.330   0.120  0.00  0.00     0.021 A 
ATOM     30  C8  <0> d          -5.002   1.245   0.250  0.00  0.00     0.049 C 
ENDBRANCH   1  23
TORSDOF 4
