REMARK  4 active torsions:
REMARK  status: ('A' for Active; 'I' for Inactive)
REMARK    1  A    between atoms: C2_2  and  C3_3 
REMARK    2  A    between atoms: C7_7  and  C9_9 
REMARK    3  A    between atoms: C9_9  and  C10_10 
REMARK    4  A    between atoms: C9_9  and  O2_15 
ROOT
ATOM      1  C3  <0> d           0.707  -0.490  -1.238  0.00  0.00    -0.057 A 
ATOM      2  C4  <0> d          -0.010  -0.719  -2.400  0.00  0.00     0.017 A 
ATOM      3  C5  <0> d           0.638  -1.163  -3.530  0.00  0.00    -0.021 A 
ATOM      4  C6  <0> d           2.009  -1.386  -3.523  0.00  0.00     0.050 A 
ATOM      5  C7  <0> d           2.724  -1.154  -2.350  0.00  0.00     0.001 A 
ATOM      6  C8  <0> d           2.074  -0.703  -1.220  0.00  0.00     0.019 A 
ATOM      7  N1  <0> d           2.433  -1.829  -4.776  0.00  0.00    -0.326 N 
ATOM      8  C14 <0> d           1.417  -1.924  -5.652  0.00  0.00     0.226 A 
ATOM      9  O3  <0> d           1.494  -2.281  -6.808  0.00  0.00    -0.273 OA
ATOM     10  C15 <0> d           0.160  -1.500  -4.923  0.00  0.00     0.144 A 
ATOM     11  H17 <0> d           3.354  -2.044  -4.991  0.00  0.00     0.169 HD
ENDROOT
BRANCH   5  12
ATOM     12  C9  <0> d           4.213  -1.389  -2.317  0.00  0.00     0.182 C 
BRANCH  12  13
ATOM     13  C10 <0> d           4.937  -0.144  -2.832  0.00  0.00     0.154 C 
ATOM     14  O1  <0> d           4.555   0.997  -2.054  0.00  0.00    -0.383 OA
ATOM     15  C13 <0> d           5.707   1.537  -1.381  0.00  0.00     0.168 C 
ATOM     16  C12 <0> d           6.920   1.091  -2.235  0.00  0.00     0.029 C 
ATOM     17  C11 <0> d           6.463  -0.325  -2.680  0.00  0.00     0.037 C 
ENDBRANCH  12  13
BRANCH  12  18
ATOM     18  O2  <0> d           4.623  -1.658  -0.975  0.00  0.00    -0.388 OA
ATOM     19  H16 <0> d           4.434  -0.941  -0.354  0.00  0.00     0.210 HD
ENDBRANCH  12  18
ENDBRANCH   5  12
BRANCH   1  20
ATOM     20  C2  <0> d           0.002  -0.004   0.002  0.00  0.00     0.034 C 
ATOM     21  C1  <0> d          -0.019   1.526   0.010  0.00  0.00     0.010 C 
ENDBRANCH   1  20
TORSDOF 4
