REMARK  4 active torsions:
REMARK  status: ('A' for Active; 'I' for Inactive)
REMARK    1  A    between atoms: C3_3  and  C5_6 
REMARK    2  A    between atoms: N2_10  and  C9_11 
REMARK    3  A    between atoms: C9_11  and  C10_12 
REMARK       I    between atoms: C10_12  and  N3_14 
REMARK    4  A    between atoms: N3_14  and  C11_15 
ROOT
ATOM      1  C5  <0> d           3.562   0.588  -0.589  0.00  0.00     0.221 C 
ATOM      2  C6  <0> d           4.148  -0.496  -1.517  0.00  0.00     0.037 C 
ATOM      3  C7  <0> d           4.801   0.332  -2.654  0.00  0.00     0.030 C 
ATOM      4  C8  <0> d           5.332   1.563  -1.879  0.00  0.00     0.236 C 
ATOM      5  N2  <0> d           4.303   1.836  -0.848  0.00  0.00    -0.056 N 
ATOM      6  H26 <0> d           3.668   2.546  -1.181  0.00  0.00     0.281 HD
ENDROOT
BRANCH   5   7
ATOM      7  C9  <0> d           4.948   2.294   0.390  0.00  0.00     0.337 C 
BRANCH   7   8
ATOM      8  C10 <0> d           5.601   3.631   0.151  0.00  0.00     0.243 C 
ATOM      9  O1  <0> d           5.536   4.151  -0.942  0.00  0.00    -0.272 OA
ATOM     10  N3  <0> d           6.257   4.249   1.153  0.00  0.00    -0.354 N 
ATOM     11  H19 <0> d           6.309   3.833   2.028  0.00  0.00     0.162 HD
BRANCH  10  12
ATOM     12  C11 <0> d           6.892   5.549   0.921  0.00  0.00     0.099 C 
ATOM     13  C14 <0> d           7.010   6.323   2.265  0.00  0.00     0.165 C 
ATOM     14  S1  <0> d           8.320   7.546   1.836  0.00  0.00     0.146 S 
ATOM     15  C13 <0> d           9.098   6.673   0.416  0.00  0.00     0.142 C 
ATOM     16  O2  <0> d           7.705   8.737   1.366  0.00  0.00    -0.228 OA
ATOM     17  O3  <0> d           9.255   7.616   2.904  0.00  0.00    -0.228 OA
ATOM     18  C12 <0> d           8.310   5.342   0.362  0.00  0.00     0.041 C 
ENDBRANCH  10  12
ENDBRANCH   7   8
ENDBRANCH   5   7
BRANCH   1  19
ATOM     19  C3  <0> d           2.077   0.791  -0.898  0.00  0.00     0.251 C 
ATOM     20  C2  <0> d           1.488   1.909  -0.002  0.00  0.00     0.039 C 
ATOM     21  C1  <0> d          -0.019   1.539   0.011  0.00  0.00     0.032 C 
ATOM     22  C4  <0> d           0.002  -0.004   0.002  0.00  0.00     0.270 C 
ATOM     23  N1  <0> d           1.306  -0.420  -0.547  0.00  0.00     0.090 N 
ATOM     24  H8  <0> d           1.186  -1.018  -1.351  0.00  0.00     0.316 HD
ENDBRANCH   1  19
TORSDOF 4
