REMARK  6 active torsions:
REMARK  status: ('A' for Active; 'I' for Inactive)
REMARK    1  A    between atoms: C2_2  and  C3_3 
REMARK    2  A    between atoms: N1_6  and  N3_10 
REMARK       I    between atoms: N3_10  and  C6_11 
REMARK    3  A    between atoms: C6_11  and  C7_13 
REMARK    4  A    between atoms: C7_13  and  S1_14 
REMARK    5  A    between atoms: S1_14  and  C8_15 
REMARK    6  A    between atoms: C9_18  and  C10_20 
ROOT
ATOM      1  S1  <0> d          -5.563  -5.990  -1.865  0.00  0.00    -0.105 SA
ENDROOT
BRANCH   1   2
ATOM      2  C7  <0> d          -3.826  -5.546  -2.147  0.00  0.00     0.182 C 
BRANCH   2   3
ATOM      3  C6  <0> d          -3.573  -4.155  -1.626  0.00  0.00     0.246 C 
ATOM      4  N3  <0> d          -2.344  -3.611  -1.728  0.00  0.00    -0.256 N 
ATOM      5  H8  <0> d          -1.623  -4.115  -2.136  0.00  0.00     0.191 HD
ATOM      6  O3  <0> d          -4.475  -3.525  -1.116  0.00  0.00    -0.271 OA
BRANCH   4   7
ATOM      7  N1  <0> d          -2.108  -2.317  -1.245  0.00  0.00    -0.167 N 
ATOM      8  C4  <0> d          -1.445  -2.045  -0.103  0.00  0.00     0.275 A 
ATOM      9  C3  <0> d          -1.433  -0.534   0.013  0.00  0.00     0.114 A 
ATOM     10  O1  <0> d          -0.960  -2.843   0.670  0.00  0.00    -0.268 OA
ATOM     11  N2  <0> d          -2.159  -0.088  -1.189  0.00  0.00    -0.323 N 
ATOM     12  C18 <0> d          -2.162  -0.082   1.280  0.00  0.00     0.049 C 
ATOM     13  C5  <0> d          -2.513  -1.200  -1.859  0.00  0.00     0.345 A 
ATOM     14  H7  <0> d          -2.346   0.828  -1.447  0.00  0.00     0.165 HD
ATOM     15  O2  <0> d          -3.131  -1.190  -2.906  0.00  0.00    -0.245 OA
BRANCH   9  16
ATOM     16  C2  <0> d           0.002  -0.004   0.002  0.00  0.00     0.036 C 
ATOM     17  C1  <0> d          -0.019   1.526   0.010  0.00  0.00     0.008 C 
ENDBRANCH   9  16
ENDBRANCH   4   7
ENDBRANCH   2   3
ENDBRANCH   1   2
BRANCH   1  18
ATOM     18  C8  <0> d          -5.701  -7.669  -2.538  0.00  0.00     0.311 A 
ATOM     19  O4  <0> d          -4.758  -8.542  -1.903  0.00  0.00    -0.296 OA
ATOM     20  C9  <0> d          -3.919  -9.012  -2.862  0.00  0.00     0.195 A 
ATOM     21  N5  <0> d          -4.215  -8.543  -4.045  0.00  0.00    -0.150 NA
ATOM     22  N4  <0> d          -5.322  -7.685  -3.961  0.00  0.00    -0.273 N 
ATOM     23  H11 <0> d          -5.748  -7.205  -4.688  0.00  0.00     0.186 HD
BRANCH  20  24
ATOM     24  C10 <0> d          -2.861  -9.897  -2.613  0.00  0.00     0.026 A 
ATOM     25  C17 <0> d          -2.455 -10.484  -1.279  0.00  0.00     0.164 A 
ATOM     26  N6  <0> d          -1.300 -11.345  -1.550  0.00  0.00    -0.385 N 
ATOM     27  C16 <0> d          -1.018 -11.303  -2.838  0.00  0.00     0.039 A 
ATOM     28  H21 <0> d          -0.817 -11.862  -0.887  0.00  0.00     0.160 HD
ATOM     29  C11 <0> d          -1.959 -10.417  -3.542  0.00  0.00     0.003 A 
ATOM     30  C15 <0> d          -0.006 -11.944  -3.599  0.00  0.00     0.030 A 
ATOM     31  C12 <0> d          -1.819 -10.242  -4.935  0.00  0.00     0.014 A 
ATOM     32  C13 <0> d          -0.826 -10.888  -5.599  0.00  0.00     0.001 A 
ATOM     33  C14 <0> d           0.070 -11.730  -4.935  0.00  0.00     0.002 A 
ENDBRANCH  20  24
ENDBRANCH   1  18
TORSDOF 6
