REMARK  4 active torsions:
REMARK  status: ('A' for Active; 'I' for Inactive)
REMARK    1  A    between atoms: C2_2  and  C3_3 
REMARK    2  A    between atoms: C2_2  and  N4_23 
REMARK       I    between atoms: C3_3  and  N1_5 
REMARK    3  A    between atoms: N1_5  and  C4_6 
REMARK    4  A    between atoms: C7_9  and  C10_12 
ROOT
ATOM      1  C4  <0> d          -3.579  -0.600   1.046  0.00  0.00     0.034 A 
ATOM      2  C5  <0> d          -4.079  -1.413   0.035  0.00  0.00     0.030 A 
ATOM      3  C6  <0> d          -5.403  -1.792   0.044  0.00  0.00     0.017 A 
ATOM      4  C7  <0> d          -6.244  -1.360   1.072  0.00  0.00     0.010 A 
ATOM      5  C8  <0> d          -5.739  -0.544   2.087  0.00  0.00     0.017 A 
ATOM      6  C9  <0> d          -4.413  -0.173   2.074  0.00  0.00     0.030 A 
ENDROOT
BRANCH   1   7
ATOM      7  N1  <0> d          -2.236  -0.217   1.033  0.00  0.00    -0.325 N 
ATOM      8  C3  <0> d          -1.616   0.025  -0.139  0.00  0.00     0.245 C 
ATOM      9  O1  <0> d          -2.198  -0.171  -1.185  0.00  0.00    -0.271 OA
ATOM     10  H6  <0> d          -1.750  -0.125   1.867  0.00  0.00     0.169 HD
BRANCH   8  11
ATOM     11  C2  <0> d          -0.199   0.538  -0.149  0.00  0.00     0.178 C 
ATOM     12  C1  <0> d          -0.137   1.879   0.585  0.00  0.00     0.043 C 
BRANCH  11  13
ATOM     13  N4  <0> d           0.245   0.719  -1.534  0.00  0.00    -0.338 N 
ATOM     14  C19 <0> d           1.292   0.105  -2.126  0.00  0.00     0.183 A 
ATOM     15  N5  <0> d           1.373   0.517  -3.362  0.00  0.00    -0.361 N 
ATOM     16  C18 <0> d           0.396   1.405  -3.598  0.00  0.00     0.106 A 
ATOM     17  H17 <0> d           2.038   0.228  -4.007  0.00  0.00     0.166 HD
ATOM     18  C17 <0> d          -0.321   1.545  -2.467  0.00  0.00     0.109 A 
ENDBRANCH  11  13
ENDBRANCH   8  11
ENDBRANCH   1   7
BRANCH   4  19
ATOM     19  C10 <0> d          -7.665  -1.765   1.086  0.00  0.00     0.139 A 
ATOM     20  N3  <0> d          -8.241  -2.525   0.186  0.00  0.00    -0.227 NA
ATOM     21  C16 <0> d          -9.547  -2.700   0.506  0.00  0.00     0.107 A 
ATOM     22  C11 <0> d          -9.784  -1.980   1.690  0.00  0.00     0.064 A 
ATOM     23  C15 <0> d         -10.597  -3.405  -0.092  0.00  0.00     0.065 A 
ATOM     24  N2  <0> d          -8.580  -1.399   2.036  0.00  0.00    -0.338 N 
ATOM     25  C12 <0> d         -11.053  -1.974   2.255  0.00  0.00     0.032 A 
ATOM     26  H2  <0> d          -8.413  -0.836   2.808  0.00  0.00     0.167 HD
ATOM     27  C13 <0> d         -12.076  -2.675   1.652  0.00  0.00     0.004 A 
ATOM     28  C14 <0> d         -11.848  -3.388   0.483  0.00  0.00     0.026 A 
ATOM     29 Cl1  <0> d         -10.324  -4.300  -1.555  0.00  0.00    -0.082 Cl
ENDBRANCH   4  19
TORSDOF 4
