REMARK  6 active torsions:
REMARK  status: ('A' for Active; 'I' for Inactive)
REMARK    1  A    between atoms: C3_3  and  O3_21 
REMARK    2  A    between atoms: C6_7  and  C7_8 
REMARK    3  A    between atoms: C7_8  and  S1_9 
REMARK    4  A    between atoms: S1_9  and  C8_11 
REMARK    5  A    between atoms: O3_21  and  C15_22 
REMARK    6  A    between atoms: C15_22  and  C16_23 
ROOT
ATOM      1  C1  <0> d          -0.018   1.503   0.010  0.00  0.00     0.053 C 
ATOM      2  C2  <0> d           0.002  -0.004   0.002  0.00  0.00    -0.005 A 
ATOM      3  C3  <0> d           0.006  -0.703  -1.202  0.00  0.00     0.078 A 
ATOM      4  C4  <0> d           0.026  -2.095  -1.158  0.00  0.00     0.054 A 
ATOM      5  C5  <0> d           0.040  -2.727   0.069  0.00  0.00     0.091 A 
ATOM      6  N1  <0> d           0.036  -2.029   1.189  0.00  0.00    -0.368 N 
ATOM      7  C6  <0> d           0.023  -0.710   1.187  0.00  0.00     0.029 A 
ATOM      8  H14 <0> d           0.047  -2.500   2.037  0.00  0.00     0.165 HD
ENDROOT
BRANCH   7   9
ATOM      9  C7  <0> d           0.025   0.036   2.497  0.00  0.00     0.175 C 
BRANCH   9  10
ATOM     10  S1  <0> d          -1.684   0.312   3.039  0.00  0.00     0.093 S 
ATOM     11  O1  <0> d          -2.309   1.251   2.175  0.00  0.00    -0.249 OA
BRANCH  10  12
ATOM     12  C8  <0> d          -1.513   1.182   4.561  0.00  0.00     0.220 A 
ATOM     13  N3  <0> d          -0.962   0.666   5.658  0.00  0.00    -0.219 NA
ATOM     14  C14 <0> d          -0.981   1.570   6.624  0.00  0.00     0.088 A 
ATOM     15  C9  <0> d          -1.628   2.759   6.037  0.00  0.00     0.087 A 
ATOM     16  C13 <0> d          -0.524   1.575   8.015  0.00  0.00     0.033 A 
ATOM     17  N2  <0> d          -1.919   2.411   4.754  0.00  0.00    -0.219 NA
ATOM     18  C10 <0> d          -1.810   3.876   6.777  0.00  0.00     0.046 A 
ATOM     19  C11 <0> d          -1.341   3.888   8.214  0.00  0.00     0.208 A 
ATOM     20  C12 <0> d          -0.683   2.654   8.780  0.00  0.00     0.014 A 
ATOM     21  O2  <0> d          -2.473   4.186   9.033  0.00  0.00    -0.227 OA
ENDBRANCH  10  12
ENDBRANCH   9  10
ENDBRANCH   7   9
BRANCH   3  22
ATOM     22  O3  <0> d          -0.009  -0.045  -2.389  0.00  0.00    -0.342 OA
BRANCH  22  23
ATOM     23  C15 <0> d          -0.004  -0.844  -3.574  0.00  0.00     0.293 C 
BRANCH  23  24
ATOM     24  C16 <0> d          -0.023   0.067  -4.804  0.00  0.00     0.408 C 
ATOM     25  F1  <0> d           1.108   0.891  -4.791  0.00  0.00    -0.169 F 
ATOM     26  F2  <0> d          -0.018  -0.715  -5.964  0.00  0.00    -0.169 F 
ATOM     27  F3  <0> d          -1.177   0.858  -4.780  0.00  0.00    -0.169 F 
ENDBRANCH  23  24
ENDBRANCH  22  23
ENDBRANCH   3  22
TORSDOF 6
