REMARK  6 active torsions:
REMARK  status: ('A' for Active; 'I' for Inactive)
REMARK    1  A    between atoms: C2_2  and  O1_3 
REMARK    2  A    between atoms: O1_3  and  C3_4 
REMARK    3  A    between atoms: C3_4  and  C4_6 
REMARK    4  A    between atoms: C5_7  and  N1_30 
REMARK    5  A    between atoms: C8_11  and  C9_12 
REMARK    6  A    between atoms: C18_22  and  C20_24 
ROOT
ATOM      1  C4  <0> d          -1.211   2.988   0.133  0.00  0.00     0.081 C 
ATOM      2  C5  <0> d          -1.207   1.632   0.041  0.00  0.00     0.154 C 
ATOM      3  O3  <0> d          -2.350   0.937  -0.059  0.00  0.00    -0.297 OA
ATOM      4  C6  <0> d          -3.506   1.487   0.356  0.00  0.00     0.067 C 
ATOM      5  C7  <0> d          -3.652   2.821   0.455  0.00  0.00     0.031 C 
ATOM      6  C8  <0> d          -2.508   3.747   0.118  0.00  0.00     0.101 C 
ATOM      7  C16 <0> d          -4.867   3.396   0.876  0.00  0.00     0.159 C 
ATOM      8  O4  <0> d          -4.955   4.604   0.968  0.00  0.00    -0.293 OA
ATOM      9  C17 <0> d          -6.059   2.541   1.213  0.00  0.00     0.093 C 
ATOM     10  C18 <0> d          -5.979   1.240   0.406  0.00  0.00     0.032 C 
ATOM     11  C19 <0> d          -4.644   0.560   0.714  0.00  0.00     0.075 C 
ENDROOT
BRANCH   6  12
ATOM     12  C9  <0> d          -2.731   4.338  -1.250  0.00  0.00    -0.045 A 
ATOM     13  C14 <0> d          -2.836   5.708  -1.402  0.00  0.00     0.009 A 
ATOM     14  C13 <0> d          -3.040   6.251  -2.657  0.00  0.00     0.007 A 
ATOM     15  C12 <0> d          -3.139   5.423  -3.760  0.00  0.00    -0.062 A 
ATOM     16  C11 <0> d          -3.033   4.053  -3.608  0.00  0.00     0.007 A 
ATOM     17  C15 <0> d          -3.362   6.015  -5.128  0.00  0.00     0.048 C 
ATOM     18  C10 <0> d          -2.824   3.511  -2.354  0.00  0.00     0.009 A 
ENDBRANCH   6  12
BRANCH   1  19
ATOM     19  C3  <0> d           0.004   3.683   0.238  0.00  0.00     0.294 C 
ATOM     20  O2  <0> d           1.060   3.085   0.133  0.00  0.00    -0.259 OA
BRANCH  19  21
ATOM     21  O1  <0> d           0.002   5.016   0.455  0.00  0.00    -0.318 OA
BRANCH  21  22
ATOM     22  C2  <0> d           1.274   5.660   0.551  0.00  0.00     0.174 C 
ATOM     23  C1  <0> d           1.071   7.157   0.795  0.00  0.00     0.034 C 
ENDBRANCH  21  22
ENDBRANCH  19  21
ENDBRANCH   1  19
BRANCH   2  24
ATOM     24  N1  <0> d          -0.013   0.962   0.056  0.00  0.00    -0.379 N 
ATOM     25  H24 <0> d           0.002  -0.135  -0.018  0.00  0.00     0.158 HD
ATOM     26  H25 <0> d           0.930   1.521   0.141  0.00  0.00     0.158 HD
ENDBRANCH   2  24
BRANCH  10  27
ATOM     27  C20 <0> d          -7.114   0.330   0.800  0.00  0.00    -0.053 A 
ATOM     28  C25 <0> d          -8.022  -0.094  -0.152  0.00  0.00     0.007 A 
ATOM     29  C24 <0> d          -9.063  -0.929   0.209  0.00  0.00     0.001 A 
ATOM     30  C23 <0> d          -9.195  -1.340   1.522  0.00  0.00     0.000 A 
ATOM     31  C22 <0> d          -8.287  -0.917   2.474  0.00  0.00     0.001 A 
ATOM     32  C21 <0> d          -7.243  -0.086   2.112  0.00  0.00     0.007 A 
ENDBRANCH  10  27
TORSDOF 6
