REMARK  6 active torsions:
REMARK  status: ('A' for Active; 'I' for Inactive)
REMARK    1  A    between atoms: C4_4  and  C7_7 
REMARK    2  A    between atoms: C8_8  and  C16_18 
REMARK    3  A    between atoms: N1_10  and  C10_12 
REMARK    4  A    between atoms: C16_18  and  N3_19 
REMARK    5  A    between atoms: N3_19  and  N4_20 
REMARK    6  A    between atoms: C17_21  and  C19_26 
ROOT
ATOM      1  C7  <0> d           3.280  -0.718   0.085  0.00  0.00     0.146 A 
ATOM      2  C8  <0> d           3.834  -1.225   1.400  0.00  0.00     0.002 A 
ATOM      3  C9  <0> d           4.083  -2.534   1.227  0.00  0.00     0.121 A 
ATOM      4  N1  <0> d           3.759  -2.941  -0.041  0.00  0.00    -0.287 N 
ATOM      5  N2  <0> d           3.271  -1.907  -0.790  0.00  0.00    -0.220 NA
ATOM      6  H9  <0> d           2.338  -2.107  -1.119  0.00  0.00     0.148 HD
ENDROOT
BRANCH   2   7
ATOM      7  C16 <0> d           4.048  -0.468   2.580  0.00  0.00     0.149 C 
BRANCH   7   8
ATOM      8  N3  <0> d           4.534  -1.043   3.644  0.00  0.00    -0.179 NA
BRANCH   8   9
ATOM      9  N4  <0> d           4.838  -0.277   4.777  0.00  0.00    -0.211 N 
ATOM     10  C18 <0> d           4.793   1.068   4.902  0.00  0.00     0.213 A 
ATOM     11  N6  <0> d           5.158   1.433   6.160  0.00  0.00    -0.254 N 
ATOM     12  S1  <0> d           4.340   2.154   3.660  0.00  0.00    -0.037 SA
ATOM     13  N5  <0> d           5.449   0.476   6.883  0.00  0.00    -0.182 NA
ATOM     14  H20 <0> d           5.189   2.355   6.460  0.00  0.00     0.191 HD
ATOM     15  C17 <0> d           5.286  -0.757   6.098  0.00  0.00     0.288 A 
BRANCH  15  16
ATOM     16  C19 <0> d           4.241  -1.648   6.718  0.00  0.00    -0.008 A 
ATOM     17  C23 <0> d           4.100  -1.724   8.095  0.00  0.00     0.028 A 
ATOM     18  C22 <0> d           3.127  -2.548   8.628  0.00  0.00     0.088 A 
ATOM     19  N7  <0> d           2.346  -3.265   7.843  0.00  0.00    -0.375 N 
ATOM     20  C21 <0> d           2.457  -3.223   6.530  0.00  0.00     0.088 A 
ATOM     21  H21 <0> d           1.674  -3.838   8.243  0.00  0.00     0.164 HD
ATOM     22  C20 <0> d           3.403  -2.417   5.925  0.00  0.00     0.028 A 
ENDBRANCH  15  16
ENDBRANCH   8   9
ENDBRANCH   7   8
ENDBRANCH   2   7
BRANCH   1  23
ATOM     23  C4  <0> d           1.881  -0.189   0.271  0.00  0.00    -0.034 A 
ATOM     24  C3  <0> d           1.662   1.174   0.345  0.00  0.00     0.009 A 
ATOM     25  C2  <0> d           0.379   1.659   0.514  0.00  0.00     0.001 A 
ATOM     26  C1  <0> d          -0.685   0.782   0.609  0.00  0.00     0.000 A 
ATOM     27  C6  <0> d          -0.466  -0.581   0.534  0.00  0.00     0.001 A 
ATOM     28  C5  <0> d           0.818  -1.067   0.366  0.00  0.00     0.009 A 
ENDBRANCH   1  23
BRANCH   4  29
ATOM     29  C10 <0> d           3.911  -4.248  -0.510  0.00  0.00     0.050 A 
ATOM     30  C15 <0> d           4.419  -5.234   0.328  0.00  0.00     0.031 A 
ATOM     31  C14 <0> d           4.562  -6.526  -0.138  0.00  0.00     0.002 A 
ATOM     32  C13 <0> d           4.211  -6.837  -1.439  0.00  0.00     0.000 A 
ATOM     33  C12 <0> d           3.711  -5.857  -2.276  0.00  0.00     0.002 A 
ATOM     34  C11 <0> d           3.559  -4.564  -1.816  0.00  0.00     0.031 A 
ENDBRANCH   4  29
TORSDOF 6
