REMARK  4 active torsions:
REMARK  status: ('A' for Active; 'I' for Inactive)
REMARK    1  A    between atoms: C2_2  and  C3_3 
REMARK    2  A    between atoms: C3_3  and  C4_4 
REMARK    3  A    between atoms: C3_3  and  N1_18 
REMARK    4  A    between atoms: C7_7  and  C8_9 
ROOT
ATOM      1  C4  <0> d          -1.187  -2.049   0.143  0.00  0.00     0.014 A 
ATOM      2  C5  <0> d          -1.441  -2.802   1.243  0.00  0.00     0.024 A 
ATOM      3  C6  <0> d          -1.599  -4.164   1.103  0.00  0.00    -0.043 A 
ATOM      4  C7  <0> d          -1.494  -4.713  -0.147  0.00  0.00     0.024 A 
ATOM      5  S1  <0> d          -1.171  -3.275  -1.154  0.00  0.00    -0.091 SA
ATOM      6  C14 <0> d          -1.881  -5.032   2.302  0.00  0.00     0.049 C 
ENDROOT
BRANCH   4   7
ATOM      7  C8  <0> d          -1.621  -6.128  -0.556  0.00  0.00     0.020 A 
ATOM      8  C13 <0> d          -0.670  -6.701  -1.405  0.00  0.00     0.129 A 
ATOM      9  C12 <0> d          -0.792  -8.025  -1.779  0.00  0.00     0.062 A 
ATOM     10  F1  <0> d           0.368  -5.963  -1.855  0.00  0.00    -0.205 F 
ATOM     11  C11 <0> d          -1.859  -8.780  -1.323  0.00  0.00     0.013 A 
ATOM     12  C10 <0> d          -2.807  -8.215  -0.487  0.00  0.00     0.020 A 
ATOM     13 Br1  <0> d          -2.023 -10.590  -1.845  0.00  0.00    -0.051 Br
ATOM     14  C9  <0> d          -2.694  -6.896  -0.101  0.00  0.00     0.017 A 
ENDBRANCH   4   7
BRANCH   1  15
ATOM     15  C3  <0> d          -0.978  -0.560   0.042  0.00  0.00     0.223 C 
BRANCH  15  16
ATOM     16  C2  <0> d           0.520  -0.260  -0.050  0.00  0.00     0.033 C 
ATOM     17  C1  <0> d           0.739   1.254  -0.027  0.00  0.00     0.007 C 
ENDBRANCH  15  16
BRANCH  15  18
ATOM     18  N1  <0> d          -1.654  -0.051  -1.159  0.00  0.00    -0.070 N 
ATOM     19  H14 <0> d          -1.270  -0.501  -1.977  0.00  0.00     0.275 HD
ATOM     20  H15 <0> d          -2.641  -0.249  -1.098  0.00  0.00     0.275 HD
ATOM     21  H16 <0> d          -1.514   0.946  -1.227  0.00  0.00     0.275 HD
ENDBRANCH  15  18
ENDBRANCH   1  15
TORSDOF 4
