REMARK  7 active torsions:
REMARK  status: ('A' for Active; 'I' for Inactive)
REMARK    1  A    between atoms: C7_7  and  C8_8 
REMARK       I    between atoms: C8_8  and  N1_10 
REMARK    2  A    between atoms: N1_10  and  C9_11 
REMARK    3  A    between atoms: C9_11  and  C10_12 
REMARK       I    between atoms: C10_12  and  N2_14 
REMARK    4  A    between atoms: N2_14  and  C11_15 
REMARK    5  A    between atoms: C14_18  and  S1_21 
REMARK    6  A    between atoms: S1_21  and  N3_24 
REMARK    7  A    between atoms: N3_24  and  C17_25 
ROOT
ATOM      1  C11 <0> d           1.179   2.155  -0.522  0.00  0.00     0.034 A 
ATOM      2  C12 <0> d           2.193   1.378   0.023  0.00  0.00     0.031 A 
ATOM      3  C13 <0> d           2.212   0.015  -0.200  0.00  0.00     0.027 A 
ATOM      4  C14 <0> d           1.223  -0.576  -0.964  0.00  0.00     0.080 A 
ATOM      5  C15 <0> d           0.211   0.195  -1.508  0.00  0.00     0.027 A 
ATOM      6  C16 <0> d           0.187   1.559  -1.289  0.00  0.00     0.031 A 
ENDROOT
BRANCH   1   7
ATOM      7  N2  <0> d           1.157   3.536  -0.298  0.00  0.00    -0.326 N 
ATOM      8  C10 <0> d           2.313   4.221  -0.198  0.00  0.00     0.239 C 
ATOM      9  O2  <0> d           3.370   3.659  -0.394  0.00  0.00    -0.271 OA
ATOM     10  H11 <0> d           0.309   4.001  -0.216  0.00  0.00     0.169 HD
BRANCH   8  11
ATOM     11  C9  <0> d           2.293   5.685   0.159  0.00  0.00     0.226 C 
BRANCH  11  12
ATOM     12  N1  <0> d           3.666   6.195   0.205  0.00  0.00    -0.348 N 
ATOM     13  C8  <0> d           3.894   7.489   0.506  0.00  0.00     0.252 C 
ATOM     14  O1  <0> d           2.961   8.233   0.739  0.00  0.00    -0.268 OA
ATOM     15  H8  <0> d           4.410   5.602   0.019  0.00  0.00     0.163 HD
BRANCH  13  16
ATOM     16  C7  <0> d           5.279   8.004   0.553  0.00  0.00     0.037 A 
ATOM     17  C2  <0> d           5.514   9.367   0.738  0.00  0.00    -0.046 A 
ATOM     18  C1  <0> d           4.356  10.319   0.891  0.00  0.00     0.049 C 
ATOM     19  C3  <0> d           6.809   9.841   0.781  0.00  0.00     0.007 A 
ATOM     20  C4  <0> d           7.874   8.968   0.642  0.00  0.00     0.001 A 
ATOM     21  C5  <0> d           7.647   7.615   0.458  0.00  0.00     0.001 A 
ATOM     22  C6  <0> d           6.358   7.128   0.418  0.00  0.00     0.017 A 
ENDBRANCH  13  16
ENDBRANCH  11  12
ENDBRANCH   8  11
ENDBRANCH   1   7
BRANCH   4  23
ATOM     23  S1  <0> d           1.250  -2.315  -1.246  0.00  0.00     0.264 S 
ATOM     24  O3  <0> d           0.521  -2.544  -2.444  0.00  0.00    -0.200 OA
ATOM     25  O4  <0> d           2.599  -2.731  -1.084  0.00  0.00    -0.200 OA
BRANCH  23  26
ATOM     26  N3  <0> d           0.387  -3.023  -0.024  0.00  0.00    -0.258 N 
ATOM     27  H16 <0> d           0.832  -3.607   0.610  0.00  0.00     0.181 HD
BRANCH  26  28
ATOM     28  C17 <0> d          -0.973  -2.780   0.095  0.00  0.00     0.179 A 
ATOM     29  S2  <0> d          -2.092  -3.393   1.273  0.00  0.00    -0.062 SA
ATOM     30  C19 <0> d          -3.554  -2.572   0.655  0.00  0.00     0.072 A 
ATOM     31  C18 <0> d          -3.038  -1.902  -0.403  0.00  0.00     0.126 A 
ATOM     32  N4  <0> d          -1.748  -2.021  -0.655  0.00  0.00    -0.236 NA
ENDBRANCH  26  28
ENDBRANCH  23  26
ENDBRANCH   4  23
TORSDOF 7
