REMARK  4 active torsions:
REMARK  status: ('A' for Active; 'I' for Inactive)
REMARK    1  A    between atoms: C5_5  and  N1_9 
REMARK       I    between atoms: N1_9  and  C9_10 
REMARK    2  A    between atoms: C9_10  and  C10_12 
REMARK    3  A    between atoms: C10_12  and  S1_13 
REMARK    4  A    between atoms: S1_13  and  C11_14 
ROOT
ATOM      1  C10 <0> d          -0.526  -6.390   0.733  0.00  0.00     0.184 C 
ENDROOT
BRANCH   1   2
ATOM      2  C9  <0> d          -0.270  -4.908   0.836  0.00  0.00     0.231 C 
ATOM      3  N1  <0> d          -0.299  -4.141  -0.272  0.00  0.00    -0.326 N 
ATOM      4  H10 <0> d          -0.421  -4.551  -1.143  0.00  0.00     0.169 HD
ATOM      5  O1  <0> d          -0.036  -4.407   1.915  0.00  0.00    -0.272 OA
BRANCH   3   6
ATOM      6  C5  <0> d          -0.155  -2.753  -0.166  0.00  0.00     0.046 A 
ATOM      7  C4  <0> d           0.982  -2.215   0.423  0.00  0.00    -0.034 A 
ATOM      8  C3  <0> d           1.121  -0.844   0.526  0.00  0.00     0.015 A 
ATOM      9  C19 <0> d           2.062  -3.124   0.949  0.00  0.00     0.050 C 
ATOM     10  C2  <0> d           0.130  -0.009   0.043  0.00  0.00    -0.061 A 
ATOM     11  C1  <0> d           0.286   1.486   0.157  0.00  0.00     0.048 C 
ATOM     12  C7  <0> d          -1.005  -0.542  -0.539  0.00  0.00     0.015 A 
ATOM     13  C6  <0> d          -1.148  -1.911  -0.649  0.00  0.00    -0.034 A 
ATOM     14  C8  <0> d          -2.383  -2.491  -1.289  0.00  0.00     0.050 C 
ENDBRANCH   3   6
ENDBRANCH   1   2
BRANCH   1  15
ATOM     15  S1  <0> d          -0.418  -7.138   2.382  0.00  0.00    -0.100 SA
BRANCH  15  16
ATOM     16  C11 <0> d          -0.738  -8.847   2.096  0.00  0.00     0.107 A 
ATOM     17  N3  <0> d          -0.981  -9.280   0.867  0.00  0.00    -0.187 NA
ATOM     18  C14 <0> d          -1.218 -10.570   0.640  0.00  0.00     0.347 A 
ATOM     19  N2  <0> d          -1.229 -11.457   1.648  0.00  0.00    -0.310 N 
ATOM     20  O2  <0> d          -1.434 -10.950  -0.499  0.00  0.00    -0.245 OA
ATOM     21  C13 <0> d          -0.995 -11.057   2.937  0.00  0.00     0.023 A 
ATOM     22  H1  <0> d          -1.405 -12.393   1.462  0.00  0.00     0.170 HD
ATOM     23  C12 <0> d          -0.741  -9.758   3.181  0.00  0.00     0.000 A 
ATOM     24  C15 <0> d          -1.043 -12.099   4.021  0.00  0.00     0.058 C 
ATOM     25  C18 <0> d          -0.452  -9.223   4.557  0.00  0.00     0.043 C 
ATOM     26  C17 <0> d          -0.918 -10.210   5.626  0.00  0.00     0.005 C 
ATOM     27  C16 <0> d          -0.350 -11.593   5.285  0.00  0.00     0.006 C 
ENDBRANCH  15  16
ENDBRANCH   1  15
TORSDOF 4
