REMARK  3 active torsions:
REMARK  status: ('A' for Active; 'I' for Inactive)
REMARK    1  A    between atoms: C4_4  and  S1_8 
REMARK    2  A    between atoms: S1_8  and  C6_9 
REMARK    3  A    between atoms: C11_14  and  N3_15 
ROOT
ATOM      1  C6  <0> d           0.401  -4.891  -0.803  0.00  0.00     0.034 A 
ATOM      2  C7  <0> d           0.429  -4.644   0.572  0.00  0.00     0.023 A 
ATOM      3  C8  <0> d           0.661  -5.647   1.462  0.00  0.00     0.034 A 
ATOM      4  C9  <0> d           0.879  -6.958   1.006  0.00  0.00     0.069 A 
ATOM      5  C10 <0> d           0.854  -7.223  -0.387  0.00  0.00     0.020 A 
ATOM      6  C11 <0> d           0.606  -6.171  -1.291  0.00  0.00     0.055 A 
ATOM      7  C12 <0> d           1.073  -8.537  -0.836  0.00  0.00     0.017 A 
ATOM      8  C13 <0> d           1.302  -9.508   0.097  0.00  0.00     0.020 A 
ATOM      9  C14 <0> d           1.315  -9.182   1.451  0.00  0.00     0.117 A 
ATOM     10  N4  <0> d           1.109  -7.956   1.867  0.00  0.00    -0.260 NA
ENDROOT
BRANCH   1  11
ATOM     11  S1  <0> d           0.097  -3.566  -1.924  0.00  0.00    -0.069 SA
BRANCH  11  12
ATOM     12  C4  <0> d          -0.310  -2.208  -0.878  0.00  0.00     0.095 A 
ATOM     13  C3  <0> d           0.300  -0.990  -0.864  0.00  0.00     0.067 A 
ATOM     14  C2  <0> d          -0.327  -0.208   0.109  0.00  0.00     0.053 A 
ATOM     15  C1  <0> d           0.029   1.213   0.462  0.00  0.00     0.072 C 
ATOM     16  N2  <0> d          -1.273  -0.919   0.667  0.00  0.00    -0.177 NA
ATOM     17  N1  <0> d          -1.291  -2.183   0.063  0.00  0.00    -0.267 N 
ATOM     18  C5  <0> d          -2.202  -3.283   0.390  0.00  0.00     0.181 C 
ENDBRANCH  11  12
ENDBRANCH   1  11
BRANCH   6  19
ATOM     19  N3  <0> d           0.573  -6.416  -2.665  0.00  0.00    -0.397 N 
ATOM     20  H10 <0> d           0.405  -5.688  -3.283  0.00  0.00     0.156 HD
ATOM     21  H11 <0> d           0.717  -7.314  -3.001  0.00  0.00     0.156 HD
ENDBRANCH   6  19
TORSDOF 3
