REMARK  4 active torsions:
REMARK  status: ('A' for Active; 'I' for Inactive)
REMARK    1  A    between atoms: C4_4  and  C7_8 
REMARK    2  A    between atoms: C7_8  and  N1_9 
REMARK    3  A    between atoms: N1_9  and  C8_10 
REMARK    4  A    between atoms: C12_14  and  N2_15 
ROOT
ATOM      1  N1  <0> d           4.269  -0.747   1.321  0.00  0.00    -0.065 N 
ATOM      2  H8  <0> d           4.416   0.195   1.650  0.00  0.00     0.278 HD
ATOM      3  H18 <0> d           3.626  -1.222   1.936  0.00  0.00     0.278 HD
ENDROOT
BRANCH   1   4
ATOM      4  C7  <0> d           3.711  -0.711  -0.037  0.00  0.00     0.274 C 
BRANCH   4   5
ATOM      5  C4  <0> d           2.397   0.026  -0.021  0.00  0.00     0.007 A 
ATOM      6  C3  <0> d           2.379   1.411  -0.013  0.00  0.00     0.124 A 
ATOM      7  C2  <0> d           1.171   2.086   0.002  0.00  0.00     0.044 A 
ATOM      8  F1  <0> d           3.539   2.102  -0.021  0.00  0.00    -0.205 F 
ATOM      9  C1  <0> d          -0.017   1.379   0.010  0.00  0.00     0.022 A 
ATOM     10  C6  <0> d           0.002  -0.004   0.002  0.00  0.00     0.011 A 
ATOM     11  C5  <0> d           1.209  -0.680  -0.013  0.00  0.00     0.031 A 
ATOM     12 Br1  <0> d          -1.623  -0.971   0.013  0.00  0.00    -0.051 Br
ENDBRANCH   4   5
ENDBRANCH   1   4
BRANCH   1  13
ATOM     13  C8  <0> d           5.551  -1.465   1.304  0.00  0.00     0.209 C 
ATOM     14  C12 <0> d           6.199  -1.419   2.699  0.00  0.00     0.120 C 
ATOM     15  C11 <0> d           6.337  -2.883   3.169  0.00  0.00     0.028 C 
ATOM     16  C10 <0> d           6.349  -3.704   1.856  0.00  0.00     0.004 C 
ATOM     17  C9  <0> d           5.318  -2.954   0.975  0.00  0.00     0.035 C 
BRANCH  14  18
ATOM     18  N2  <0> d           7.520  -0.790   2.618  0.00  0.00    -0.345 N 
ATOM     19  C15 <0> d           7.917   0.328   3.262  0.00  0.00     0.183 A 
ATOM     20  N3  <0> d           9.158   0.577   2.943  0.00  0.00    -0.361 N 
ATOM     21  C14 <0> d           9.591  -0.359   2.086  0.00  0.00     0.106 A 
ATOM     22  H19 <0> d           9.683   1.324   3.272  0.00  0.00     0.166 HD
ATOM     23  C13 <0> d           8.581  -1.224   1.869  0.00  0.00     0.109 A 
ENDBRANCH  14  18
ENDBRANCH   1  13
TORSDOF 4
