REMARK  5 active torsions:
REMARK  status: ('A' for Active; 'I' for Inactive)
REMARK    1  A    between atoms: C3_3  and  C5_6 
REMARK    2  A    between atoms: C6_7  and  C7_8 
REMARK       I    between atoms: C7_8  and  N1_10 
REMARK    3  A    between atoms: N1_10  and  C8_11 
REMARK    4  A    between atoms: C8_11  and  C9_12 
REMARK       I    between atoms: C9_12  and  N2_14 
REMARK    5  A    between atoms: N2_14  and  C10_15 
ROOT
ATOM      1  C7  <0> d           5.575  -0.628  -0.055  0.00  0.00     0.241 C 
ATOM      2  O2  <0> d           6.213   0.410  -0.056  0.00  0.00    -0.269 OA
ATOM      3  N1  <0> d           6.216  -1.813  -0.068  0.00  0.00    -0.349 N 
ATOM      4  H6  <0> d           5.708  -2.639  -0.067  0.00  0.00     0.163 HD
ENDROOT
BRANCH   3   5
ATOM      5  C8  <0> d           7.681  -1.854  -0.082  0.00  0.00     0.227 C 
BRANCH   5   6
ATOM      6  C9  <0> d           8.143  -3.288  -0.094  0.00  0.00     0.263 C 
ATOM      7  N2  <0> d           9.444  -3.567  -0.109  0.00  0.00    -0.188 NA
ATOM      8  O3  <0> d           7.328  -4.189  -0.091  0.00  0.00    -0.269 OA
BRANCH   7   9
ATOM      9  C10 <0> d           9.852  -4.831  -0.119  0.00  0.00     0.165 A 
ATOM     10  N3  <0> d          11.137  -5.254  -0.134  0.00  0.00    -0.368 N 
ATOM     11  C11 <0> d          11.432  -6.672  -0.144  0.00  0.00     0.132 A 
ATOM     12  H9  <0> d          11.860  -4.608  -0.138  0.00  0.00     0.161 HD
ATOM     13  C12 <0> d          10.137  -7.511  -0.135  0.00  0.00     0.102 A 
ATOM     14  S1  <0> d           8.867  -6.187  -0.109  0.00  0.00    -0.091 SA
ENDBRANCH   7   9
ENDBRANCH   5   6
ENDBRANCH   3   5
BRANCH   1  15
ATOM     15  C6  <0> d           4.160  -0.588  -0.041  0.00  0.00     0.077 C 
ATOM     16  C5  <0> d           3.515   0.605  -0.029  0.00  0.00     0.042 C 
BRANCH  16  17
ATOM     17  C3  <0> d           2.100   0.644  -0.015  0.00  0.00     0.075 A 
ATOM     18  C2  <0> d           1.318   1.781  -0.001  0.00  0.00     0.039 A 
ATOM     19  C1  <0> d          -0.016   1.347   0.009  0.00  0.00     0.027 A 
ATOM     20  C4  <0> d           0.002  -0.004   0.002  0.00  0.00     0.142 A 
ATOM     21  O1  <0> d           1.275  -0.424  -0.012  0.00  0.00    -0.323 OA
ENDBRANCH  16  17
ENDBRANCH   1  15
TORSDOF 5
