REMARK  5 active torsions:
REMARK  status: ('A' for Active; 'I' for Inactive)
REMARK    1  A    between atoms: C5_6  and  S1_8 
REMARK    2  A    between atoms: S1_8  and  C6_9 
REMARK    3  A    between atoms: C6_9  and  C7_10 
REMARK       I    between atoms: C7_10  and  N3_12 
REMARK    4  A    between atoms: N3_12  and  C8_13 
REMARK    5  A    between atoms: C10_15  and  C13_21 
ROOT
ATOM      1  C7  <0> d           0.228  -2.147   5.312  0.00  0.00     0.232 C 
ATOM      2  O1  <0> d           0.398  -3.338   5.462  0.00  0.00    -0.272 OA
ATOM      3  N3  <0> d           0.050  -1.351   6.386  0.00  0.00    -0.322 N 
ATOM      4  H8  <0> d          -0.014  -0.390   6.272  0.00  0.00     0.169 HD
ENDROOT
BRANCH   3   5
ATOM      5  C8  <0> d          -0.042  -1.913   7.666  0.00  0.00     0.104 A 
ATOM      6  C12 <0> d          -1.049  -2.857   7.961  0.00  0.00     0.272 A 
ATOM      7  N4  <0> d          -1.126  -3.395   9.194  0.00  0.00    -0.331 N 
ATOM      8  O2  <0> d          -1.846  -3.191   7.099  0.00  0.00    -0.266 OA
ATOM      9  C11 <0> d          -0.249  -3.031  10.167  0.00  0.00     0.107 A 
ATOM     10  H1  <0> d          -1.817  -4.046   9.390  0.00  0.00     0.168 HD
ATOM     11  C10 <0> d           0.724  -2.125   9.920  0.00  0.00     0.065 A 
ATOM     12  C9  <0> d           0.839  -1.548   8.647  0.00  0.00     0.052 A 
BRANCH  11  13
ATOM     13  C13 <0> d           1.686  -1.735  11.013  0.00  0.00     0.418 C 
ATOM     14  F1  <0> d           1.373  -2.438  12.182  0.00  0.00    -0.166 F 
ATOM     15  F2  <0> d           2.991  -2.046  10.618  0.00  0.00    -0.166 F 
ATOM     16  F3  <0> d           1.586  -0.361  11.254  0.00  0.00    -0.166 F 
ENDBRANCH  11  13
ENDBRANCH   3   5
BRANCH   1  17
ATOM     17  C6  <0> d           0.214  -1.556   3.926  0.00  0.00     0.185 C 
BRANCH  17  18
ATOM     18  S1  <0> d           0.478  -2.871   2.705  0.00  0.00    -0.081 SA
BRANCH  18  19
ATOM     19  C5  <0> d           0.436  -2.031   1.157  0.00  0.00     0.189 A 
ATOM     20  N1  <0> d           0.601  -2.724   0.040  0.00  0.00    -0.228 NA
ATOM     21  C4  <0> d           0.575  -2.124  -1.139  0.00  0.00     0.035 A 
ATOM     22  C3  <0> d           0.372  -0.754  -1.195  0.00  0.00     0.053 A 
ATOM     23  C14 <0> d           0.762  -2.920  -2.404  0.00  0.00     0.070 C 
ATOM     24  C2  <0> d           0.203  -0.059  -0.008  0.00  0.00     0.035 A 
ATOM     25  C1  <0> d          -0.020   1.431  -0.021  0.00  0.00     0.070 C 
ATOM     26  N2  <0> d           0.246  -0.719   1.138  0.00  0.00    -0.228 NA
ENDBRANCH  18  19
ENDBRANCH  17  18
ENDBRANCH   1  17
TORSDOF 5
