REMARK  2 active torsions:
REMARK  status: ('A' for Active; 'I' for Inactive)
REMARK    1  A    between atoms: C3_3  and  N1_8 
REMARK    2  A    between atoms: C7_9  and  N4_13 
ROOT
ATOM      1  N1  <0> d           3.586   2.126  -0.021  0.00  0.00    -0.061 N 
ATOM      2  C7  <0> d           4.744   1.773   0.582  0.00  0.00     0.722 A 
ATOM      3  N2  <0> d           5.630   2.714   0.334  0.00  0.00    -0.055 NA
ATOM      4  C8  <0> d           5.076   3.668  -0.415  0.00  0.00     0.275 A 
ATOM      5  N3  <0> d           3.833   3.351  -0.662  0.00  0.00    -0.145 NA
ENDROOT
BRANCH   1   6
ATOM      6  C3  <0> d           2.381   1.410  -0.013  0.00  0.00     0.078 A 
ATOM      7  C2  <0> d           1.169   2.087   0.002  0.00  0.00     0.032 A 
ATOM      8  C1  <0> d          -0.017   1.378   0.010  0.00  0.00     0.004 A 
ATOM      9  C6  <0> d           0.002  -0.004   0.002  0.00  0.00     0.019 A 
ATOM     10  C5  <0> d           1.208  -0.682  -0.013  0.00  0.00     0.013 A 
ATOM     11  C4  <0> d           2.398   0.021  -0.021  0.00  0.00     0.051 A 
ATOM     12 Br1  <0> d           1.229  -2.573  -0.023  0.00  0.00    -0.051 Br
ENDBRANCH   1   6
BRANCH   2  13
ATOM     13  N4  <0> d           4.958   0.628   1.328  0.00  0.00    -0.231 N 
ATOM     14  H6  <0> d           4.238  -0.009   1.456  0.00  0.00     0.174 HD
ATOM     15  H7  <0> d           5.829   0.462   1.723  0.00  0.00     0.174 HD
ENDBRANCH   2  13
TORSDOF 2
