REMARK  6 active torsions:
REMARK  status: ('A' for Active; 'I' for Inactive)
REMARK    1  A    between atoms: C3_3  and  S1_18 
REMARK    2  A    between atoms: C5_6  and  C6_7 
REMARK    3  A    between atoms: C7_10  and  C8_12 
REMARK    4  A    between atoms: S1_18  and  N4_21 
REMARK    5  A    between atoms: N4_21  and  C14_22 
REMARK    6  A    between atoms: C14_22  and  C15_23 
ROOT
ATOM      1  C1  <0> d          -0.018   1.503   0.010  0.00  0.00     0.052 C 
ATOM      2  C2  <0> d           0.002  -0.004   0.002  0.00  0.00    -0.005 A 
ATOM      3  C3  <0> d           0.008  -0.829  -1.132  0.00  0.00     0.110 A 
ATOM      4  C4  <0> d           0.028  -2.112  -0.708  0.00  0.00     0.031 A 
ATOM      5  N1  <0> d           0.034  -2.119   0.653  0.00  0.00    -0.350 N 
ATOM      6  C5  <0> d           0.024  -0.819   1.098  0.00  0.00     0.097 A 
ATOM      7  C12 <0> d           0.054  -3.313   1.502  0.00  0.00     0.156 C 
ATOM      8  C13 <0> d           0.040  -3.332  -1.594  0.00  0.00     0.070 C 
ENDROOT
BRANCH   3   9
ATOM      9  S1  <0> d          -0.007  -0.289  -2.809  0.00  0.00     0.261 S 
ATOM     10  O2  <0> d          -0.547  -1.357  -3.575  0.00  0.00    -0.200 OA
ATOM     11  O3  <0> d          -0.576   1.013  -2.811  0.00  0.00    -0.200 OA
BRANCH   9  12
ATOM     12  N4  <0> d           1.570  -0.118  -3.283  0.00  0.00    -0.311 N 
ATOM     13  H17 <0> d           1.916   0.760  -3.510  0.00  0.00     0.172 HD
BRANCH  12  14
ATOM     14  C14 <0> d           2.444  -1.291  -3.358  0.00  0.00     0.178 C 
BRANCH  14  15
ATOM     15  C15 <0> d           3.681  -0.947  -4.147  0.00  0.00     0.001 A 
ATOM     16  S2  <0> d           3.970  -1.087  -5.903  0.00  0.00    -0.105 SA
ATOM     17  C18 <0> d           5.646  -0.473  -5.932  0.00  0.00     0.050 A 
ATOM     18  C17 <0> d           5.872  -0.212  -4.621  0.00  0.00     0.008 A 
ATOM     19  C16 <0> d           4.865  -0.455  -3.706  0.00  0.00     0.017 A 
ENDBRANCH  14  15
ENDBRANCH  12  14
ENDBRANCH   9  12
ENDBRANCH   3   9
BRANCH   6  20
ATOM     20  C6  <0> d           0.033  -0.383   2.503  0.00  0.00     0.220 A 
ATOM     21  O1  <0> d           0.054  -1.183   3.589  0.00  0.00    -0.271 OA
ATOM     22  C7  <0> d           0.056  -0.367   4.659  0.00  0.00     0.173 A 
ATOM     23  N3  <0> d           0.029   0.860   4.221  0.00  0.00    -0.126 NA
ATOM     24  N2  <0> d           0.015   0.859   2.935  0.00  0.00    -0.120 NA
BRANCH  22  25
ATOM     25  C8  <0> d           0.080  -0.796   6.104  0.00  0.00     0.065 C 
ATOM     26  C11 <0> d           1.300  -0.273   6.881  0.00  0.00     0.013 C 
ATOM     27  C10 <0> d           0.344  -0.028   8.061  0.00  0.00     0.002 C 
ATOM     28  C9  <0> d          -0.784   0.085   7.022  0.00  0.00     0.013 C 
ENDBRANCH  22  25
ENDBRANCH   6  20
TORSDOF 6
