REMARK  4 active torsions:
REMARK  status: ('A' for Active; 'I' for Inactive)
REMARK    1  A    between atoms: C4_4  and  C7_7 
REMARK    2  A    between atoms: C7_7  and  C8_8 
REMARK    3  A    between atoms: C7_7  and  C13_14 
REMARK    4  A    between atoms: C7_7  and  O3_26 
ROOT
ATOM      1  C7  <0> d           2.663   1.162   0.409  0.00  0.00     0.153 C 
ENDROOT
BRANCH   1   2
ATOM      2  C4  <0> d           2.624   0.833   1.879  0.00  0.00    -0.013 A 
ATOM      3  C3  <0> d           3.769   0.951   2.644  0.00  0.00     0.011 A 
ATOM      4  C2  <0> d           3.733   0.649   3.993  0.00  0.00     0.001 A 
ATOM      5  C1  <0> d           2.553   0.229   4.576  0.00  0.00     0.000 A 
ATOM      6  C6  <0> d           1.407   0.111   3.811  0.00  0.00     0.001 A 
ATOM      7  C5  <0> d           1.442   0.417   2.463  0.00  0.00     0.011 A 
ENDBRANCH   1   2
BRANCH   1   8
ATOM      8  C8  <0> d           2.445  -0.095  -0.393  0.00  0.00     0.077 A 
ATOM      9  N1  <0> d           1.326  -0.777  -0.244  0.00  0.00    -0.262 NA
ATOM     10  C12 <0> d           1.092  -1.882  -0.925  0.00  0.00     0.117 A 
ATOM     11  C11 <0> d           2.020  -2.367  -1.826  0.00  0.00     0.019 A 
ATOM     12  C10 <0> d           3.208  -1.677  -2.010  0.00  0.00     0.003 A 
ATOM     13  C9  <0> d           3.417  -0.517  -1.281  0.00  0.00     0.031 A 
ENDBRANCH   1   8
BRANCH   1  14
ATOM     14  C13 <0> d           1.578   2.157   0.088  0.00  0.00    -0.033 C 
ATOM     15  C17 <0> d           1.648   3.670   0.332  0.00  0.00     0.032 C 
ATOM     16  C16 <0> d           0.138   3.959   0.662  0.00  0.00     0.019 C 
ATOM     17  C18 <0> d           1.771   4.281  -1.099  0.00  0.00     0.100 A 
ATOM     18  C15 <0> d          -0.382   3.181  -0.601  0.00  0.00     0.023 C 
ATOM     19  C14 <0> d           0.408   1.876  -0.449  0.00  0.00    -0.014 C 
ATOM     20  C19 <0> d           0.366   3.949  -1.736  0.00  0.00     0.099 A 
ATOM     21  C20 <0> d           0.695   2.967  -2.836  0.00  0.00     0.230 A 
ATOM     22  O1  <0> d          -0.111   2.458  -3.586  0.00  0.00    -0.273 OA
ATOM     23  N2  <0> d           2.014   2.745  -2.856  0.00  0.00    -0.297 N 
ATOM     24  C21 <0> d           2.705   3.420  -1.930  0.00  0.00     0.230 A 
ATOM     25  H17 <0> d           2.445   2.053  -3.594  0.00  0.00     0.171 HD
ATOM     26  O2  <0> d           3.906   3.365  -1.774  0.00  0.00    -0.273 OA
ENDBRANCH   1  14
BRANCH   1  27
ATOM     27  O3  <0> d           3.936   1.722   0.080  0.00  0.00    -0.374 OA
ATOM     28  H18 <0> d           4.152   2.026  -0.955  0.00  0.00     0.212 HD
ENDBRANCH   1  27
TORSDOF 4
