REMARK  5 active torsions:
REMARK  status: ('A' for Active; 'I' for Inactive)
REMARK    1  A    between atoms: C2_2  and  C15_23 
REMARK    2  A    between atoms: N1_5  and  C5_9 
REMARK    3  A    between atoms: C5_9  and  C6_10 
REMARK       I    between atoms: C6_10  and  N3_12 
REMARK    4  A    between atoms: N3_12  and  C7_13 
REMARK    5  A    between atoms: C10_16  and  C13_19 
REMARK       I    between atoms: C13_19  and  N4_21 
ROOT
ATOM      1  C1  <0> d          -7.296   0.040  -1.468  0.00  0.00     0.054 C 
ATOM      2  C2  <0> d          -7.613   1.463  -1.004  0.00  0.00     0.140 A 
ATOM      3  C3  <0> d          -6.501   2.417  -1.394  0.00  0.00     0.261 A 
ATOM      4  O1  <0> d          -6.125   2.684  -2.515  0.00  0.00    -0.270 OA
ATOM      5  N1  <0> d          -6.016   2.904  -0.235  0.00  0.00    -0.259 N 
ATOM      6  C4  <0> d          -6.665   2.402   0.822  0.00  0.00     0.326 A 
ATOM      7  O2  <0> d          -6.410   2.695   1.973  0.00  0.00    -0.247 OA
ATOM      8  N2  <0> d          -7.632   1.536   0.467  0.00  0.00    -0.321 N 
ATOM      9  H4  <0> d          -8.226   1.054   1.064  0.00  0.00     0.165 HD
ENDROOT
BRANCH   5  10
ATOM     10  C5  <0> d          -4.917   3.869  -0.143  0.00  0.00     0.240 C 
BRANCH  10  11
ATOM     11  C6  <0> d          -3.607   3.131  -0.047  0.00  0.00     0.240 C 
ATOM     12  O3  <0> d          -3.592   1.918  -0.054  0.00  0.00    -0.271 OA
ATOM     13  N3  <0> d          -2.451   3.818   0.047  0.00  0.00    -0.326 N 
ATOM     14  H7  <0> d          -2.467   4.785   0.130  0.00  0.00     0.169 HD
BRANCH  13  15
ATOM     15  C7  <0> d          -1.233   3.140   0.025  0.00  0.00     0.034 A 
ATOM     16  C12 <0> d          -0.158   3.621   0.766  0.00  0.00     0.030 A 
ATOM     17  C11 <0> d           1.046   2.954   0.747  0.00  0.00     0.019 A 
ATOM     18  C10 <0> d           1.188   1.793  -0.017  0.00  0.00     0.032 A 
ATOM     19  C9  <0> d           0.106   1.313  -0.760  0.00  0.00     0.019 A 
ATOM     20  C8  <0> d          -1.093   1.988  -0.741  0.00  0.00     0.030 A 
BRANCH  18  21
ATOM     21  C13 <0> d           2.477   1.075  -0.039  0.00  0.00     0.251 C 
ATOM     22  O4  <0> d           2.599   0.064  -0.704  0.00  0.00    -0.268 OA
ATOM     23  N4  <0> d           3.520   1.539   0.678  0.00  0.00    -0.361 N 
ATOM     24  C14 <0> d           4.799   0.827   0.656  0.00  0.00     0.149 C 
ATOM     25  H12 <0> d           3.422   2.345   1.209  0.00  0.00     0.162 HD
ENDBRANCH  18  21
ENDBRANCH  13  15
ENDBRANCH  10  11
ENDBRANCH   5  10
BRANCH   2  26
ATOM     26  C15 <0> d          -8.930   1.924  -1.575  0.00  0.00    -0.021 A 
ATOM     27  C20 <0> d         -10.099   1.717  -0.870  0.00  0.00     0.017 A 
ATOM     28  C19 <0> d         -11.310   2.144  -1.388  0.00  0.00    -0.051 A 
ATOM     29  C18 <0> d         -11.349   2.769  -2.620  0.00  0.00    -0.052 A 
ATOM     30  C21 <0> d         -12.710   2.043  -0.821  0.00  0.00     0.039 C 
ATOM     31  C17 <0> d         -10.176   2.971  -3.328  0.00  0.00     0.008 A 
ATOM     32  C23 <0> d         -12.778   3.131  -2.966  0.00  0.00     0.039 C 
ATOM     33  C16 <0> d          -8.968   2.549  -2.807  0.00  0.00     0.011 A 
ATOM     34  C22 <0> d         -13.547   3.056  -1.630  0.00  0.00     0.009 C 
ENDBRANCH   2  26
TORSDOF 5
