REMARK  5 active torsions:
REMARK  status: ('A' for Active; 'I' for Inactive)
REMARK    1  A    between atoms: C7_7  and  C10_11 
REMARK    2  A    between atoms: C7_7  and  N1_14 
REMARK    3  A    between atoms: N1_14  and  C11_15 
REMARK    4  A    between atoms: C11_15  and  C12_16 
REMARK    5  A    between atoms: C12_16  and  N2_17 
ROOT
ATOM      1  C1  <0> d           4.756  -2.972   0.302  0.00  0.00     0.001 A 
ATOM      2  C2  <0> d           4.721  -4.084   1.126  0.00  0.00     0.001 A 
ATOM      3  C3  <0> d           3.507  -4.561   1.569  0.00  0.00     0.019 A 
ATOM      4  C4  <0> d           2.318  -3.938   1.190  0.00  0.00     0.009 A 
ATOM      5  C5  <0> d           2.349  -2.837   0.355  0.00  0.00     0.005 A 
ATOM      6  C6  <0> d           3.583  -2.356  -0.076  0.00  0.00     0.011 A 
ATOM      7  C7  <0> d           1.134  -2.117  -0.151  0.00  0.00     0.241 C 
ATOM      8  C8  <0> d          -0.088  -2.284   0.734  0.00  0.00     0.066 C 
ATOM      9  C9  <0> d          -0.460  -3.773   0.801  0.00  0.00     0.083 C 
ATOM     10  S1  <0> d           0.804  -4.596   1.814  0.00  0.00    -0.129 SA
ENDROOT
BRANCH   7  11
ATOM     11  C10 <0> d           1.454  -0.648  -0.257  0.00  0.00     0.215 C 
ATOM     12  O1  <0> d           1.520  -0.116  -1.352  0.00  0.00    -0.646 OA
ATOM     13  O2  <0> d           1.647   0.008   0.752  0.00  0.00    -0.646 OA
ENDBRANCH   7  11
BRANCH   7  14
ATOM     14  N1  <0> d           0.814  -2.622  -1.493  0.00  0.00    -0.050 N 
ATOM     15  H9  <0> d           1.553  -2.369  -2.132  0.00  0.00     0.279 HD
ATOM     16  H22 <0> d           0.725  -3.626  -1.462  0.00  0.00     0.279 HD
BRANCH  14  17
ATOM     17  C11 <0> d          -0.451  -2.032  -1.949  0.00  0.00     0.262 C 
BRANCH  17  18
ATOM     18  C12 <0> d          -0.792  -2.569  -3.341  0.00  0.00     0.262 C 
BRANCH  18  19
ATOM     19  N2  <0> d          -2.057  -1.979  -3.798  0.00  0.00    -0.070 N 
ATOM     20  C16 <0> d          -2.462  -2.577  -5.088  0.00  0.00     0.235 C 
ATOM     21  C15 <0> d          -3.130  -1.461  -5.913  0.00  0.00     0.029 C 
ATOM     22  C14 <0> d          -3.047  -0.198  -5.026  0.00  0.00     0.029 C 
ATOM     23  C13 <0> d          -1.880  -0.528  -4.061  0.00  0.00     0.235 C 
ATOM     24  H23 <0> d          -2.778  -2.122  -3.106  0.00  0.00     0.279 HD
ENDBRANCH  18  19
ENDBRANCH  17  18
ENDBRANCH  14  17
ENDBRANCH   7  14
TORSDOF 5
