REMARK  5 active torsions:
REMARK  status: ('A' for Active; 'I' for Inactive)
REMARK    1  A    between atoms: C3_3  and  S2_15 
REMARK    2  A    between atoms: N2_6  and  C5_7 
REMARK    3  A    between atoms: S2_15  and  N3_18 
REMARK    4  A    between atoms: N3_18  and  C10_19 
REMARK    5  A    between atoms: C10_19  and  C11_20 
ROOT
ATOM      1  S2  <0> d          -0.281  -0.125  -2.807  0.00  0.00     0.258 S 
ATOM      2  O3  <0> d           0.490  -0.860  -3.748  0.00  0.00    -0.201 OA
ATOM      3  O4  <0> d          -1.682  -0.308  -2.661  0.00  0.00    -0.201 OA
ENDROOT
BRANCH   1   4
ATOM      4  C3  <0> d           0.435  -0.427  -1.225  0.00  0.00     0.099 A 
ATOM      5  C2  <0> d          -0.136  -0.020   0.116  0.00  0.00     0.124 A 
ATOM      6  C1  <0> d          -0.262   1.502   0.204  0.00  0.00     0.034 C 
ATOM      7  N2  <0> d           0.848  -0.515   1.099  0.00  0.00    -0.216 NA
ATOM      8  N1  <0> d           1.838  -1.117   0.370  0.00  0.00    -0.321 N 
ATOM      9  C4  <0> d           1.569  -1.052  -0.983  0.00  0.00     0.038 A 
ATOM     10  H6  <0> d           2.624  -1.537   0.754  0.00  0.00     0.180 HD
ATOM     11  C9  <0> d           2.464  -1.625  -2.051  0.00  0.00     0.070 C 
BRANCH   7  12
ATOM     12  C5  <0> d           1.385   0.588   1.907  0.00  0.00     0.095 C 
ATOM     13  C8  <0> d           0.543   0.747   3.205  0.00  0.00     0.161 C 
ATOM     14  S1  <0> d           1.722   1.691   4.259  0.00  0.00     0.146 S 
ATOM     15  C7  <0> d           3.298   1.259   3.415  0.00  0.00     0.142 C 
ATOM     16  O1  <0> d           1.476   3.081   4.097  0.00  0.00    -0.228 OA
ATOM     17  O2  <0> d           1.728   1.129   5.564  0.00  0.00    -0.228 OA
ATOM     18  C6  <0> d           2.835   0.275   2.313  0.00  0.00     0.037 C 
ENDBRANCH   7  12
ENDBRANCH   1   4
BRANCH   1  19
ATOM     19  N3  <0> d          -0.046   1.478  -3.152  0.00  0.00    -0.312 N 
ATOM     20  H16 <0> d          -0.808   2.073  -3.231  0.00  0.00     0.172 HD
BRANCH  19  21
ATOM     21  C10 <0> d           1.311   1.996  -3.337  0.00  0.00     0.178 C 
BRANCH  21  22
ATOM     22  C11 <0> d           1.244   3.374  -4.000  0.00  0.00     0.200 A 
ATOM     23  N5  <0> d           0.584   3.273  -5.308  0.00  0.00    -0.365 N 
ATOM     24  C17 <0> d          -0.479   4.022  -5.268  0.00  0.00     0.056 A 
ATOM     25  H25 <0> d           0.885   2.744  -6.064  0.00  0.00     0.162 HD
ATOM     26  C12 <0> d          -0.581   4.662  -3.928  0.00  0.00     0.056 A 
ATOM     27  C16 <0> d          -1.527   4.324  -6.253  0.00  0.00     0.031 A 
ATOM     28  N4  <0> d           0.424   4.284  -3.191  0.00  0.00    -0.365 N 
ATOM     29  C13 <0> d          -1.722   5.554  -3.678  0.00  0.00     0.031 A 
ATOM     30  H24 <0> d           0.598   4.553  -2.276  0.00  0.00     0.162 HD
ATOM     31  C14 <0> d          -2.628   5.763  -4.654  0.00  0.00     0.002 A 
ATOM     32  C15 <0> d          -2.532   5.158  -5.920  0.00  0.00     0.002 A 
ENDBRANCH  21  22
ENDBRANCH  19  21
ENDBRANCH   1  19
TORSDOF 5
