REMARK  5 active torsions:
REMARK  status: ('A' for Active; 'I' for Inactive)
REMARK    1  A    between atoms: C3_3  and  O2_10 
REMARK    2  A    between atoms: C6_6  and  C7_7 
REMARK    3  A    between atoms: C7_7  and  O1_8 
REMARK    4  A    between atoms: O2_10  and  C8_11 
REMARK    5  A    between atoms: C11_17  and  O5_18 
ROOT
ATOM      1  C1  <0> d           0.053   1.435   0.737  0.00  0.00     0.012 A 
ATOM      2  C2  <0> d           1.224   2.125   0.483  0.00  0.00     0.039 A 
ATOM      3  C3  <0> d           2.396   1.429   0.230  0.00  0.00     0.086 A 
ATOM      4  C4  <0> d           2.391   0.041   0.233  0.00  0.00     0.044 A 
ATOM      5  C5  <0> d           1.218  -0.644   0.487  0.00  0.00     0.031 A 
ATOM      6  C6  <0> d           0.051   0.052   0.739  0.00  0.00    -0.033 A 
ATOM      7 Br1  <0> d           3.988  -0.912  -0.112  0.00  0.00    -0.048 Br
ENDROOT
BRANCH   3   8
ATOM      8  O2  <0> d           3.548   2.105  -0.021  0.00  0.00    -0.341 OA
BRANCH   8   9
ATOM      9  C8  <0> d           3.456   3.528  -0.124  0.00  0.00     0.172 C 
ATOM     10  C11 <0> d           4.616   4.049  -0.972  0.00  0.00     0.162 C 
ATOM     11  C10 <0> d           5.051   5.480  -0.605  0.00  0.00     0.174 C 
ATOM     12  S1  <0> d           4.010   5.873   0.863  0.00  0.00     0.149 S 
ATOM     13  C9  <0> d           3.508   4.151   1.299  0.00  0.00     0.175 C 
ATOM     14  O3  <0> d           2.865   6.601   0.442  0.00  0.00    -0.228 OA
ATOM     15  O4  <0> d           4.835   6.396   1.895  0.00  0.00    -0.228 OA
BRANCH  10  16
ATOM     16  O5  <0> d           5.733   3.174  -0.807  0.00  0.00    -0.392 OA
ATOM     17  H13 <0> d           6.515   3.434  -1.313  0.00  0.00     0.210 HD
ENDBRANCH  10  16
ENDBRANCH   8   9
ENDBRANCH   3   8
BRANCH   6  18
ATOM     18  C7  <0> d          -1.227  -0.697   1.017  0.00  0.00     0.202 C 
BRANCH  18  19
ATOM     19  O1  <0> d          -1.916  -0.935  -0.212  0.00  0.00    -0.396 OA
ATOM     20  H8  <0> d          -2.750  -1.415  -0.109  0.00  0.00     0.209 HD
ENDBRANCH  18  19
ENDBRANCH   6  18
TORSDOF 5
