REMARK  3 active torsions:
REMARK  status: ('A' for Active; 'I' for Inactive)
REMARK    1  A    between atoms: C3_3  and  C15_19 
REMARK    2  A    between atoms: C5_5  and  N1_7 
REMARK       I    between atoms: C15_19  and  N3_21 
REMARK    3  A    between atoms: N3_21  and  C16_22 
ROOT
ATOM      1  C1  <0> d          -0.371   1.337  -0.194  0.00  0.00     0.003 A 
ATOM      2  C2  <0> d           0.767   2.073   0.067  0.00  0.00     0.017 A 
ATOM      3  C3  <0> d           1.996   1.428   0.220  0.00  0.00     0.034 A 
ATOM      4  C4  <0> d           2.067   0.039   0.108  0.00  0.00     0.048 A 
ATOM      5  C5  <0> d           0.919  -0.691  -0.154  0.00  0.00     0.060 A 
ATOM      6  C6  <0> d          -0.299  -0.039  -0.305  0.00  0.00     0.032 A 
ENDROOT
BRANCH   3   7
ATOM      7  C15 <0> d           3.217   2.213   0.499  0.00  0.00     0.256 C 
ATOM      8  O3  <0> d           4.285   1.649   0.632  0.00  0.00    -0.267 OA
ATOM      9  N3  <0> d           3.145   3.555   0.606  0.00  0.00    -0.321 N 
ATOM     10  H14 <0> d           2.284   4.000   0.557  0.00  0.00     0.169 HD
BRANCH   9  11
ATOM     11  C16 <0> d           4.312   4.306   0.788  0.00  0.00     0.059 A 
ATOM     12  C21 <0> d           4.382   5.608   0.306  0.00  0.00     0.063 A 
ATOM     13  C20 <0> d           5.532   6.355   0.489  0.00  0.00     0.058 A 
ATOM     14 Cl1  <0> d           3.022   6.300  -0.521  0.00  0.00    -0.082 Cl
ATOM     15  C19 <0> d           6.619   5.799   1.143  0.00  0.00     0.070 A 
ATOM     16  C18 <0> d           6.553   4.492   1.623  0.00  0.00     0.098 A 
ATOM     17  N4  <0> d           7.795   6.541   1.334  0.00  0.00    -0.323 N 
ATOM     18  C17 <0> d           5.401   3.748   1.445  0.00  0.00     0.070 A 
ATOM     19  O5  <0> d           7.629   3.959   2.263  0.00  0.00    -0.340 OA
ATOM     20  C23 <0> d           8.919   4.392   1.822  0.00  0.00     0.278 C 
ATOM     21  C22 <0> d           8.928   5.893   1.682  0.00  0.00     0.246 C 
ATOM     22  O4  <0> d           9.950   6.517   1.881  0.00  0.00    -0.271 OA
ATOM     23  H17 <0> d           7.795   7.504   1.217  0.00  0.00     0.169 HD
ENDBRANCH   9  11
ENDBRANCH   3   7
BRANCH   5  24
ATOM     24  N1  <0> d           0.986  -2.084  -0.267  0.00  0.00    -0.221 N 
ATOM     25  N2  <0> d           1.958  -2.673  -1.086  0.00  0.00    -0.260 N 
ATOM     26  C14 <0> d           1.764  -3.907  -1.591  0.00  0.00     0.241 C 
ATOM     27  H13 <0> d           2.776  -2.193  -1.289  0.00  0.00     0.190 HD
ATOM     28  C13 <0> d           0.520  -4.673  -1.225  0.00  0.00     0.096 C 
ATOM     29  O2  <0> d           2.583  -4.397  -2.339  0.00  0.00    -0.271 OA
ATOM     30  C8  <0> d           0.146  -4.351   0.230  0.00  0.00     0.097 C 
ATOM     31  C12 <0> d           0.758  -6.178  -1.332  0.00  0.00     0.042 C 
ATOM     32  C7  <0> d           0.110  -2.857   0.408  0.00  0.00     0.248 C 
ATOM     33  C9  <0> d          -1.229  -4.955   0.523  0.00  0.00     0.042 C 
ATOM     34  O1  <0> d          -0.702  -2.351   1.154  0.00  0.00    -0.271 OA
ATOM     35  C10 <0> d          -1.248  -6.396   0.097  0.00  0.00    -0.030 C 
ATOM     36  C11 <0> d          -0.386  -6.927  -0.710  0.00  0.00    -0.030 C 
ENDBRANCH   5  24
TORSDOF 3
