REMARK  4 active torsions:
REMARK  status: ('A' for Active; 'I' for Inactive)
REMARK    1  A    between atoms: C4_4  and  C8_9 
REMARK    2  A    between atoms: C7_7  and  O1_8 
REMARK       I    between atoms: N2_11  and  C17_21 
REMARK    3  A    between atoms: C9_12  and  C11_14 
REMARK    4  A    between atoms: C17_21  and  C18_23 
ROOT
ATOM      1  C8  <0> d          -0.030  -2.821  -2.481  0.00  0.00     0.067 A 
ATOM      2  N1  <0> d          -0.020  -2.277  -3.649  0.00  0.00    -0.173 NA
ATOM      3  N2  <0> d           0.006  -3.189  -4.702  0.00  0.00    -0.224 N 
ATOM      4  C9  <0> d           0.016  -4.553  -4.150  0.00  0.00     0.152 A 
ATOM      5  C10 <0> d          -0.003  -4.326  -2.626  0.00  0.00     0.094 A 
ATOM      6  C17 <0> d           0.021  -2.873  -6.012  0.00  0.00     0.274 C 
ATOM      7  O2  <0> d           0.137  -3.749  -6.847  0.00  0.00    -0.266 OA
ENDROOT
BRANCH   1   8
ATOM      8  C4  <0> d          -0.056  -2.090  -1.202  0.00  0.00    -0.009 A 
ATOM      9  C3  <0> d          -0.080  -0.693  -1.194  0.00  0.00     0.023 A 
ATOM     10  C2  <0> d          -0.105  -0.013   0.005  0.00  0.00    -0.028 A 
ATOM     11  C1  <0> d          -0.131   1.493   0.015  0.00  0.00     0.051 C 
ATOM     12  C7  <0> d          -0.102  -0.715   1.204  0.00  0.00     0.071 A 
ATOM     13  C6  <0> d          -0.084  -2.104   1.200  0.00  0.00     0.038 A 
ATOM     14  C5  <0> d          -0.059  -2.792   0.007  0.00  0.00     0.016 A 
BRANCH  12  15
ATOM     15  O1  <0> d          -0.121  -0.041   2.383  0.00  0.00    -0.360 OA
ATOM     16  H8  <0> d          -1.010   0.140   2.719  0.00  0.00     0.217 HD
ENDBRANCH  12  15
ENDBRANCH   1   8
BRANCH   4  17
ATOM     17  C11 <0> d           1.269  -5.282  -4.561  0.00  0.00    -0.033 A 
ATOM     18  C16 <0> d           1.211  -6.624  -4.890  0.00  0.00     0.011 A 
ATOM     19  C15 <0> d           2.359  -7.292  -5.273  0.00  0.00     0.024 A 
ATOM     20  C14 <0> d           3.568  -6.621  -5.315  0.00  0.00     0.034 A 
ATOM     21  C13 <0> d           3.627  -5.280  -4.980  0.00  0.00     0.024 A 
ATOM     22 Cl1  <0> d           5.011  -7.461  -5.789  0.00  0.00    -0.084 Cl
ATOM     23  C12 <0> d           2.477  -4.611  -4.604  0.00  0.00     0.011 A 
ENDBRANCH   4  17
BRANCH   6  24
ATOM     24  C18 <0> d          -0.105  -1.460  -6.435  0.00  0.00     0.036 A 
ATOM     25  C22 <0> d          -0.115  -0.426  -5.493  0.00  0.00     0.036 A 
ATOM     26  C21 <0> d          -0.230   0.879  -5.931  0.00  0.00     0.117 A 
ATOM     27  N3  <0> d          -0.340   1.154  -7.216  0.00  0.00    -0.273 NA
ATOM     28  C20 <0> d          -0.340   0.210  -8.136  0.00  0.00     0.117 A 
ATOM     29  C19 <0> d          -0.224  -1.121  -7.787  0.00  0.00     0.036 A 
ENDBRANCH   6  24
TORSDOF 4
