REMARK  6 active torsions:
REMARK  status: ('A' for Active; 'I' for Inactive)
REMARK    1  A    between atoms: C7_7  and  O3_17 
REMARK    2  A    between atoms: C10_10  and  C11_11 
REMARK    3  A    between atoms: C17_20  and  O5_34 
REMARK    4  A    between atoms: C18_21  and  C23_27 
REMARK    5  A    between atoms: C21_24  and  O4_26 
REMARK    6  A    between atoms: C24_28  and  N1_38 
ROOT
ATOM      1  C1  <0> d          -1.160   3.654   1.027  0.00  0.00     0.019 C 
ATOM      2  C2  <0> d          -0.426   2.554   1.797  0.00  0.00    -0.005 C 
ATOM      3  C3  <0> d           1.081   2.816   1.856  0.00  0.00     0.013 C 
ATOM      4  C4  <0> d           1.724   2.582   0.491  0.00  0.00     0.007 C 
ATOM      5  C5  <0> d           1.530   1.111   0.105  0.00  0.00     0.009 C 
ATOM      6  C6  <0> d           0.033   0.842  -0.036  0.00  0.00     0.026 C 
ATOM      7  C7  <0> d          -0.714   1.150   1.239  0.00  0.00     0.070 C 
ATOM      8  C8  <0> d          -0.321   0.214   2.397  0.00  0.00     0.040 C 
ATOM      9  C9  <0> d          -0.824   0.965   3.652  0.00  0.00     0.013 C 
ATOM     10  C10 <0> d          -0.918   2.453   3.266  0.00  0.00     0.028 C 
ATOM     11  C15 <0> d          -0.188  -0.616  -0.447  0.00  0.00     0.011 C 
ATOM     12  C16 <0> d           0.507  -0.879  -1.785  0.00  0.00     0.039 C 
ATOM     13  C17 <0> d           2.006  -0.611  -1.642  0.00  0.00     0.073 C 
ATOM     14  C18 <0> d           2.227   0.846  -1.231  0.00  0.00     0.026 C 
ATOM     15  C19 <0> d           3.726   1.114  -1.088  0.00  0.00     0.021 C 
ATOM     16  C20 <0> d           4.311   0.187  -0.021  0.00  0.00     0.033 C 
ATOM     17  C21 <0> d           4.091  -1.269  -0.434  0.00  0.00     0.121 C 
ATOM     18  C22 <0> d           2.591  -1.538  -0.575  0.00  0.00     0.070 C 
ENDROOT
BRANCH  14  19
ATOM     19  C23 <0> d           1.652   1.757  -2.285  0.00  0.00     0.069 C 
ATOM     20  N1  <0> d           1.086   1.191  -3.327  0.00  0.00    -0.397 N 
ATOM     21  H44 <0> d           1.049   0.168  -3.399  0.00  0.00     0.159 HD
BRANCH  20  22
ATOM     22  C24 <0> d           0.493   2.043  -4.415  0.00  0.00     0.080 C 
ATOM     23  C29 <0> d           1.201   1.707  -5.729  0.00  0.00     0.025 C 
ATOM     24  C28 <0> d           0.582   2.523  -6.865  0.00  0.00     0.002 C 
ATOM     25  C27 <0> d          -0.905   2.183  -6.986  0.00  0.00     0.000 C 
ATOM     26  C26 <0> d          -1.613   2.519  -5.671  0.00  0.00     0.002 C 
ATOM     27  C25 <0> d          -0.994   1.703  -4.535  0.00  0.00     0.025 C 
ENDBRANCH  20  22
ENDBRANCH  14  19
BRANCH  13  28
ATOM     28  O5  <0> d           2.654  -0.856  -2.892  0.00  0.00    -0.389 OA
ATOM     29  H43 <0> d           2.556  -1.762  -3.216  0.00  0.00     0.210 HD
ENDBRANCH  13  28
BRANCH   7  30
ATOM     30  O3  <0> d          -2.117   1.017   1.005  0.00  0.00    -0.389 OA
ATOM     31  H19 <0> d          -2.385   0.136   0.710  0.00  0.00     0.210 HD
ENDBRANCH   7  30
BRANCH  17  32
ATOM     32  O4  <0> d           4.738  -1.513  -1.684  0.00  0.00    -0.395 OA
ATOM     33  H30 <0> d           5.693  -1.362  -1.669  0.00  0.00     0.210 HD
ENDBRANCH  17  32
BRANCH  10  34
ATOM     34  C11 <0> d          -2.346   2.925   3.367  0.00  0.00    -0.045 A 
ATOM     35  C14 <0> d          -3.557   2.265   2.750  0.00  0.00     0.213 A 
ATOM     36  O2  <0> d          -4.698   3.086   3.128  0.00  0.00    -0.314 OA
ATOM     37  C13 <0> d          -4.234   4.110   3.869  0.00  0.00     0.283 A 
ATOM     38  C12 <0> d          -2.780   4.004   4.013  0.00  0.00     0.087 A 
ATOM     39  O1  <0> d          -4.920   4.991   4.348  0.00  0.00    -0.260 OA
ENDBRANCH  10  34
TORSDOF 6
