REMARK  3 active torsions:
REMARK  status: ('A' for Active; 'I' for Inactive)
REMARK    1  A    between atoms: C8_8  and  C10_12 
REMARK       I    between atoms: C10_12  and  N1_14 
REMARK    2  A    between atoms: N1_14  and  C11_15 
REMARK    3  A    between atoms: C11_15  and  C12_16 
ROOT
ATOM      1  C10 <0> d          -2.565   3.711  -0.802  0.00  0.00     0.247 C 
ATOM      2  O3  <0> d          -3.405   3.293  -0.033  0.00  0.00    -0.271 OA
ATOM      3  N1  <0> d          -2.850   4.751  -1.610  0.00  0.00    -0.353 N 
ATOM      4  H8  <0> d          -2.088   5.130  -2.308  0.00  0.00     0.162 HD
ENDROOT
BRANCH   1   5
ATOM      5  C8  <0> d          -1.204   3.067  -0.854  0.00  0.00     0.228 C 
ATOM      6  C7  <0> d          -0.147   4.069  -0.389  0.00  0.00     0.082 C 
ATOM      7  C5  <0> d           1.178   3.380  -0.197  0.00  0.00    -0.039 A 
ATOM      8  C4  <0> d           1.239   2.000   0.001  0.00  0.00     0.045 A 
ATOM      9  C6  <0> d           2.346   4.117  -0.210  0.00  0.00     0.008 A 
ATOM     10  C3  <0> d           2.469   1.373   0.189  0.00  0.00     0.018 A 
ATOM     11  C9  <0> d          -0.014   1.210   0.009  0.00  0.00     0.294 C 
ATOM     12  C2  <0> d           3.628   2.123   0.175  0.00  0.00     0.001 A 
ATOM     13  C1  <0> d           3.565   3.491  -0.025  0.00  0.00     0.001 A 
ATOM     14  O1  <0> d          -1.182   1.903   0.018  0.00  0.00    -0.302 OA
ATOM     15  O2  <0> d           0.002  -0.004   0.002  0.00  0.00    -0.259 OA
ENDBRANCH   1   5
BRANCH   3  16
ATOM     16  C11 <0> d          -4.173   5.377  -1.560  0.00  0.00     0.183 C 
BRANCH  16  17
ATOM     17  C12 <0> d          -4.232   6.508  -2.555  0.00  0.00     0.070 A 
ATOM     18  N3  <0> d          -3.826   7.760  -2.335  0.00  0.00    -0.232 NA
ATOM     19  C18 <0> d          -4.024   8.480  -3.430  0.00  0.00     0.134 A 
ATOM     20  N2  <0> d          -4.584   7.665  -4.379  0.00  0.00    -0.316 N 
ATOM     21  C17 <0> d          -3.775   9.834  -3.734  0.00  0.00     0.051 A 
ATOM     22  C13 <0> d          -4.710   6.424  -3.816  0.00  0.00     0.127 A 
ATOM     23  C14 <0> d          -4.900   8.155  -5.613  0.00  0.00     0.098 A 
ATOM     24  C15 <0> d          -4.667   9.448  -5.919  0.00  0.00     0.018 A 
ATOM     25  C16 <0> d          -4.095  10.309  -4.968  0.00  0.00     0.005 A 
ENDBRANCH  16  17
ENDBRANCH   3  16
TORSDOF 3
