REMARK  4 active torsions:
REMARK  status: ('A' for Active; 'I' for Inactive)
REMARK    1  A    between atoms: C5_5  and  C18_24 
REMARK    2  A    between atoms: C7_7  and  O1_8 
REMARK    3  A    between atoms: O1_8  and  C8_9 
REMARK    4  A    between atoms: C8_9  and  C9_11 
REMARK       I    between atoms: C18_24  and  N2_26 
ROOT
ATOM      1  C8  <0> d           1.858   0.642   2.243  0.00  0.00     0.304 C 
ATOM      2  O2  <0> d           2.564   0.648   1.254  0.00  0.00    -0.259 OA
ENDROOT
BRANCH   1   3
ATOM      3  O1  <0> d           0.651   0.041   2.207  0.00  0.00    -0.274 OA
BRANCH   3   4
ATOM      4  C7  <0> d           0.301  -0.619   1.072  0.00  0.00     0.086 A 
ATOM      5  C2  <0> d          -0.295   0.070   0.024  0.00  0.00    -0.028 A 
ATOM      6  C1  <0> d          -0.552   1.550   0.149  0.00  0.00     0.051 C 
ATOM      7  C3  <0> d          -0.647  -0.595  -1.136  0.00  0.00     0.010 A 
ATOM      8  C4  <0> d          -0.415  -1.950  -1.257  0.00  0.00     0.018 A 
ATOM      9  C5  <0> d           0.179  -2.652  -0.207  0.00  0.00     0.034 A 
ATOM     10  C6  <0> d           0.534  -1.980   0.962  0.00  0.00     0.055 A 
BRANCH   9  11
ATOM     11  C18 <0> d           0.429  -4.104  -0.333  0.00  0.00     0.253 C 
ATOM     12  O5  <0> d           0.231  -4.840   0.614  0.00  0.00    -0.267 OA
ATOM     13  N2  <0> d           0.876  -4.612  -1.499  0.00  0.00    -0.357 N 
ATOM     14  C19 <0> d           1.203  -6.036  -1.600  0.00  0.00     0.152 C 
ATOM     15  C20 <0> d           1.036  -3.739  -2.664  0.00  0.00     0.152 C 
ENDBRANCH   9  11
ENDBRANCH   3   4
ENDBRANCH   1   3
BRANCH   1  16
ATOM     16  C9  <0> d           2.319   1.292   3.479  0.00  0.00     0.108 A 
ATOM     17  C13 <0> d           1.484   1.297   4.684  0.00  0.00     0.262 A 
ATOM     18  N1  <0> d           1.927   1.895   5.801  0.00  0.00    -0.325 N 
ATOM     19  O3  <0> d           0.392   0.757   4.672  0.00  0.00    -0.267 OA
ATOM     20  C12 <0> d           3.126   2.511   5.853  0.00  0.00     0.026 A 
ATOM     21  H1  <0> d           1.367   1.887   6.593  0.00  0.00     0.169 HD
ATOM     22  C11 <0> d           3.954   2.532   4.744  0.00  0.00     0.034 A 
ATOM     23  C14 <0> d           3.526   3.177   7.145  0.00  0.00     0.058 C 
ATOM     24  C10 <0> d           3.555   1.921   3.536  0.00  0.00     0.040 A 
ATOM     25  C17 <0> d           5.270   3.191   4.809  0.00  0.00     0.161 C 
ATOM     26  C16 <0> d           5.567   4.059   6.013  0.00  0.00     0.084 C 
ATOM     27  O4  <0> d           6.090   3.041   3.928  0.00  0.00    -0.292 OA
ATOM     28  C15 <0> d           5.042   3.318   7.250  0.00  0.00     0.014 C 
ENDBRANCH   1  16
TORSDOF 4
