REMARK  7 active torsions:
REMARK  status: ('A' for Active; 'I' for Inactive)
REMARK    1  A    between atoms: C2_2  and  C3_3 
REMARK    2  A    between atoms: C2_2  and  S2_17 
REMARK    3  A    between atoms: C3_3  and  C4_5 
REMARK    4  A    between atoms: C4_5  and  C5_6 
REMARK    5  A    between atoms: S2_17  and  C13_18 
REMARK    6  A    between atoms: C14_20  and  N6_25 
REMARK    7  A    between atoms: C16_22  and  N5_24 
ROOT
ATOM      1  C4  <0> d          -1.811  -3.253   0.004  0.00  0.00     0.125 C 
ATOM      2  C12 <0> d          -1.385  -4.620  -0.006  0.00  0.00     0.106 C 
ATOM      3  N2  <0> d          -1.047  -5.704  -0.015  0.00  0.00    -0.191 NA
ENDROOT
BRANCH   1   4
ATOM      4  C3  <0> d          -3.181  -2.944   0.019  0.00  0.00     0.186 C 
ATOM      5  O1  <0> d          -3.543  -1.784   0.028  0.00  0.00    -0.290 OA
BRANCH   4   6
ATOM      6  C2  <0> d          -4.203  -4.052   0.024  0.00  0.00     0.127 C 
ATOM      7  C1  <0> d          -4.442  -4.519   1.461  0.00  0.00     0.030 C 
BRANCH   6   8
ATOM      8  S2  <0> d          -5.756  -3.444  -0.679  0.00  0.00    -0.077 SA
BRANCH   8   9
ATOM      9  C13 <0> d          -6.691  -4.937  -0.693  0.00  0.00     0.192 A 
ATOM     10  N4  <0> d          -7.934  -4.916  -1.152  0.00  0.00    -0.206 NA
ATOM     11  C16 <0> d          -8.670  -6.024  -1.178  0.00  0.00     0.127 A 
ATOM     12  C15 <0> d          -8.118  -7.215  -0.713  0.00  0.00     0.100 A 
ATOM     13  C14 <0> d          -6.811  -7.198  -0.237  0.00  0.00     0.127 A 
ATOM     14  N3  <0> d          -6.132  -6.053  -0.247  0.00  0.00    -0.206 NA
BRANCH  11  15
ATOM     15  N5  <0> d          -9.969  -5.994  -1.660  0.00  0.00    -0.384 N 
ATOM     16  H11 <0> d         -10.398  -5.049  -2.025  0.00  0.00     0.157 HD
ATOM     17  H12 <0> d         -10.572  -6.914  -1.677  0.00  0.00     0.157 HD
ENDBRANCH  11  15
BRANCH  13  18
ATOM     18  N6  <0> d          -6.220  -8.360   0.235  0.00  0.00    -0.384 N 
ATOM     19  H13 <0> d          -6.787  -9.302   0.240  0.00  0.00     0.157 HD
ATOM     20  H14 <0> d          -5.184  -8.339   0.604  0.00  0.00     0.157 HD
ENDBRANCH  13  18
ENDBRANCH   8   9
ENDBRANCH   6   8
ENDBRANCH   4   6
ENDBRANCH   1   4
BRANCH   1  21
ATOM     21  C5  <0> d          -0.857  -2.218  -0.000  0.00  0.00     0.100 A 
ATOM     22  S1  <0> d           0.872  -2.349  -0.018  0.00  0.00    -0.069 SA
ATOM     23  C11 <0> d           1.263  -0.618  -0.013  0.00  0.00     0.033 A 
ATOM     24  C6  <0> d           0.002  -0.004   0.002  0.00  0.00     0.050 A 
ATOM     25  C10 <0> d           2.434   0.102  -0.021  0.00  0.00     0.021 A 
ATOM     26  N1  <0> d          -1.069  -0.876   0.008  0.00  0.00    -0.348 N 
ATOM     27  C7  <0> d          -0.017   1.400   0.010  0.00  0.00     0.031 A 
ATOM     28  H5  <0> d          -2.096  -0.482   0.020  0.00  0.00     0.166 HD
ATOM     29  C8  <0> d           1.155   2.119   0.002  0.00  0.00     0.002 A 
ATOM     30  C9  <0> d           2.386   1.485  -0.013  0.00  0.00     0.002 A 
ENDBRANCH   1  21
TORSDOF 7
