REMARK  6 active torsions:
REMARK  status: ('A' for Active; 'I' for Inactive)
REMARK       I    between atoms: C2_2  and  N1_4 
REMARK    1  A    between atoms: N1_4  and  C3_5 
REMARK    2  A    between atoms: C5_7  and  N2_12 
REMARK       I    between atoms: N2_12  and  C9_13 
REMARK       I    between atoms: C9_13  and  N3_15 
REMARK    3  A    between atoms: N3_15  and  C10_16 
REMARK    4  A    between atoms: C10_16  and  C11_17 
REMARK    5  A    between atoms: C11_17  and  C12_18 
REMARK    6  A    between atoms: C11_17  and  N4_23 
ROOT
ATOM      1  N2  <0> d           1.287  -4.845  -0.014  0.00  0.00    -0.309 N 
ATOM      2  C9  <0> d           1.236  -6.152  -0.337  0.00  0.00     0.320 C 
ATOM      3  O2  <0> d           0.161  -6.698  -0.495  0.00  0.00    -0.247 OA
ATOM      4  N3  <0> d           2.377  -6.855  -0.485  0.00  0.00    -0.341 N 
ATOM      5  H9  <0> d           2.140  -4.426   0.181  0.00  0.00     0.170 HD
ATOM      6  H10 <0> d           3.234  -6.419  -0.359  0.00  0.00     0.164 HD
ENDROOT
BRANCH   1   7
ATOM      7  C5  <0> d           0.108  -4.091   0.041  0.00  0.00     0.038 A 
ATOM      8  C4  <0> d           0.004  -3.029   0.927  0.00  0.00     0.062 A 
ATOM      9  C3  <0> d          -1.165  -2.283   0.979  0.00  0.00     0.075 A 
ATOM     10  C8  <0> d          -2.231  -2.606   0.146  0.00  0.00     0.143 A 
ATOM     11  C7  <0> d          -2.121  -3.662  -0.741  0.00  0.00     0.047 A 
ATOM     12  F1  <0> d          -3.371  -1.884   0.199  0.00  0.00    -0.204 F 
ATOM     13  C6  <0> d          -0.957  -4.405  -0.793  0.00  0.00     0.032 A 
BRANCH   9  14
ATOM     14  N1  <0> d          -1.274  -1.211   1.873  0.00  0.00    -0.325 N 
ATOM     15  C2  <0> d          -0.187  -0.474   2.177  0.00  0.00     0.218 C 
ATOM     16  C1  <0> d          -0.326   0.753   3.041  0.00  0.00     0.117 C 
ATOM     17  O1  <0> d           0.903  -0.798   1.755  0.00  0.00    -0.274 OA
ATOM     18  H5  <0> d          -2.131  -0.999   2.274  0.00  0.00     0.169 HD
ENDBRANCH   9  14
ENDBRANCH   1   7
BRANCH   4  19
ATOM     19  C10 <0> d           2.322  -8.276  -0.837  0.00  0.00     0.163 C 
BRANCH  19  20
ATOM     20  C11 <0> d           3.735  -8.861  -0.819  0.00  0.00     0.244 C 
BRANCH  20  21
ATOM     21  C12 <0> d           4.285  -8.802   0.583  0.00  0.00     0.015 A 
ATOM     22  S1  <0> d           3.974  -9.896   1.960  0.00  0.00    -0.104 SA
ATOM     23  C15 <0> d           5.011  -9.085   3.165  0.00  0.00     0.050 A 
ATOM     24  C14 <0> d           5.512  -8.047   2.451  0.00  0.00     0.008 A 
ATOM     25  C13 <0> d           5.140  -7.902   1.128  0.00  0.00     0.017 A 
ENDBRANCH  20  21
BRANCH  20  26
ATOM     26  N4  <0> d           3.693 -10.258  -1.270  0.00  0.00    -0.068 N 
ATOM     27  C16 <0> d           3.267 -10.306  -2.675  0.00  0.00     0.270 C 
ATOM     28  C17 <0> d           5.029 -10.855  -1.142  0.00  0.00     0.270 C 
ATOM     29  H22 <0> d           3.038 -10.775  -0.703  0.00  0.00     0.279 HD
ENDBRANCH  20  26
ENDBRANCH  19  20
ENDBRANCH   4  19
TORSDOF 6
