REMARK  7 active torsions:
REMARK  status: ('A' for Active; 'I' for Inactive)
REMARK    1  A    between atoms: C2_2  and  O1_3 
REMARK    2  A    between atoms: O1_3  and  C3_4 
REMARK    3  A    between atoms: C5_6  and  C12_17 
REMARK    4  A    between atoms: C8_9  and  O2_10 
REMARK    5  A    between atoms: O2_10  and  C9_11 
REMARK    6  A    between atoms: C9_11  and  C10_12 
REMARK    7  A    between atoms: C10_12  and  O4_14 
ROOT
ATOM      1  C3  <0> d           3.542   2.249  -0.232  0.00  0.00     0.104 A 
ATOM      2  C4  <0> d           2.448   1.426  -0.050  0.00  0.00     0.051 A 
ATOM      3  C5  <0> d           1.155   1.946  -0.184  0.00  0.00    -0.030 A 
ATOM      4  C6  <0> d           0.978   3.297  -0.508  0.00  0.00     0.032 A 
ATOM      5  C7  <0> d           2.076   4.112  -0.681  0.00  0.00     0.043 A 
ATOM      6  C8  <0> d           3.358   3.594  -0.548  0.00  0.00     0.119 A 
ATOM      7  I1  <0> d           1.810   6.135  -1.157  0.00  0.00    -0.042 I 
ENDROOT
BRANCH   3   8
ATOM      8  C12 <0> d          -0.013   1.076   0.008  0.00  0.00     0.046 C 
ATOM      9  C13 <0> d          -1.113   1.548   0.646  0.00  0.00     0.105 A 
ATOM     10  N2  <0> d          -2.356   0.915   0.781  0.00  0.00    -0.304 N 
ATOM     11  C14 <0> d          -1.255   2.831   1.352  0.00  0.00     0.276 A 
ATOM     12  C15 <0> d          -3.158   1.733   1.485  0.00  0.00     0.327 A 
ATOM     13  H15 <0> d          -2.595   0.043   0.429  0.00  0.00     0.171 HD
ATOM     14  N1  <0> d          -2.518   2.864   1.821  0.00  0.00    -0.274 N 
ATOM     15  O6  <0> d          -4.311   1.482   1.779  0.00  0.00    -0.247 OA
ATOM     16  H14 <0> d          -2.906   3.594   2.329  0.00  0.00     0.173 HD
ATOM     17  O5  <0> d          -0.404   3.691   1.483  0.00  0.00    -0.266 OA
ENDBRANCH   3   8
BRANCH   1  18
ATOM     18  O1  <0> d           4.799   1.747  -0.102  0.00  0.00    -0.349 OA
BRANCH  18  19
ATOM     19  C2  <0> d           4.914   0.360   0.224  0.00  0.00     0.171 C 
ATOM     20  C1  <0> d           6.392  -0.019   0.327  0.00  0.00     0.034 C 
ENDBRANCH  18  19
ENDBRANCH   1  18
BRANCH   6  21
ATOM     21  O2  <0> d           4.436   4.401  -0.727  0.00  0.00    -0.337 OA
BRANCH  21  22
ATOM     22  C9  <0> d           4.963   4.497  -2.052  0.00  0.00     0.286 C 
BRANCH  22  23
ATOM     23  C10 <0> d           6.146   5.430  -2.055  0.00  0.00     0.282 C 
ATOM     24  O3  <0> d           6.502   5.958  -1.029  0.00  0.00    -0.263 OA
BRANCH  23  25
ATOM     25  O4  <0> d           6.805   5.673  -3.199  0.00  0.00    -0.325 OA
ATOM     26  C11 <0> d           7.936   6.582  -3.128  0.00  0.00     0.213 C 
ENDBRANCH  23  25
ENDBRANCH  22  23
ENDBRANCH  21  22
ENDBRANCH   6  21
TORSDOF 7
