REMARK  7 active torsions:
REMARK  status: ('A' for Active; 'I' for Inactive)
REMARK    1  A    between atoms: C2_2  and  C3_3 
REMARK    2  A    between atoms: C3_3  and  C5_5 
REMARK    3  A    between atoms: C5_5  and  N1_6 
REMARK    4  A    between atoms: N1_6  and  C7_8 
REMARK    5  A    between atoms: C7_8  and  C8_9 
REMARK    6  A    between atoms: C7_8  and  C9_11 
REMARK    7  A    between atoms: C8_9  and  N2_10 
ROOT
ATOM      1  C7  <0> d           0.610  -3.638  -2.131  0.00  0.00     0.246 C 
ENDROOT
BRANCH   1   2
ATOM      2  N1  <0> d           1.813  -2.805  -2.251  0.00  0.00    -0.065 N 
ATOM      3  C6  <0> d           1.965  -2.360  -3.643  0.00  0.00     0.270 C 
ATOM      4  H26 <0> d           1.727  -2.000  -1.648  0.00  0.00     0.280 HD
BRANCH   2   5
ATOM      5  C5  <0> d           2.992  -3.587  -1.856  0.00  0.00     0.239 C 
BRANCH   5   6
ATOM      6  C3  <0> d           2.902  -3.929  -0.367  0.00  0.00     0.007 C 
ATOM      7  C4  <0> d           2.966  -2.640   0.456  0.00  0.00     0.011 C 
BRANCH   6   8
ATOM      8  C2  <0> d           4.071  -4.838   0.018  0.00  0.00     0.001 C 
ATOM      9  C1  <0> d           3.913  -5.280   1.475  0.00  0.00     0.005 C 
ENDBRANCH   6   8
ENDBRANCH   5   6
ENDBRANCH   2   5
ENDBRANCH   1   2
BRANCH   1  10
ATOM     10  C8  <0> d          -0.596  -2.874  -2.683  0.00  0.00     0.267 C 
BRANCH  10  11
ATOM     11  N2  <0> d          -0.827  -1.672  -1.871  0.00  0.00    -0.077 N 
ATOM     12  H18 <0> d          -0.969  -1.938  -0.908  0.00  0.00     0.274 HD
ATOM     13  H19 <0> d          -0.025  -1.062  -1.937  0.00  0.00     0.274 HD
ATOM     14  H27 <0> d          -1.645  -1.189  -2.211  0.00  0.00     0.274 HD
ENDBRANCH  10  11
ENDBRANCH   1  10
BRANCH   1  15
ATOM     15  C9  <0> d           0.799  -4.911  -2.915  0.00  0.00    -0.022 A 
ATOM     16  C14 <0> d           0.648  -4.904  -4.289  0.00  0.00     0.031 A 
ATOM     17  C13 <0> d           0.826  -6.069  -5.013  0.00  0.00     0.047 A 
ATOM     18  C12 <0> d           1.146  -7.250  -4.359  0.00  0.00     0.119 A 
ATOM     19 Br1  <0> d           0.626  -6.053  -6.893  0.00  0.00    -0.048 Br
ATOM     20  C11 <0> d           1.294  -7.257  -2.978  0.00  0.00     0.104 A 
ATOM     21  O1  <0> d           1.306  -8.392  -5.083  0.00  0.00    -0.345 OA
ATOM     22  C10 <0> d           1.119  -6.084  -2.259  0.00  0.00     0.049 A 
ATOM     23  O2  <0> d           1.613  -8.404  -2.317  0.00  0.00    -0.346 OA
ATOM     24  C16 <0> d           1.411  -9.632  -3.025  0.00  0.00     0.202 C 
ATOM     25  C15 <0> d           1.989  -9.472  -4.438  0.00  0.00     0.202 C 
ENDBRANCH   1  15
TORSDOF 7
