REMARK  4 active torsions:
REMARK  status: ('A' for Active; 'I' for Inactive)
REMARK    1  A    between atoms: C3_3  and  O3_21 
REMARK    2  A    between atoms: C6_6  and  N1_7 
REMARK    3  A    between atoms: C9_11  and  N2_14 
REMARK    4  A    between atoms: N2_14  and  C11_15 
ROOT
ATOM      1  N1  <0> d           2.658   5.445   2.451  0.00  0.00    -0.251 N 
ATOM      2  C7  <0> d           2.796   6.302   1.432  0.00  0.00     0.233 A 
ATOM      3  O1  <0> d           2.888   7.506   1.535  0.00  0.00    -0.273 OA
ATOM      4  C8  <0> d           2.818   5.529   0.131  0.00  0.00     0.146 A 
ATOM      5  C9  <0> d           2.668   4.061   0.581  0.00  0.00     0.287 A 
ATOM      6  C10 <0> d           2.577   4.159   2.088  0.00  0.00     0.262 A 
ATOM      7  O2  <0> d           2.450   3.222   2.846  0.00  0.00    -0.270 OA
ENDROOT
BRANCH   5   8
ATOM      8  N2  <0> d           1.442   3.474   0.025  0.00  0.00    -0.058 N 
ATOM      9  H8  <0> d           0.579   3.780   0.635  0.00  0.00     0.278 HD
ATOM     10  H21 <0> d           1.302   3.824  -1.008  0.00  0.00     0.278 HD
BRANCH   8  11
ATOM     11  C11 <0> d           1.517   2.007   0.019  0.00  0.00     0.187 C 
ATOM     12  C16 <0> d           2.236   1.538  -1.248  0.00  0.00     0.033 C 
ATOM     13  C15 <0> d           2.315   0.010  -1.254  0.00  0.00     0.002 C 
ATOM     14  C14 <0> d           0.900  -0.573  -1.226  0.00  0.00     0.000 C 
ATOM     15  C13 <0> d           0.181  -0.104   0.040  0.00  0.00     0.002 C 
ATOM     16  C12 <0> d           0.103   1.423   0.047  0.00  0.00     0.033 C 
ENDBRANCH   8  11
ENDBRANCH   5   8
BRANCH   1  17
ATOM     17  C6  <0> d           2.604   5.861   3.791  0.00  0.00     0.045 A 
ATOM     18  C1  <0> d           1.427   5.720   4.514  0.00  0.00     0.033 A 
ATOM     19  C2  <0> d           1.376   6.125   5.833  0.00  0.00     0.039 A 
ATOM     20  C3  <0> d           2.496   6.681   6.433  0.00  0.00     0.065 A 
ATOM     21  C4  <0> d           3.671   6.827   5.709  0.00  0.00     0.039 A 
ATOM     22  C5  <0> d           3.725   6.418   4.391  0.00  0.00     0.033 A 
BRANCH  20  23
ATOM     23  O3  <0> d           2.443   7.085   7.730  0.00  0.00    -0.361 OA
ATOM     24  H20 <0> d           3.331   7.527   8.205  0.00  0.00     0.217 HD
ENDBRANCH  20  23
ENDBRANCH   1  17
TORSDOF 4
