REMARK  6 active torsions:
REMARK  status: ('A' for Active; 'I' for Inactive)
REMARK    1  A    between atoms: C2_2  and  N1_3 
REMARK    2  A    between atoms: C6_7  and  C7_8 
REMARK       I    between atoms: C7_8  and  N2_10 
REMARK    3  A    between atoms: N2_10  and  C8_11 
REMARK    4  A    between atoms: C8_11  and  C9_12 
REMARK    5  A    between atoms: C9_12  and  C10_13 
REMARK    6  A    between atoms: C10_13  and  N3_14 
ROOT
ATOM      1  C7  <0> d          -1.728  -0.621  -2.499  0.00  0.00     0.268 C 
ATOM      2  O1  <0> d          -2.542  -0.758  -3.393  0.00  0.00    -0.266 OA
ATOM      3  N2  <0> d          -0.447  -0.322  -2.795  0.00  0.00    -0.356 N 
ATOM      4  H8  <0> d           0.218  -0.286  -2.089  0.00  0.00     0.162 HD
ENDROOT
BRANCH   3   5
ATOM      5  C8  <0> d          -0.059  -0.051  -4.181  0.00  0.00     0.124 C 
BRANCH   5   6
ATOM      6  C9  <0> d           1.438   0.259  -4.240  0.00  0.00     0.041 C 
BRANCH   6   7
ATOM      7  C10 <0> d           1.843   0.542  -5.689  0.00  0.00     0.152 C 
BRANCH   7   8
ATOM      8  N3  <0> d           3.277   0.839  -5.746  0.00  0.00    -0.274 N 
ATOM      9  N4  <0> d           4.304  -0.095  -5.930  0.00  0.00    -0.177 NA
ATOM     10  C13 <0> d           5.445   0.547  -5.929  0.00  0.00     0.053 A 
ATOM     11  C12 <0> d           5.181   1.906  -5.733  0.00  0.00     0.055 A 
ATOM     12  C14 <0> d           6.808  -0.073  -6.101  0.00  0.00     0.072 C 
ATOM     13  C11 <0> d           3.840   2.058  -5.624  0.00  0.00     0.028 A 
ATOM     14  C15 <0> d           3.109   3.358  -5.405  0.00  0.00     0.070 C 
ENDBRANCH   7   8
ENDBRANCH   6   7
ENDBRANCH   5   6
ENDBRANCH   3   5
BRANCH   1  15
ATOM     15  C6  <0> d          -2.140  -0.780  -1.101  0.00  0.00     0.104 A 
ATOM     16  N1  <0> d          -3.380  -1.181  -0.659  0.00  0.00    -0.351 N 
ATOM     17  C3  <0> d          -3.368  -1.212   0.697  0.00  0.00     0.110 A 
ATOM     18  C4  <0> d          -2.143  -0.832   1.133  0.00  0.00     0.028 A 
ATOM     19  C5  <0> d          -1.356  -0.553   0.011  0.00  0.00     0.056 A 
ATOM     20 Br1  <0> d          -1.594  -0.703   2.938  0.00  0.00    -0.050 Br
BRANCH  16  21
ATOM     21  C2  <0> d          -4.521  -1.524  -1.511  0.00  0.00     0.124 C 
ATOM     22  C1  <0> d          -4.362  -2.957  -2.024  0.00  0.00     0.027 C 
ENDBRANCH  16  21
ENDBRANCH   1  15
TORSDOF 6
