REMARK  5 active torsions:
REMARK  status: ('A' for Active; 'I' for Inactive)
REMARK    1  A    between atoms: C4_4  and  N1_7 
REMARK    2  A    between atoms: N1_7  and  S1_8 
REMARK    3  A    between atoms: S1_8  and  C7_11 
REMARK    4  A    between atoms: C18_22  and  C19_24 
REMARK    5  A    between atoms: C24_29  and  N3_30 
ROOT
ATOM      1  C7  <0> d          -0.780   2.005   1.668  0.00  0.00     0.080 A 
ATOM      2  C8  <0> d          -0.615   3.285   2.165  0.00  0.00     0.027 A 
ATOM      3  C9  <0> d          -1.118   3.616   3.406  0.00  0.00     0.031 A 
ATOM      4  C10 <0> d          -1.783   2.666   4.171  0.00  0.00     0.035 A 
ATOM      5  C11 <0> d          -1.950   1.374   3.659  0.00  0.00    -0.022 A 
ATOM      6  C12 <0> d          -1.444   1.052   2.418  0.00  0.00     0.035 A 
ATOM      7  C13 <0> d          -2.696   0.402   4.488  0.00  0.00     0.050 C 
ATOM      8  C14 <0> d          -2.471  -1.062   4.372  0.00  0.00    -0.021 C 
ATOM      9  C15 <0> d          -2.681  -1.619   5.558  0.00  0.00    -0.029 C 
ATOM     10  C16 <0> d          -3.036  -0.543   6.586  0.00  0.00     0.035 C 
ATOM     11  C17 <0> d          -2.361   0.695   5.982  0.00  0.00     0.028 C 
ATOM     12  C18 <0> d          -2.990   2.044   6.281  0.00  0.00     0.123 C 
ATOM     13  N2  <0> d          -2.262   3.018   5.439  0.00  0.00    -0.380 N 
ATOM     14  H17 <0> d          -2.113   3.917   5.771  0.00  0.00     0.160 HD
ENDROOT
BRANCH   1  15
ATOM     15  S1  <0> d          -0.136   1.586   0.082  0.00  0.00     0.263 S 
ATOM     16  O1  <0> d          -0.048   0.168   0.041  0.00  0.00    -0.200 OA
ATOM     17  O2  <0> d           0.990   2.426  -0.134  0.00  0.00    -0.200 OA
BRANCH  15  18
ATOM     18  N1  <0> d          -1.274   2.022  -1.039  0.00  0.00    -0.281 N 
ATOM     19  H9  <0> d          -1.683   1.347  -1.604  0.00  0.00     0.179 HD
BRANCH  18  20
ATOM     20  C4  <0> d          -1.647   3.362  -1.171  0.00  0.00     0.042 A 
ATOM     21  C3  <0> d          -0.792   4.264  -1.792  0.00  0.00     0.030 A 
ATOM     22  C2  <0> d          -1.163   5.588  -1.921  0.00  0.00     0.002 A 
ATOM     23  C1  <0> d          -2.385   6.016  -1.434  0.00  0.00     0.000 A 
ATOM     24  C6  <0> d          -3.238   5.120  -0.816  0.00  0.00     0.002 A 
ATOM     25  C5  <0> d          -2.875   3.794  -0.688  0.00  0.00     0.030 A 
ENDBRANCH  18  20
ENDBRANCH  15  18
ENDBRANCH   1  15
BRANCH  12  26
ATOM     26  C19 <0> d          -4.452   2.029   5.915  0.00  0.00    -0.002 A 
ATOM     27  C24 <0> d          -5.386   1.564   6.821  0.00  0.00     0.111 A 
ATOM     28  C23 <0> d          -6.727   1.551   6.485  0.00  0.00     0.037 A 
ATOM     29  C22 <0> d          -7.133   2.003   5.243  0.00  0.00     0.002 A 
ATOM     30  C21 <0> d          -6.199   2.469   4.337  0.00  0.00     0.001 A 
ATOM     31  C20 <0> d          -4.858   2.486   4.675  0.00  0.00     0.012 A 
BRANCH  27  32
ATOM     32  N3  <0> d          -4.951   1.080   8.150  0.00  0.00    -0.115 N 
ATOM     33  O3  <0> d          -5.758   0.571   8.907  0.00  0.00    -0.532 OA
ATOM     34  O4  <0> d          -3.786   1.192   8.488  0.00  0.00    -0.532 OA
ENDBRANCH  27  32
ENDBRANCH  12  26
TORSDOF 5
