REMARK  6 active torsions:
REMARK  status: ('A' for Active; 'I' for Inactive)
REMARK    1  A    between atoms: C3_3  and  C18_23 
REMARK    2  A    between atoms: C7_7  and  N1_8 
REMARK       I    between atoms: N1_8  and  C8_9 
REMARK    3  A    between atoms: C8_9  and  C9_11 
REMARK       I    between atoms: C9_11  and  N2_13 
REMARK    4  A    between atoms: N2_13  and  C10_14 
REMARK    5  A    between atoms: N2_13  and  C13_17 
REMARK    6  A    between atoms: C13_17  and  C14_18 
REMARK       I    between atoms: C18_23  and  N3_25 
ROOT
ATOM      1  C10 <0> d           1.283  -1.993   5.870  0.00  0.00     0.220 C 
ATOM      2  C11 <0> d           2.736  -2.189   5.736  0.00  0.00    -0.098 C 
ATOM      3  C12 <0> d           3.894  -2.346   5.628  0.00  0.00     0.014 C 
ENDROOT
BRANCH   1   4
ATOM      4  N2  <0> d           0.985  -0.559   5.893  0.00  0.00    -0.327 N 
ATOM      5  C9  <0> d           0.910   0.132   4.738  0.00  0.00     0.312 C 
ATOM      6  O2  <0> d           0.703   1.327   4.758  0.00  0.00    -0.262 OA
BRANCH   5   7
ATOM      7  C8  <0> d           1.083  -0.574   3.433  0.00  0.00     0.314 C 
ATOM      8  N1  <0> d           1.078   0.127   2.282  0.00  0.00    -0.318 N 
ATOM      9  H7  <0> d           0.873   1.075   2.292  0.00  0.00     0.169 HD
ATOM     10  O1  <0> d           1.229  -1.779   3.409  0.00  0.00    -0.262 OA
BRANCH   8  11
ATOM     11  C7  <0> d           1.368  -0.512   1.073  0.00  0.00     0.042 A 
ATOM     12  C2  <0> d           0.910   0.023  -0.121  0.00  0.00    -0.019 A 
ATOM     13  C1  <0> d           0.100   1.293  -0.120  0.00  0.00     0.052 C 
ATOM     14  C3  <0> d           1.208  -0.616  -1.325  0.00  0.00     0.040 A 
ATOM     15  C4  <0> d           1.959  -1.792  -1.319  0.00  0.00     0.018 A 
ATOM     16  C5  <0> d           2.405  -2.320  -0.124  0.00  0.00     0.003 A 
ATOM     17  C6  <0> d           2.111  -1.688   1.069  0.00  0.00     0.030 A 
BRANCH  14  18
ATOM     18  C18 <0> d           0.728  -0.049  -2.604  0.00  0.00     0.251 C 
ATOM     19  O4  <0> d           0.183   1.037  -2.621  0.00  0.00    -0.268 OA
ATOM     20  N3  <0> d           0.895  -0.737  -3.751  0.00  0.00    -0.361 N 
ATOM     21  C19 <0> d           0.419  -0.175  -5.018  0.00  0.00     0.149 C 
ATOM     22  H16 <0> d           1.330  -1.604  -3.737  0.00  0.00     0.162 HD
ENDBRANCH  14  18
ENDBRANCH   8  11
ENDBRANCH   5   7
BRANCH   4  23
ATOM     23  C13 <0> d           0.766   0.124   7.170  0.00  0.00     0.192 C 
BRANCH  23  24
ATOM     24  C14 <0> d          -0.697   0.070   7.525  0.00  0.00     0.070 A 
ATOM     25  O3  <0> d          -1.623   0.980   7.181  0.00  0.00    -0.325 OA
ATOM     26  C17 <0> d          -2.819   0.607   7.665  0.00  0.00     0.142 A 
ATOM     27  C16 <0> d          -2.665  -0.548   8.335  0.00  0.00     0.027 A 
ATOM     28  C15 <0> d          -1.297  -0.895   8.245  0.00  0.00     0.036 A 
ENDBRANCH  23  24
ENDBRANCH   4  23
ENDBRANCH   1   4
TORSDOF 6
