REMARK  8 active torsions:
REMARK  status: ('A' for Active; 'I' for Inactive)
REMARK    1  A    between atoms: C2_2  and  O2_4 
REMARK    2  A    between atoms: O2_4  and  C3_5 
REMARK    3  A    between atoms: C3_5  and  C4_6 
REMARK    4  A    between atoms: C4_6  and  C5_8 
REMARK    5  A    between atoms: C5_8  and  O8_34 
REMARK    6  A    between atoms: C6_9  and  O6_30 
REMARK    7  A    between atoms: C11_14  and  O5_28 
REMARK    8  A    between atoms: O6_30  and  C24_31 
ROOT
ATOM      1  C5  <0> d          -2.930  -3.184  -0.199  0.00  0.00     0.154 C 
ATOM      2  C6  <0> d          -2.767  -3.741   1.228  0.00  0.00     0.175 C 
ATOM      3  C7  <0> d          -3.958  -4.697   1.467  0.00  0.00     0.042 C 
ATOM      4  C8  <0> d          -4.387  -5.099   0.044  0.00  0.00     0.007 C 
ATOM      5  C9  <0> d          -4.245  -3.793  -0.756  0.00  0.00     0.004 C 
ATOM      6  C10 <0> d          -5.368  -2.817  -0.392  0.00  0.00     0.048 C 
ATOM      7  C11 <0> d          -6.731  -3.474  -0.582  0.00  0.00     0.160 C 
ATOM      8  C12 <0> d          -6.844  -4.667   0.375  0.00  0.00     0.147 C 
ATOM      9  C13 <0> d          -5.782  -5.676   0.000  0.00  0.00     0.035 C 
ATOM     10  C14 <0> d          -5.880  -6.877   0.945  0.00  0.00     0.013 C 
ATOM     11  C15 <0> d          -7.239  -7.562   0.772  0.00  0.00     0.036 C 
ATOM     12  C16 <0> d          -8.320  -6.519   0.988  0.00  0.00    -0.061 A 
ATOM     13  C17 <0> d          -9.292  -6.771   1.853  0.00  0.00     0.058 A 
ATOM     14  C18 <0> d         -10.345  -5.775   2.105  0.00  0.00     0.172 A 
ATOM     15  O4  <0> d         -11.261  -6.017   2.868  0.00  0.00    -0.289 OA
ATOM     16  C19 <0> d         -10.266  -4.478   1.411  0.00  0.00     0.052 A 
ATOM     17  C20 <0> d          -9.291  -4.252   0.545  0.00  0.00    -0.006 A 
ATOM     18  C21 <0> d          -8.232  -5.294   0.212  0.00  0.00     0.036 A 
ATOM     19  C22 <0> d          -8.414  -5.644  -1.266  0.00  0.00     0.028 C 
ATOM     20  F1  <0> d          -6.668  -4.237   1.695  0.00  0.00    -0.238 F 
ATOM     21  C23 <0> d          -4.166  -4.051  -2.262  0.00  0.00     0.019 C 
ENDROOT
BRANCH   1  22
ATOM     22  C4  <0> d          -3.031  -1.681  -0.160  0.00  0.00     0.188 C 
ATOM     23  O3  <0> d          -3.372  -1.125   0.856  0.00  0.00    -0.292 OA
BRANCH  22  24
ATOM     24  C3  <0> d          -2.708  -0.872  -1.390  0.00  0.00     0.260 C 
BRANCH  24  25
ATOM     25  O2  <0> d          -2.877   0.518  -1.103  0.00  0.00    -0.314 OA
BRANCH  25  26
ATOM     26  C2  <0> d          -2.627   1.380  -2.101  0.00  0.00     0.255 C 
ATOM     27  C1  <0> d          -2.784   2.862  -1.873  0.00  0.00     0.126 C 
ATOM     28  O1  <0> d          -2.276   0.969  -3.182  0.00  0.00    -0.266 OA
ENDBRANCH  25  26
ENDBRANCH  24  25
ENDBRANCH  22  24
ENDBRANCH   1  22
BRANCH   1  29
ATOM     29  O8  <0> d          -1.823  -3.580  -1.012  0.00  0.00    -0.378 OA
ATOM     30  H31 <0> d          -0.971  -3.241  -0.707  0.00  0.00     0.211 HD
ENDBRANCH   1  29
BRANCH   2  31
ATOM     31  O6  <0> d          -1.534  -4.456   1.336  0.00  0.00    -0.313 OA
BRANCH  31  32
ATOM     32  C24 <0> d          -0.940  -4.466   2.539  0.00  0.00     0.255 C 
ATOM     33  O7  <0> d          -1.449  -3.888   3.470  0.00  0.00    -0.266 OA
ATOM     34  C25 <0> d           0.363  -5.200   2.730  0.00  0.00     0.126 C 
ENDBRANCH  31  32
ENDBRANCH   2  31
BRANCH   7  35
ATOM     35  O5  <0> d          -6.861  -3.926  -1.931  0.00  0.00    -0.392 OA
ATOM     36  H24 <0> d          -6.790  -3.222  -2.591  0.00  0.00     0.210 HD
ENDBRANCH   7  35
TORSDOF 8
