REMARK  5 active torsions:
REMARK  status: ('A' for Active; 'I' for Inactive)
REMARK    1  A    between atoms: C4_4  and  C19_28 
REMARK    2  A    between atoms: C6_6  and  S1_9 
REMARK    3  A    between atoms: S1_9  and  N1_12 
REMARK    4  A    between atoms: N1_12  and  N2_13 
REMARK       I    between atoms: N2_13  and  C9_14 
REMARK    5  A    between atoms: C9_14  and  C10_16 
ROOT
ATOM      1  N1  <0> d           3.641  -5.109  -0.149  0.00  0.00    -0.220 N 
ATOM      2  H9  <0> d           4.345  -4.980  -0.804  0.00  0.00     0.200 HD
ENDROOT
BRANCH   1   3
ATOM      3  S1  <0> d           3.899  -6.086   1.163  0.00  0.00     0.276 S 
ATOM      4  O1  <0> d           5.158  -6.714   0.960  0.00  0.00    -0.199 OA
ATOM      5  O2  <0> d           3.615  -5.304   2.315  0.00  0.00    -0.199 OA
BRANCH   3   6
ATOM      6  C6  <0> d           2.686  -7.363   1.108  0.00  0.00     0.088 A 
ATOM      7  C5  <0> d           1.726  -7.442   2.096  0.00  0.00     0.044 A 
ATOM      8  C4  <0> d           0.765  -8.454   2.051  0.00  0.00     0.042 A 
ATOM      9  C3  <0> d           0.783  -9.379   1.006  0.00  0.00     0.025 A 
ATOM     10  C2  <0> d           1.748  -9.288   0.024  0.00  0.00    -0.053 A 
ATOM     11  C1  <0> d           1.768 -10.285  -1.106  0.00  0.00     0.049 C 
ATOM     12  C7  <0> d           2.694  -8.279   0.072  0.00  0.00    -0.033 A 
ATOM     13  C8  <0> d           3.742  -8.182  -1.007  0.00  0.00     0.050 C 
BRANCH   8  14
ATOM     14  C19 <0> d          -0.266  -8.546   3.105  0.00  0.00     0.209 C 
ATOM     15  O5  <0> d          -0.279  -7.739   4.014  0.00  0.00    -0.644 OA
ATOM     16  O6  <0> d          -1.191  -9.524   3.059  0.00  0.00    -0.644 OA
ENDBRANCH   8  14
ENDBRANCH   3   6
ENDBRANCH   1   3
BRANCH   1  17
ATOM     17  N2  <0> d           2.406  -4.468  -0.312  0.00  0.00    -0.255 N 
ATOM     18  C9  <0> d           2.356  -3.128  -0.451  0.00  0.00     0.291 C 
ATOM     19  O3  <0> d           3.382  -2.476  -0.435  0.00  0.00    -0.264 OA
ATOM     20  H10 <0> d           1.588  -4.988  -0.325  0.00  0.00     0.191 HD
BRANCH  18  21
ATOM     21  C10 <0> d           1.055  -2.452  -0.623  0.00  0.00     0.157 A 
ATOM     22  N4  <0> d          -0.056  -3.147  -0.642  0.00  0.00    -0.164 NA
ATOM     23  N3  <0> d          -1.222  -2.639  -0.787  0.00  0.00    -0.238 N 
ATOM     24  C17 <0> d          -1.444  -1.317  -0.938  0.00  0.00     0.274 A 
ATOM     25  C18 <0> d          -2.376  -3.541  -0.789  0.00  0.00     0.183 C 
ATOM     26  C16 <0> d          -0.289  -0.408  -0.937  0.00  0.00     0.046 A 
ATOM     27  O4  <0> d          -2.575  -0.887  -1.073  0.00  0.00    -0.266 OA
ATOM     28  C11 <0> d           0.990  -0.990  -0.776  0.00  0.00     0.016 A 
ATOM     29  C15 <0> d          -0.412   0.970  -1.086  0.00  0.00     0.018 A 
ATOM     30  C12 <0> d           2.120  -0.180  -0.767  0.00  0.00     0.015 A 
ATOM     31  C13 <0> d           1.978   1.183  -0.916  0.00  0.00     0.001 A 
ATOM     32  C14 <0> d           0.722   1.754  -1.075  0.00  0.00     0.001 A 
ENDBRANCH  18  21
ENDBRANCH   1  17
TORSDOF 5
