REMARK  3 active torsions:
REMARK  status: ('A' for Active; 'I' for Inactive)
REMARK    1  A    between atoms: C6_6  and  S1_7 
REMARK    2  A    between atoms: S1_7  and  N1_10 
REMARK    3  A    between atoms: C9_13  and  C12_16 
ROOT
ATOM      1  C1  <0> d          -1.880   1.053  -1.954  0.00  0.00     0.027 A 
ATOM      2  C2  <0> d          -2.620   1.439  -3.053  0.00  0.00     0.031 A 
ATOM      3  C3  <0> d          -2.431   2.700  -3.615  0.00  0.00     0.041 A 
ATOM      4  C4  <0> d          -1.493   3.555  -3.050  0.00  0.00    -0.021 A 
ATOM      5  C5  <0> d          -0.760   3.169  -1.951  0.00  0.00     0.035 A 
ATOM      6  C6  <0> d          -0.954   1.915  -1.397  0.00  0.00     0.080 A 
ATOM      7  C13 <0> d          -1.523   4.822  -3.873  0.00  0.00     0.144 A 
ATOM      8  C14 <0> d          -2.571   4.550  -4.931  0.00  0.00     0.226 A 
ATOM      9  O4  <0> d          -2.920   5.308  -5.811  0.00  0.00    -0.273 OA
ATOM     10  N2  <0> d          -3.042   3.311  -4.711  0.00  0.00    -0.326 N 
ATOM     11  H16 <0> d          -3.814   2.773  -5.281  0.00  0.00     0.169 HD
ENDROOT
BRANCH   6  12
ATOM     12  S1  <0> d          -0.017   1.417   0.010  0.00  0.00     0.260 S 
ATOM     13  O1  <0> d           0.002  -0.004   0.002  0.00  0.00    -0.200 OA
ATOM     14  O2  <0> d           1.172   2.195   0.003  0.00  0.00    -0.200 OA
BRANCH  12  15
ATOM     15  N1  <0> d          -0.872   1.871   1.353  0.00  0.00    -0.307 N 
ATOM     16  C11 <0> d          -1.852   0.960   1.960  0.00  0.00     0.136 C 
ATOM     17  C10 <0> d          -3.193   1.690   2.083  0.00  0.00     0.032 C 
ATOM     18  C9  <0> d          -2.990   2.998   2.852  0.00  0.00     0.050 C 
ATOM     19  C8  <0> d          -2.019   3.897   2.084  0.00  0.00     0.032 C 
ATOM     20  C7  <0> d          -0.660   3.190   1.965  0.00  0.00     0.136 C 
BRANCH  18  21
ATOM     21  C12 <0> d          -4.314   3.702   3.004  0.00  0.00     0.235 C 
ATOM     22  O3  <0> d          -4.750   3.935   4.106  0.00  0.00    -0.306 OA
ENDBRANCH  18  21
ENDBRANCH  12  15
ENDBRANCH   6  12
TORSDOF 3
