REMARK  6 active torsions:
REMARK  status: ('A' for Active; 'I' for Inactive)
REMARK    1  A    between atoms: C2_2  and  C3_3 
REMARK    2  A    between atoms: C2_2  and  N1_8 
REMARK    3  A    between atoms: N1_8  and  C8_10 
REMARK    4  A    between atoms: C8_10  and  C9_11 
REMARK       I    between atoms: C9_11  and  N2_13 
REMARK    5  A    between atoms: N2_13  and  C10_14 
REMARK    6  A    between atoms: C15_19  and  N3_20 
ROOT
ATOM      1  C9  <0> d          -2.766  -2.502  -0.105  0.00  0.00     0.248 C 
ATOM      2  O1  <0> d          -3.695  -1.726  -0.179  0.00  0.00    -0.271 OA
ATOM      3  N2  <0> d          -2.993  -3.830  -0.135  0.00  0.00    -0.324 N 
ATOM      4  H13 <0> d          -2.247  -4.450  -0.157  0.00  0.00     0.169 HD
ENDROOT
BRANCH   1   5
ATOM      5  C8  <0> d          -1.357  -1.982   0.020  0.00  0.00     0.337 C 
BRANCH   5   6
ATOM      6  N1  <0> d          -1.377  -0.513   0.030  0.00  0.00    -0.058 N 
ATOM      7  C7  <0> d          -2.074  -0.041   1.233  0.00  0.00     0.271 C 
ATOM      8  H19 <0> d          -1.858  -0.178  -0.791  0.00  0.00     0.280 HD
BRANCH   6   9
ATOM      9  C2  <0> d           0.002  -0.005   0.031  0.00  0.00     0.224 C 
ATOM     10  C1  <0> d          -0.019   1.525   0.041  0.00  0.00     0.046 C 
BRANCH   9  11
ATOM     11  C3  <0> d           0.717  -0.489  -1.204  0.00  0.00     0.013 A 
ATOM     12  S1  <0> d           0.103  -0.635  -2.874  0.00  0.00    -0.104 SA
ATOM     13  C6  <0> d           1.589  -1.269  -3.634  0.00  0.00     0.050 A 
ATOM     14  C5  <0> d           2.438  -1.333  -2.579  0.00  0.00     0.008 A 
ATOM     15  C4  <0> d           1.991  -0.933  -1.334  0.00  0.00     0.017 A 
ENDBRANCH   9  11
ENDBRANCH   6   9
ENDBRANCH   5   6
ENDBRANCH   1   5
BRANCH   3  16
ATOM     16  C10 <0> d          -4.309  -4.317  -0.135  0.00  0.00     0.061 A 
ATOM     17  C15 <0> d          -4.590  -5.571  -0.674  0.00  0.00     0.055 A 
ATOM     18  C14 <0> d          -5.892  -6.050  -0.666  0.00  0.00     0.073 A 
ATOM     19  C13 <0> d          -6.909  -5.277  -0.133  0.00  0.00     0.118 A 
ATOM     20  C12 <0> d          -6.630  -4.029   0.398  0.00  0.00     0.044 A 
ATOM     21  F1  <0> d          -8.178  -5.742  -0.130  0.00  0.00    -0.206 F 
ATOM     22  C11 <0> d          -5.333  -3.549   0.397  0.00  0.00     0.035 A 
BRANCH  17  23
ATOM     23  N3  <0> d          -3.562  -6.348  -1.218  0.00  0.00    -0.397 N 
ATOM     24  H17 <0> d          -2.651  -6.013  -1.220  0.00  0.00     0.156 HD
ATOM     25  H18 <0> d          -3.759  -7.220  -1.593  0.00  0.00     0.156 HD
ENDBRANCH  17  23
ENDBRANCH   3  16
TORSDOF 6
