REMARK  6 active torsions:
REMARK  status: ('A' for Active; 'I' for Inactive)
REMARK    1  A    between atoms: N1_2  and  C3_4 
REMARK    2  A    between atoms: N4_12  and  C15_22 
REMARK    3  A    between atoms: N5_14  and  C8_15 
REMARK    4  A    between atoms: C8_15  and  C9_16 
REMARK    5  A    between atoms: C15_22  and  C16_23 
REMARK    6  A    between atoms: C16_23  and  O3_25 
ROOT
ATOM      1  C3  <0> d           0.000  -0.684  -1.190  0.00  0.00     0.706 A 
ATOM      2  N2  <0> d           0.013  -2.047  -1.175  0.00  0.00    -0.152 N 
ATOM      3  H1  <0> d           0.024  -2.520  -0.328  0.00  0.00     0.187 HD
ATOM      4  C4  <0> d           0.011  -2.742  -2.334  0.00  0.00     0.290 A 
ATOM      5  O1  <0> d           0.022  -3.961  -2.330  0.00  0.00    -0.265 OA
ATOM      6  C5  <0> d          -0.004  -2.021  -3.550  0.00  0.00     0.152 A 
ATOM      7  C6  <0> d          -0.017  -0.622  -3.499  0.00  0.00     0.183 A 
ATOM      8  N3  <0> d          -0.020  -0.002  -2.313  0.00  0.00    -0.044 NA
ATOM      9  N4  <0> d          -0.031  -0.195  -4.799  0.00  0.00    -0.316 N 
ATOM     10  C7  <0> d          -0.027  -1.304  -5.595  0.00  0.00     0.188 A 
ATOM     11  N5  <0> d          -0.011  -2.376  -4.858  0.00  0.00    -0.331 N 
ENDROOT
BRANCH  11  12
ATOM     12  C8  <0> d          -0.003  -3.751  -5.363  0.00  0.00     0.168 C 
BRANCH  12  13
ATOM     13  C9  <0> d          -1.413  -4.278  -5.409  0.00  0.00    -0.040 A 
ATOM     14  C14 <0> d          -2.177  -4.110  -6.549  0.00  0.00     0.009 A 
ATOM     15  C13 <0> d          -3.470  -4.598  -6.592  0.00  0.00     0.001 A 
ATOM     16  C12 <0> d          -4.002  -5.245  -5.493  0.00  0.00     0.000 A 
ATOM     17  C11 <0> d          -3.240  -5.408  -4.351  0.00  0.00     0.001 A 
ATOM     18  C10 <0> d          -1.946  -4.925  -4.309  0.00  0.00     0.009 A 
ENDBRANCH  12  13
ENDBRANCH  11  12
BRANCH   9  19
ATOM     19  C15 <0> d          -0.048   1.198  -5.254  0.00  0.00     0.242 C 
BRANCH  19  20
ATOM     20  C16 <0> d           1.362   1.727  -5.302  0.00  0.00     0.276 C 
ATOM     21  O2  <0> d           2.287   1.014  -4.990  0.00  0.00    -0.263 OA
BRANCH  20  22
ATOM     22  O3  <0> d           1.592   2.991  -5.693  0.00  0.00    -0.325 OA
ATOM     23  C17 <0> d           2.953   3.426  -5.716  0.00  0.00     0.213 C 
ENDBRANCH  20  22
ENDBRANCH  19  20
ENDBRANCH   9  19
BRANCH   1  24
ATOM     24  N1  <0> d           0.002  -0.004   0.002  0.00  0.00    -0.224 N 
ATOM     25  C1  <0> d          -0.018   1.461   0.010  0.00  0.00     0.168 C 
ATOM     26  C2  <0> d           0.024  -0.743   1.267  0.00  0.00     0.168 C 
ENDBRANCH   1  24
TORSDOF 6
