REMARK  4 active torsions:
REMARK  status: ('A' for Active; 'I' for Inactive)
REMARK    1  A    between atoms: C2_2  and  O2_4 
REMARK    2  A    between atoms: O2_4  and  C3_5 
REMARK    3  A    between atoms: C4_6  and  C11_16 
REMARK    4  A    between atoms: C11_16  and  O6_17 
ROOT
ATOM      1  C3  <0> d          -2.286  -2.656  -0.185  0.00  0.00     0.194 C 
ATOM      2  C4  <0> d          -1.957  -3.697  -1.270  0.00  0.00     0.177 C 
ATOM      3  O3  <0> d          -1.507  -2.993  -2.432  0.00  0.00    -0.371 OA
ATOM      4  C5  <0> d          -1.081  -1.679  -2.042  0.00  0.00     0.177 C 
ATOM      5  C6  <0> d          -1.944  -1.297  -0.835  0.00  0.00     0.188 C 
ATOM      6  O4  <0> d          -1.317  -0.456   0.089  0.00  0.00    -0.345 OA
ATOM      7  C7  <0> d           0.002  -0.004   0.002  0.00  0.00     0.157 C 
ATOM      8  O5  <0> d           0.736  -0.427  -1.131  0.00  0.00    -0.353 OA
ATOM      9  C8  <0> d           0.391  -1.722  -1.626  0.00  0.00     0.206 C 
ATOM     10  C9  <0> d          -0.019   1.526   0.010  0.00  0.00     0.078 C 
ATOM     11  C10 <0> d           0.748  -0.472   1.253  0.00  0.00     0.078 C 
ENDROOT
BRANCH   1  12
ATOM     12  O2  <0> d          -1.468  -2.873   0.994  0.00  0.00    -0.311 OA
BRANCH  12  13
ATOM     13  C2  <0> d          -2.002  -3.613   1.979  0.00  0.00     0.255 C 
ATOM     14  C1  <0> d          -1.212  -3.881   3.234  0.00  0.00     0.126 C 
ATOM     15  O1  <0> d          -3.117  -4.063   1.859  0.00  0.00    -0.266 OA
ENDBRANCH  12  13
ENDBRANCH   1  12
BRANCH   2  16
ATOM     16  C11 <0> d          -3.211  -4.507  -1.607  0.00  0.00     0.198 C 
BRANCH  16  17
ATOM     17  O6  <0> d          -2.873  -5.546  -2.527  0.00  0.00    -0.398 OA
ATOM     18  H18 <0> d          -3.650  -6.236  -2.887  0.00  0.00     0.209 HD
ENDBRANCH  16  17
ENDBRANCH   2  16
TORSDOF 4
