REMARK  5 active torsions:
REMARK  status: ('A' for Active; 'I' for Inactive)
REMARK    1  A    between atoms: C2_2  and  C3_3 
REMARK    2  A    between atoms: C3_3  and  C4_4 
REMARK    3  A    between atoms: C4_4  and  C6_6 
REMARK    4  A    between atoms: C6_6  and  C7_7 
REMARK    5  A    between atoms: C6_6  and  N3_20 
ROOT
ATOM      1  C7  <0> d           1.582  -4.027  -2.466  0.00  0.00    -0.008 A 
ATOM      2  C8  <0> d           0.741  -4.721  -3.313  0.00  0.00     0.042 A 
ATOM      3  C9  <0> d           0.759  -6.107  -3.320  0.00  0.00     0.066 A 
ATOM      4  C10 <0> d           1.629  -6.796  -2.472  0.00  0.00     0.066 A 
ATOM      5  C11 <0> d           2.470  -6.091  -1.625  0.00  0.00     0.052 A 
ATOM      6  C12 <0> d           2.449  -4.709  -1.628  0.00  0.00     0.021 A 
ATOM      7 Br1  <0> d           3.602  -3.746  -0.480  0.00  0.00    -0.050 Br
ATOM      8  N1  <0> d           1.423  -8.154  -2.701  0.00  0.00    -0.302 N 
ATOM      9  C13 <0> d           0.473  -8.286  -3.645  0.00  0.00     0.329 A 
ATOM     10  O1  <0> d           0.056  -9.345  -4.077  0.00  0.00    -0.246 OA
ATOM     11  N2  <0> d           0.052  -7.069  -4.039  0.00  0.00    -0.302 N 
ATOM     12  C14 <0> d          -0.974  -6.802  -5.049  0.00  0.00     0.161 C 
ATOM     13  C15 <0> d           2.123  -9.253  -2.030  0.00  0.00     0.161 C 
ENDROOT
BRANCH   1  14
ATOM     14  C6  <0> d           1.562  -2.520  -2.457  0.00  0.00     0.221 C 
BRANCH  14  15
ATOM     15  C4  <0> d           0.739  -2.027  -1.265  0.00  0.00     0.016 C 
ATOM     16  C5  <0> d          -0.692  -2.556  -1.380  0.00  0.00     0.012 C 
BRANCH  15  17
ATOM     17  C3  <0> d           0.718  -0.497  -1.257  0.00  0.00     0.006 C 
BRANCH  17  18
ATOM     18  C2  <0> d           0.002  -0.004   0.002  0.00  0.00    -0.004 C 
ATOM     19  C1  <0> d          -0.019   1.526   0.010  0.00  0.00     0.005 C 
ENDBRANCH  17  18
ENDBRANCH  15  17
ENDBRANCH  14  15
BRANCH  14  20
ATOM     20  N3  <0> d           0.958  -2.031  -3.704  0.00  0.00    -0.071 N 
ATOM     21  H21 <0> d           0.014  -2.380  -3.780  0.00  0.00     0.275 HD
ATOM     22  H22 <0> d           0.944  -1.022  -3.699  0.00  0.00     0.275 HD
ATOM     23  H23 <0> d           1.501  -2.356  -4.490  0.00  0.00     0.275 HD
ENDBRANCH  14  20
ENDBRANCH   1  14
TORSDOF 5
