REMARK  6 active torsions:
REMARK  status: ('A' for Active; 'I' for Inactive)
REMARK    1  A    between atoms: C2_2  and  C4_4 
REMARK    2  A    between atoms: C2_2  and  N4_21 
REMARK    3  A    between atoms: C4_4  and  N1_5 
REMARK       I    between atoms: N1_5  and  C5_6 
REMARK    4  A    between atoms: C5_6  and  C6_8 
REMARK    5  A    between atoms: C6_8  and  C7_9 
REMARK    6  A    between atoms: C7_9  and  N2_10 
ROOT
ATOM      1  N1  <0> d          -1.390  -1.964  -0.383  0.00  0.00    -0.359 N 
ATOM      2  C5  <0> d          -2.527  -2.627  -0.672  0.00  0.00     0.219 C 
ATOM      3  O1  <0> d          -3.574  -2.023  -0.768  0.00  0.00    -0.274 OA
ATOM      4  H9  <0> d          -0.553  -2.447  -0.306  0.00  0.00     0.162 HD
ENDROOT
BRANCH   2   5
ATOM      5  C6  <0> d          -2.498  -4.120  -0.875  0.00  0.00     0.123 C 
BRANCH   5   6
ATOM      6  C7  <0> d          -3.909  -4.620  -1.189  0.00  0.00     0.146 C 
BRANCH   6   7
ATOM      7  N2  <0> d          -3.881  -6.072  -1.386  0.00  0.00    -0.268 N 
ATOM      8  C14 <0> d          -4.052  -6.968  -0.406  0.00  0.00     0.326 A 
ATOM      9  N3  <0> d          -3.983  -8.238  -0.855  0.00  0.00    -0.324 N 
ATOM     10  O3  <0> d          -4.250  -6.671   0.755  0.00  0.00    -0.247 OA
ATOM     11  C9  <0> d          -3.728  -8.151  -2.294  0.00  0.00     0.116 A 
ATOM     12  H22 <0> d          -4.080  -9.047  -0.328  0.00  0.00     0.165 HD
ATOM     13  C8  <0> d          -3.672  -6.671  -2.578  0.00  0.00     0.256 A 
ATOM     14  C13 <0> d          -4.838  -8.830  -3.100  0.00  0.00     0.041 C 
ATOM     15  C10 <0> d          -2.405  -8.834  -2.665  0.00  0.00     0.041 C 
ATOM     16  O2  <0> d          -3.481  -6.135  -3.648  0.00  0.00    -0.270 OA
ATOM     17  C12 <0> d          -4.149  -9.917  -3.954  0.00  0.00     0.003 C 
ATOM     18  C11 <0> d          -2.838 -10.228  -3.189  0.00  0.00     0.003 C 
ENDBRANCH   6   7
ENDBRANCH   5   6
ENDBRANCH   2   5
BRANCH   1  19
ATOM     19  C4  <0> d          -1.419  -0.512  -0.186  0.00  0.00     0.161 C 
BRANCH  19  20
ATOM     20  C2  <0> d           0.008   0.003   0.015  0.00  0.00     0.136 C 
ATOM     21  C1  <0> d           0.812  -0.206  -1.269  0.00  0.00     0.048 C 
ATOM     22  C3  <0> d          -0.032   1.495   0.354  0.00  0.00     0.048 C 
BRANCH  20  23
ATOM     23  N4  <0> d           0.643  -0.732   1.117  0.00  0.00    -0.061 N 
ATOM     24  C19 <0> d           1.998  -0.211   1.333  0.00  0.00     0.236 C 
ATOM     25  C18 <0> d           2.695  -1.027   2.425  0.00  0.00     0.028 C 
ATOM     26  C17 <0> d           1.891  -0.922   3.724  0.00  0.00     0.003 C 
ATOM     27  C16 <0> d           0.459  -1.399   3.467  0.00  0.00     0.028 C 
ATOM     28  C15 <0> d          -0.155  -0.569   2.337  0.00  0.00     0.236 C 
ATOM     29  H33 <0> d           0.695  -1.712   0.880  0.00  0.00     0.280 HD
ENDBRANCH  20  23
ENDBRANCH  19  20
ENDBRANCH   1  19
TORSDOF 6
