REMARK  4 active torsions:
REMARK  status: ('A' for Active; 'I' for Inactive)
REMARK    1  A    between atoms: C5_5  and  C16_18 
REMARK    2  A    between atoms: C9_10  and  C10_11 
REMARK    3  A    between atoms: C16_18  and  N2_19 
REMARK    4  A    between atoms: N2_19  and  C17_20 
ROOT
ATOM      1  C1  <0> d          -0.018   1.503   0.010  0.00  0.00     0.047 C 
ATOM      2  C2  <0> d           0.002  -0.004   0.002  0.00  0.00    -0.044 A 
ATOM      3  C3  <0> d           0.009  -0.811  -1.083  0.00  0.00    -0.005 A 
ATOM      4  C4  <0> d          -0.002  -0.538  -2.525  0.00  0.00     0.022 A 
ATOM      5  C5  <0> d           0.008  -1.579  -3.390  0.00  0.00    -0.032 A 
ATOM      6  C6  <0> d           0.028  -2.907  -2.944  0.00  0.00     0.011 A 
ATOM      7  C7  <0> d           0.039  -3.237  -1.635  0.00  0.00     0.030 A 
ATOM      8  C8  <0> d           0.030  -2.223  -0.638  0.00  0.00     0.039 A 
ATOM      9  N1  <0> d           0.037  -2.286   0.671  0.00  0.00    -0.377 N 
ATOM     10  C9  <0> d           0.026  -0.920   1.206  0.00  0.00     0.145 A 
ATOM     11  H24 <0> d           0.050  -3.100   1.199  0.00  0.00     0.160 HD
ENDROOT
BRANCH   5  12
ATOM     12  C16 <0> d          -0.003  -1.302  -4.871  0.00  0.00     0.271 C 
BRANCH  12  13
ATOM     13  N2  <0> d           1.379  -1.193  -5.359  0.00  0.00    -0.067 N 
ATOM     14  H14 <0> d           1.847  -0.438  -4.879  0.00  0.00     0.277 HD
ATOM     15  H25 <0> d           1.867  -2.058  -5.182  0.00  0.00     0.277 HD
BRANCH  13  16
ATOM     16  C17 <0> d           1.368  -0.923  -6.803  0.00  0.00     0.190 C 
ATOM     17  C21 <0> d           2.801  -0.685  -7.290  0.00  0.00     0.059 C 
ATOM     18  C20 <0> d           2.788  -0.483  -8.808  0.00  0.00     0.169 C 
ATOM     19  O1  <0> d           2.202  -1.626  -9.434  0.00  0.00    -0.391 OA
ATOM     20  C19 <0> d           0.847  -1.869  -9.053  0.00  0.00     0.169 C 
ATOM     21  C18 <0> d           0.781  -2.127  -7.545  0.00  0.00     0.059 C 
ENDBRANCH  13  16
ENDBRANCH  12  13
ENDBRANCH   5  12
BRANCH  10  22
ATOM     22  C10 <0> d           1.266  -0.669   2.024  0.00  0.00    -0.031 A 
ATOM     23  C15 <0> d           1.196   0.111   3.163  0.00  0.00     0.012 A 
ATOM     24  C14 <0> d           2.332   0.337   3.918  0.00  0.00     0.043 A 
ATOM     25  C13 <0> d           3.542  -0.209   3.526  0.00  0.00     0.116 A 
ATOM     26  C12 <0> d           3.612  -0.986   2.382  0.00  0.00     0.043 A 
ATOM     27  F1  <0> d           4.654   0.015   4.260  0.00  0.00    -0.206 F 
ATOM     28  C11 <0> d           2.474  -1.215   1.632  0.00  0.00     0.012 A 
ENDBRANCH  10  22
TORSDOF 4
