REMARK  6 active torsions:
REMARK  status: ('A' for Active; 'I' for Inactive)
REMARK    1  A    between atoms: C4_4  and  C18_22 
REMARK    2  A    between atoms: C7_7  and  N1_8 
REMARK       I    between atoms: N1_8  and  C8_9 
REMARK       I    between atoms: C8_9  and  N2_11 
REMARK    3  A    between atoms: N2_11  and  C9_12 
REMARK    4  A    between atoms: C9_12  and  C10_13 
REMARK    5  A    between atoms: C10_13  and  C12_15 
REMARK    6  A    between atoms: C12_15  and  N3_16 
REMARK       I    between atoms: C18_22  and  N4_24 
ROOT
ATOM      1  N1  <0> d          -0.643  -0.029   2.394  0.00  0.00    -0.308 N 
ATOM      2  C8  <0> d          -0.581  -0.699   3.562  0.00  0.00     0.320 C 
ATOM      3  O1  <0> d          -0.555  -1.915   3.565  0.00  0.00    -0.247 OA
ATOM      4  N2  <0> d          -0.547  -0.022   4.727  0.00  0.00    -0.342 N 
ATOM      5  H8  <0> d          -0.587   0.939   2.387  0.00  0.00     0.170 HD
ATOM      6  H9  <0> d          -0.567   0.948   4.724  0.00  0.00     0.164 HD
ENDROOT
BRANCH   1   7
ATOM      7  C7  <0> d          -0.788  -0.728   1.196  0.00  0.00     0.042 A 
ATOM      8  C2  <0> d          -1.527  -0.175   0.155  0.00  0.00    -0.034 A 
ATOM      9  C1  <0> d          -2.169   1.178   0.324  0.00  0.00     0.050 C 
ATOM     10  C3  <0> d          -1.667  -0.860  -1.031  0.00  0.00     0.026 A 
ATOM     11  C4  <0> d          -1.072  -2.115  -1.186  0.00  0.00     0.032 A 
ATOM     12  C5  <0> d          -0.335  -2.670  -0.136  0.00  0.00     0.019 A 
ATOM     13  C6  <0> d          -0.198  -1.980   1.047  0.00  0.00     0.031 A 
BRANCH  11  14
ATOM     14  C18 <0> d          -1.221  -2.852  -2.456  0.00  0.00     0.251 C 
ATOM     15  O2  <0> d          -1.862  -2.368  -3.368  0.00  0.00    -0.268 OA
ATOM     16  N4  <0> d          -0.645  -4.062  -2.604  0.00  0.00    -0.361 N 
ATOM     17  C19 <0> d          -0.793  -4.793  -3.865  0.00  0.00     0.149 C 
ATOM     18  H27 <0> d          -0.134  -4.448  -1.876  0.00  0.00     0.162 HD
ENDBRANCH  11  14
ENDBRANCH   1   7
BRANCH   4  19
ATOM     19  C9  <0> d          -0.479  -0.750   5.996  0.00  0.00     0.130 C 
BRANCH  19  20
ATOM     20  C10 <0> d          -0.452   0.247   7.156  0.00  0.00     0.025 C 
ATOM     21  C11 <0> d           0.837   1.070   7.091  0.00  0.00     0.013 C 
BRANCH  20  22
ATOM     22  C12 <0> d          -0.507  -0.511   8.483  0.00  0.00     0.240 C 
BRANCH  22  23
ATOM     23  N3  <0> d          -0.582   0.448   9.593  0.00  0.00    -0.071 N 
ATOM     24  C17 <0> d          -1.857   1.172   9.526  0.00  0.00     0.235 C 
ATOM     25  C16 <0> d          -1.906   2.229  10.632  0.00  0.00     0.028 C 
ATOM     26  C15 <0> d          -1.778   1.541  11.994  0.00  0.00     0.003 C 
ATOM     27  C14 <0> d          -0.481   0.728  12.025  0.00  0.00     0.028 C 
ATOM     28  C13 <0> d          -0.484  -0.273  10.868  0.00  0.00     0.235 C 
ATOM     29  H31 <0> d           0.181   1.105   9.521  0.00  0.00     0.279 HD
ENDBRANCH  22  23
ENDBRANCH  20  22
ENDBRANCH  19  20
ENDBRANCH   4  19
TORSDOF 6
