REMARK  7 active torsions:
REMARK  status: ('A' for Active; 'I' for Inactive)
REMARK    1  A    between atoms: C4_4  and  N1_7 
REMARK    2  A    between atoms: N1_7  and  C7_8 
REMARK    3  A    between atoms: N2_10  and  N3_11 
REMARK    4  A    between atoms: C8_12  and  C9_13 
REMARK    5  A    between atoms: C12_16  and  O1_20 
REMARK    6  A    between atoms: O1_20  and  C15_21 
REMARK    7  A    between atoms: C15_21  and  C16_22 
ROOT
ATOM      1  N3  <0> d           6.022  -1.921   0.136  0.00  0.00    -0.184 NA
ATOM      2  C8  <0> d           7.157  -2.547   0.219  0.00  0.00     0.150 C 
ENDROOT
BRANCH   1   3
ATOM      3  N2  <0> d           4.822  -2.644   0.144  0.00  0.00    -0.253 N 
ATOM      4  C7  <0> d           3.644  -1.994   0.058  0.00  0.00     0.192 C 
ATOM      5  S1  <0> d           2.178  -2.877   0.068  0.00  0.00    -0.039 SA
ATOM      6  H7  <0> d           4.839  -3.611   0.212  0.00  0.00     0.191 HD
BRANCH   4   7
ATOM      7  N1  <0> d           3.621  -0.650  -0.036  0.00  0.00    -0.332 N 
ATOM      8  H6  <0> d           4.451  -0.156  -0.123  0.00  0.00     0.168 HD
BRANCH   7   9
ATOM      9  C4  <0> d           2.400   0.032  -0.009  0.00  0.00     0.034 A 
ATOM     10  C3  <0> d           1.409  -0.350   0.885  0.00  0.00     0.029 A 
ATOM     11  C2  <0> d           0.205   0.325   0.910  0.00  0.00     0.002 A 
ATOM     12  C1  <0> d          -0.014   1.382   0.045  0.00  0.00     0.000 A 
ATOM     13  C6  <0> d           0.970   1.765  -0.847  0.00  0.00     0.002 A 
ATOM     14  C5  <0> d           2.177   1.093  -0.877  0.00  0.00     0.029 A 
ENDBRANCH   7   9
ENDBRANCH   4   7
ENDBRANCH   1   3
BRANCH   2  15
ATOM     15  C9  <0> d           8.420  -1.786   0.210  0.00  0.00    -0.015 A 
ATOM     16  C14 <0> d           9.642  -2.457   0.300  0.00  0.00     0.039 A 
ATOM     17  C13 <0> d          10.822  -1.742   0.285  0.00  0.00     0.068 A 
ATOM     18  C12 <0> d          10.794  -0.356   0.194  0.00  0.00     0.091 A 
ATOM     19 Cl1  <0> d          12.341  -2.575   0.389  0.00  0.00    -0.081 Cl
ATOM     20  C11 <0> d           9.581   0.315   0.111  0.00  0.00     0.039 A 
ATOM     21  C10 <0> d           8.398  -0.392   0.118  0.00  0.00     0.016 A 
BRANCH  18  22
ATOM     22  O1  <0> d          11.958   0.345   0.185  0.00  0.00    -0.339 OA
BRANCH  22  23
ATOM     23  C15 <0> d          11.858   1.768   0.088  0.00  0.00     0.288 C 
BRANCH  23  24
ATOM     24  C16 <0> d          13.239   2.370   0.093  0.00  0.00     0.198 C 
ATOM     25  O2  <0> d          14.219   1.649   0.172  0.00  0.00    -0.646 OA
ATOM     26  O3  <0> d          13.377   3.579   0.018  0.00  0.00    -0.646 OA
ENDBRANCH  23  24
ENDBRANCH  22  23
ENDBRANCH  18  22
ENDBRANCH   2  15
TORSDOF 7
