REMARK  3 active torsions:
REMARK  status: ('A' for Active; 'I' for Inactive)
REMARK    1  A    between atoms: C8_8  and  C13_18 
REMARK    2  A    between atoms: N1_9  and  S1_10 
REMARK    3  A    between atoms: S1_10  and  N2_13 
ROOT
ATOM      1  C1  <0> d           5.634   4.044  -4.365  0.00  0.00     0.001 C 
ATOM      2  C2  <0> d           5.359   3.738  -2.889  0.00  0.00     0.002 C 
ATOM      3  C3  <0> d           3.870   3.957  -2.620  0.00  0.00     0.035 C 
ATOM      4  C4  <0> d           3.018   3.065  -3.495  0.00  0.00     0.213 C 
ATOM      5  C5  <0> d           3.351   3.198  -4.992  0.00  0.00     0.020 C 
ATOM      6  C6  <0> d           4.856   3.050  -5.224  0.00  0.00     0.007 C 
ATOM      7  C7  <0> d           2.686   1.901  -5.548  0.00  0.00     0.052 C 
ATOM      8  C8  <0> d           2.954   0.877  -4.423  0.00  0.00     0.309 C 
ATOM      9  N1  <0> d           3.170   1.642  -3.181  0.00  0.00     0.062 N 
ATOM     10  H22 <0> d           3.312   1.316  -2.140  0.00  0.00     0.304 HD
ENDROOT
BRANCH   9  11
ATOM     11  S1  <0> d           3.527   1.005  -1.695  0.00  0.00     0.405 S 
ATOM     12  O1  <0> d           4.355   1.952  -1.035  0.00  0.00    -0.176 OA
ATOM     13  O2  <0> d           3.933  -0.339  -1.916  0.00  0.00    -0.176 OA
BRANCH  11  14
ATOM     14  N2  <0> d           2.111   0.936  -0.839  0.00  0.00    -0.288 N 
ATOM     15  C12 <0> d           1.176  -0.199  -0.818  0.00  0.00     0.137 C 
ATOM     16  C11 <0> d          -0.006   0.198   0.091  0.00  0.00     0.022 C 
ATOM     17  C10 <0> d           0.052   1.748   0.080  0.00  0.00     0.022 C 
ATOM     18  C9  <0> d           1.580   2.002   0.030  0.00  0.00     0.137 C 
ENDBRANCH  11  14
ENDBRANCH   9  11
BRANCH   8  19
ATOM     19  C13 <0> d           4.183   0.067  -4.746  0.00  0.00     0.206 C 
ATOM     20  O3  <0> d           5.147   0.115  -4.019  0.00  0.00    -0.646 OA
ATOM     21  O4  <0> d           4.207  -0.709  -5.841  0.00  0.00    -0.646 OA
ENDBRANCH   8  19
TORSDOF 3
