REMARK  3 active torsions:
REMARK  status: ('A' for Active; 'I' for Inactive)
REMARK    1  A    between atoms: N1_6  and  C7_8 
REMARK    2  A    between atoms: C7_8  and  C8_9 
REMARK    3  A    between atoms: C9_11  and  N4_22 
ROOT
ATOM      1  C8  <0> d          -3.140   3.021  -5.107  0.00  0.00     0.155 A 
ATOM      2  N2  <0> d          -4.018   3.231  -4.146  0.00  0.00    -0.214 NA
ATOM      3  C9  <0> d          -3.750   3.093  -2.850  0.00  0.00     0.137 A 
ATOM      4  C10 <0> d          -2.420   2.693  -2.530  0.00  0.00     0.053 A 
ATOM      5  C11 <0> d          -1.865   2.470  -1.205  0.00  0.00    -0.028 A 
ATOM      6  C12 <0> d          -0.568   2.092  -1.147  0.00  0.00    -0.008 A 
ATOM      7  S1  <0> d          -0.026   2.015  -2.836  0.00  0.00    -0.073 SA
ATOM      8  C13 <0> d          -1.534   2.488  -3.618  0.00  0.00     0.114 A 
ATOM      9  N3  <0> d          -1.886   2.648  -4.878  0.00  0.00    -0.224 NA
ATOM     10  C14 <0> d           0.237   1.802   0.083  0.00  0.00     0.047 C 
ATOM     11  C15 <0> d          -0.514   2.351   1.303  0.00  0.00     0.005 C 
ATOM     12  C16 <0> d          -1.981   1.903   1.212  0.00  0.00     0.005 C 
ATOM     13  C17 <0> d          -2.681   2.644   0.073  0.00  0.00     0.041 C 
ENDROOT
BRANCH   1  14
ATOM     14  C7  <0> d          -3.580   3.215  -6.535  0.00  0.00     0.315 C 
BRANCH  14  15
ATOM     15  N1  <0> d          -3.339   4.607  -6.937  0.00  0.00    -0.064 N 
ATOM     16  C5  <0> d          -3.531   4.778  -8.383  0.00  0.00     0.239 C 
ATOM     17  C4  <0> d          -3.132   6.199  -8.787  0.00  0.00     0.008 C 
ATOM     18  C3  <0> d          -3.992   7.205  -8.016  0.00  0.00     0.011 C 
ATOM     19  C18 <0> d          -3.354   6.384 -10.290  0.00  0.00     0.011 C 
ATOM     20  C2  <0> d          -3.810   6.973  -6.514  0.00  0.00     0.008 C 
ATOM     21  C1  <0> d          -2.350   7.221  -6.132  0.00  0.00     0.011 C 
ATOM     22  C6  <0> d          -4.190   5.530  -6.175  0.00  0.00     0.239 C 
ATOM     23  H27 <0> d          -2.291   4.850  -6.707  0.00  0.00     0.280 HD
ENDBRANCH  14  15
ENDBRANCH   1  14
BRANCH   3  24
ATOM     24  N4  <0> d          -4.702   3.323  -1.874  0.00  0.00    -0.383 N 
ATOM     25  H22 <0> d          -4.443   3.199  -0.812  0.00  0.00     0.157 HD
ATOM     26  H23 <0> d          -5.719   3.631  -2.159  0.00  0.00     0.157 HD
ENDBRANCH   3  24
TORSDOF 3
