REMARK  3 active torsions:
REMARK  status: ('A' for Active; 'I' for Inactive)
REMARK    1  A    between atoms: O1_2  and  C2_3 
REMARK    2  A    between atoms: C5_6  and  C9_11 
REMARK    3  A    between atoms: C7_8  and  O2_9 
ROOT
ATOM      1  C9  <0> d          -4.987  -2.627   0.035  0.00  0.00     0.241 C 
ATOM      2  C10 <0> d          -5.641  -2.525  -1.345  0.00  0.00     0.104 A 
ATOM      3  C11 <0> d          -6.981  -1.804  -1.129  0.00  0.00     0.054 C 
ATOM      4  C12 <0> d          -7.255  -2.039   0.380  0.00  0.00     0.235 C 
ATOM      5  N1  <0> d          -5.902  -1.960   0.991  0.00  0.00    -0.065 N 
ATOM      6  C13 <0> d          -4.771  -1.781  -2.319  0.00  0.00    -0.011 A 
ATOM      7  C14 <0> d          -4.237  -0.512  -2.335  0.00  0.00     0.011 A 
ATOM      8  C15 <0> d          -3.452  -0.105  -3.400  0.00  0.00     0.001 A 
ATOM      9  C16 <0> d          -3.206  -0.976  -4.446  0.00  0.00     0.002 A 
ATOM     10  C17 <0> d          -3.740  -2.247  -4.434  0.00  0.00     0.030 A 
ATOM     11  C18 <0> d          -4.530  -2.666  -3.366  0.00  0.00     0.042 A 
ATOM     12  N2  <0> d          -5.172  -3.883  -3.127  0.00  0.00    -0.326 N 
ATOM     13  C19 <0> d          -5.846  -3.882  -1.961  0.00  0.00     0.238 A 
ATOM     14  O3  <0> d          -6.492  -4.798  -1.498  0.00  0.00    -0.272 OA
ATOM     15  H15 <0> d          -5.891  -2.443   1.877  0.00  0.00     0.278 HD
ATOM     16  H20 <0> d          -5.136  -4.641  -3.732  0.00  0.00     0.169 HD
ATOM     17  H21 <0> d          -5.632  -0.996   1.116  0.00  0.00     0.278 HD
ENDROOT
BRANCH   1  18
ATOM     18  C5  <0> d          -3.652  -1.928   0.026  0.00  0.00    -0.023 A 
ATOM     19  C4  <0> d          -3.578  -0.578   0.313  0.00  0.00     0.012 A 
ATOM     20  C3  <0> d          -2.356   0.068   0.307  0.00  0.00     0.040 A 
ATOM     21  C2  <0> d          -1.201  -0.638   0.012  0.00  0.00     0.101 A 
ATOM     22  C7  <0> d          -1.276  -1.996  -0.283  0.00  0.00     0.102 A 
ATOM     23  C6  <0> d          -2.503  -2.639  -0.269  0.00  0.00     0.049 A 
BRANCH  21  24
ATOM     24  O1  <0> d           0.002  -0.004   0.004  0.00  0.00    -0.353 OA
ATOM     25  C1  <0> d           0.003   1.390   0.316  0.00  0.00     0.210 C 
ENDBRANCH  21  24
BRANCH  22  26
ATOM     26  O2  <0> d          -0.145  -2.692  -0.579  0.00  0.00    -0.353 OA
ATOM     27  C8  <0> d          -0.298  -4.083  -0.871  0.00  0.00     0.210 C 
ENDBRANCH  22  26
ENDBRANCH   1  18
TORSDOF 3
