REMARK  3 active torsions:
REMARK  status: ('A' for Active; 'I' for Inactive)
REMARK    1  A    between atoms: C6_8  and  C8_11 
REMARK       I    between atoms: C8_11  and  N2_13 
REMARK    2  A    between atoms: N2_13  and  C9_14 
REMARK    3  A    between atoms: C9_14  and  C10_15 
ROOT
ATOM      1  C8  <0> d           2.712  -1.761   1.821  0.00  0.00     0.241 C 
ATOM      2  O2  <0> d           1.967  -2.440   2.495  0.00  0.00    -0.271 OA
ATOM      3  N2  <0> d           4.036  -2.013   1.819  0.00  0.00    -0.352 N 
ATOM      4  H11 <0> d           4.632  -1.470   1.279  0.00  0.00     0.162 HD
ENDROOT
BRANCH   3   5
ATOM      5  C9  <0> d           4.575  -3.106   2.632  0.00  0.00     0.203 C 
BRANCH   5   6
ATOM      6  C10 <0> d           6.070  -3.174   2.453  0.00  0.00     0.148 A 
ATOM      7  N5  <0> d           6.998  -2.526   3.192  0.00  0.00    -0.319 N 
ATOM      8  C11 <0> d           8.201  -2.867   2.674  0.00  0.00     0.130 A 
ATOM      9  C12 <0> d           6.760  -1.645   4.335  0.00  0.00     0.132 C 
ATOM     10  N4  <0> d           7.981  -3.686   1.685  0.00  0.00    -0.135 NA
ATOM     11  C16 <0> d           9.536  -2.368   3.163  0.00  0.00     0.080 C 
ATOM     12  N3  <0> d           6.713  -3.868   1.551  0.00  0.00    -0.133 NA
ATOM     13  C15 <0> d           9.586  -2.476   4.685  0.00  0.00     0.008 C 
ATOM     14  C14 <0> d           9.021  -1.204   5.311  0.00  0.00     0.002 C 
ATOM     15  C13 <0> d           7.902  -0.631   4.442  0.00  0.00     0.020 C 
ENDBRANCH   5   6
ENDBRANCH   3   5
BRANCH   1  16
ATOM     16  C6  <0> d           2.157  -0.637   0.985  0.00  0.00     0.190 C 
ATOM     17  N1  <0> d           0.703  -0.587   1.173  0.00  0.00    -0.320 N 
ATOM     18  C2  <0> d           0.002  -0.004   0.002  0.00  0.00     0.081 C 
ATOM     19  C5  <0> d          -0.218  -0.959   2.098  0.00  0.00     0.222 C 
ATOM     20  C1  <0> d          -0.019   1.526   0.010  0.00  0.00     0.051 C 
ATOM     21  S1  <0> d           0.992  -0.703  -1.380  0.00  0.00    -0.135 SA
ATOM     22  C3  <0> d          -1.405  -0.622   0.023  0.00  0.00     0.051 C 
ATOM     23  C7  <0> d           2.592  -0.857  -0.480  0.00  0.00     0.111 C 
ATOM     24  C4  <0> d          -1.617  -0.824   1.543  0.00  0.00     0.106 C 
ATOM     25  O1  <0> d           0.045  -1.347   3.216  0.00  0.00    -0.273 OA
ENDBRANCH   1  16
TORSDOF 3
