REMARK  3 active torsions:
REMARK  status: ('A' for Active; 'I' for Inactive)
REMARK    1  A    between atoms: C4_4  and  O4_21 
REMARK    2  A    between atoms: C9_10  and  C11_13 
REMARK    3  A    between atoms: C14_16  and  O3_19 
ROOT
ATOM      1  C1  <0> d           4.904  -0.139  -0.046  0.00  0.00     0.049 C 
ATOM      2  C2  <0> d           3.567  -0.834  -0.037  0.00  0.00    -0.042 A 
ATOM      3  C3  <0> d           3.503  -2.198  -0.077  0.00  0.00     0.044 A 
ATOM      4  C4  <0> d           2.269  -2.844  -0.069  0.00  0.00     0.068 A 
ATOM      5  C5  <0> d           1.092  -2.116  -0.020  0.00  0.00     0.074 A 
ATOM      6  C6  <0> d           1.139  -0.729   0.021  0.00  0.00     0.092 A 
ATOM      7  C7  <0> d           2.390  -0.087   0.012  0.00  0.00     0.055 A 
ATOM      8  C8  <0> d           2.421   1.387   0.056  0.00  0.00     0.198 A 
ATOM      9  O1  <0> d           3.471   2.004   0.051  0.00  0.00    -0.286 OA
ATOM     10  C9  <0> d           1.120   2.076   0.105  0.00  0.00     0.048 A 
ATOM     11  C10 <0> d          -0.015   1.330   0.108  0.00  0.00     0.159 A 
ATOM     12  O2  <0> d           0.003  -0.005   0.068  0.00  0.00    -0.321 OA
ENDROOT
BRANCH  10  13
ATOM     13  C11 <0> d           1.051   3.557   0.149  0.00  0.00    -0.020 A 
ATOM     14  C16 <0> d           0.224   4.245  -0.737  0.00  0.00     0.015 A 
ATOM     15  C15 <0> d           0.161   5.622  -0.693  0.00  0.00     0.037 A 
ATOM     16  C14 <0> d           0.921   6.323   0.233  0.00  0.00     0.068 A 
ATOM     17  C13 <0> d           1.745   5.641   1.118  0.00  0.00     0.037 A 
ATOM     18  C12 <0> d           1.808   4.264   1.082  0.00  0.00     0.015 A 
BRANCH  16  19
ATOM     19  O3  <0> d           0.857   7.680   0.274  0.00  0.00    -0.356 OA
ATOM     20  C17 <0> d           1.666   8.338   1.252  0.00  0.00     0.210 C 
ENDBRANCH  16  19
ENDBRANCH  10  13
BRANCH   4  21
ATOM     21  O4  <0> d           2.219  -4.200  -0.110  0.00  0.00    -0.361 OA
ATOM     22  H14 <0> d           2.225  -4.620   0.761  0.00  0.00     0.217 HD
ENDBRANCH   4  21
TORSDOF 3
