REMARK  4 active torsions:
REMARK  status: ('A' for Active; 'I' for Inactive)
REMARK    1  A    between atoms: C3_3  and  O2_11 
REMARK    2  A    between atoms: C4_4  and  C7_8 
REMARK    3  A    between atoms: C6_6  and  N1_7 
REMARK       I    between atoms: C7_8  and  N2_10 
REMARK    4  A    between atoms: O2_11  and  C8_12 
ROOT
ATOM      1  C1  <0> d          -0.017   1.390   0.069  0.00  0.00     0.032 A 
ATOM      2  C2  <0> d           1.165   2.097  -0.031  0.00  0.00     0.040 A 
ATOM      3  C3  <0> d           2.381   1.440   0.079  0.00  0.00     0.092 A 
ATOM      4  C4  <0> d           2.409   0.055   0.292  0.00  0.00     0.067 A 
ATOM      5  C5  <0> d           1.210  -0.654   0.392  0.00  0.00     0.049 A 
ATOM      6  C6  <0> d           0.003   0.016   0.281  0.00  0.00     0.026 A 
ENDROOT
BRANCH   3   7
ATOM      7  O2  <0> d           3.542   2.136  -0.021  0.00  0.00    -0.307 OA
BRANCH   7   8
ATOM      8  C8  <0> d           3.468   3.490  -0.118  0.00  0.00     0.114 A 
ATOM      9  C13 <0> d           3.381   4.266   1.031  0.00  0.00     0.151 A 
ATOM     10  C12 <0> d           3.313   5.644   0.929  0.00  0.00     0.064 A 
ATOM     11  F1  <0> d           3.371   3.677   2.247  0.00  0.00    -0.203 F 
ATOM     12  C11 <0> d           3.317   6.247  -0.316  0.00  0.00     0.014 A 
ATOM     13  C10 <0> d           3.397   5.474  -1.461  0.00  0.00     0.022 A 
ATOM     14 Br1  <0> d           3.215   8.130  -0.453  0.00  0.00    -0.051 Br
ATOM     15  C9  <0> d           3.473   4.098  -1.364  0.00  0.00     0.042 A 
ENDBRANCH   7   8
ENDBRANCH   3   7
BRANCH   4  16
ATOM     16  C7  <0> d           3.699  -0.652   0.409  0.00  0.00     0.252 C 
ATOM     17  O1  <0> d           4.742  -0.032   0.321  0.00  0.00    -0.268 OA
ATOM     18  N2  <0> d           3.722  -1.984   0.614  0.00  0.00    -0.366 N 
ATOM     19  H6  <0> d           2.890  -2.478   0.684  0.00  0.00     0.159 HD
ATOM     20  H7  <0> d           4.570  -2.448   0.691  0.00  0.00     0.159 HD
ENDBRANCH   4  16
BRANCH   6  21
ATOM     21  N1  <0> d          -1.200  -0.692   0.381  0.00  0.00    -0.399 N 
ATOM     22  H4  <0> d          -2.046  -0.224   0.303  0.00  0.00     0.156 HD
ATOM     23  H5  <0> d          -1.188  -1.651   0.528  0.00  0.00     0.156 HD
ENDBRANCH   6  21
TORSDOF 4
