REMARK  4 active torsions:
REMARK  status: ('A' for Active; 'I' for Inactive)
REMARK    1  A    between atoms: C6_7  and  C9_11 
REMARK    2  A    between atoms: C9_11  and  N3_12 
REMARK    3  A    between atoms: N3_12  and  C11_14 
REMARK    4  A    between atoms: C11_14  and  C12_15 
ROOT
ATOM      1  C9  <0> d          -1.187  -5.142   1.966  0.00  0.00     0.318 C 
ENDROOT
BRANCH   1   2
ATOM      2  C6  <0> d           0.065  -4.302   1.705  0.00  0.00     0.210 A 
ATOM      3  N1  <0> d           0.174  -3.990   0.275  0.00  0.00    -0.365 N 
ATOM      4  C5  <0> d           0.141  -2.694   0.154  0.00  0.00     0.056 A 
ATOM      5  H23 <0> d           0.255  -4.631  -0.448  0.00  0.00     0.162 HD
ATOM      6  C4  <0> d           0.207  -1.797  -1.007  0.00  0.00     0.032 A 
ATOM      7  C7  <0> d           0.008  -2.077   1.502  0.00  0.00     0.057 A 
ATOM      8  C3  <0> d           0.147  -0.463  -0.821  0.00  0.00     0.009 A 
ATOM      9  C2  <0> d           0.021   0.120   0.452  0.00  0.00    -0.060 A 
ATOM     10  C1  <0> d          -0.039   1.623   0.557  0.00  0.00     0.048 C 
ATOM     11  C8  <0> d          -0.043  -0.611   1.583  0.00  0.00     0.038 A 
ATOM     12  N2  <0> d          -0.035  -3.015   2.404  0.00  0.00    -0.365 N 
ATOM     13  H24 <0> d          -0.119  -2.887   3.362  0.00  0.00     0.162 HD
ENDBRANCH   1   2
BRANCH   1  14
ATOM     14  N3  <0> d          -2.383  -4.340   1.677  0.00  0.00     0.091 N 
ATOM     15  C10 <0> d          -2.628  -4.263   0.231  0.00  0.00     0.310 C 
BRANCH  14  16
ATOM     16  C11 <0> d          -3.557  -4.873   2.382  0.00  0.00     0.311 C 
BRANCH  16  17
ATOM     17  C12 <0> d          -4.699  -3.897   2.264  0.00  0.00     0.005 A 
ATOM     18  C14 <0> d          -4.959  -2.700   3.153  0.00  0.00     0.207 A 
ATOM     19  N5  <0> d          -6.189  -2.098   2.601  0.00  0.00    -0.212 NA
ATOM     20 Cl1  <0> d          -3.590  -1.532   3.055  0.00  0.00    -0.102 Cl
ATOM     21  N4  <0> d          -6.554  -2.882   1.544  0.00  0.00    -0.322 N 
ATOM     22  C15 <0> d          -7.250  -2.055   3.616  0.00  0.00     0.138 C 
ATOM     23  C13 <0> d          -5.667  -3.925   1.370  0.00  0.00     0.024 A 
ATOM     24  H16 <0> d          -7.334  -2.726   0.989  0.00  0.00     0.180 HD
ATOM     25  C16 <0> d          -5.789  -4.968   0.289  0.00  0.00     0.069 C 
ENDBRANCH  16  17
ENDBRANCH  14  16
ENDBRANCH   1  14
TORSDOF 4
