REMARK  7 active torsions:
REMARK  status: ('A' for Active; 'I' for Inactive)
REMARK    1  A    between atoms: N2_6  and  C5_7 
REMARK    2  A    between atoms: C5_7  and  C6_8 
REMARK    3  A    between atoms: C6_8  and  C7_9 
REMARK    4  A    between atoms: C7_9  and  N3_10 
REMARK       I    between atoms: N3_10  and  C8_11 
REMARK    5  A    between atoms: C8_11  and  C9_13 
REMARK    6  A    between atoms: C12_18  and  C18_25 
REMARK    7  A    between atoms: C14_20  and  C15_22 
ROOT
ATOM      1  C9  <0> d          -1.237   2.179  -3.228  0.00  0.00     0.148 A 
ATOM      2  C10 <0> d          -2.364   2.384  -2.399  0.00  0.00     0.088 A 
ATOM      3  C11 <0> d          -2.025   2.004  -1.151  0.00  0.00     0.123 A 
ATOM      4  N4  <0> d          -0.726   1.574  -1.176  0.00  0.00    -0.240 N 
ATOM      5  N5  <0> d          -0.261   1.692  -2.482  0.00  0.00    -0.165 NA
ATOM      6  C12 <0> d          -0.013   1.086   0.008  0.00  0.00     0.221 C 
ATOM      7  C13 <0> d          -0.735   1.583   1.265  0.00  0.00     0.062 C 
ATOM      8  C14 <0> d          -2.232   1.270   1.165  0.00  0.00     0.089 C 
ATOM      9  N6  <0> d          -2.791   2.012   0.018  0.00  0.00    -0.370 N 
ATOM     10  H18 <0> d          -3.757   2.530   0.116  0.00  0.00     0.161 HD
ENDROOT
BRANCH   1  11
ATOM     11  C8  <0> d          -1.164   2.461  -4.676  0.00  0.00     0.272 C 
ATOM     12  N3  <0> d          -0.024   2.220  -5.353  0.00  0.00    -0.355 N 
ATOM     13  H14 <0> d           0.853   1.813  -4.827  0.00  0.00     0.162 HD
ATOM     14  O1  <0> d          -2.132   2.911  -5.257  0.00  0.00    -0.266 OA
BRANCH  12  15
ATOM     15  C7  <0> d           0.049   2.500  -6.789  0.00  0.00     0.124 C 
BRANCH  15  16
ATOM     16  C6  <0> d           1.442   2.140  -7.309  0.00  0.00     0.040 C 
BRANCH  16  17
ATOM     17  C5  <0> d           1.518   2.432  -8.809  0.00  0.00     0.131 C 
BRANCH  17  18
ATOM     18  N2  <0> d           2.852   2.087  -9.306  0.00  0.00    -0.346 N 
ATOM     19  C2  <0> d           3.270   0.865  -9.699  0.00  0.00     0.079 A 
ATOM     20  C1  <0> d           2.435  -0.390  -9.700  0.00  0.00     0.089 C 
ATOM     21  N1  <0> d           4.515   0.951 -10.081  0.00  0.00    -0.355 N 
ATOM     22  C3  <0> d           4.935   2.216  -9.938  0.00  0.00     0.106 A 
ATOM     23  H24 <0> d           5.041   0.057 -10.447  0.00  0.00     0.166 HD
ATOM     24  C4  <0> d           3.910   2.944  -9.454  0.00  0.00     0.109 A 
ENDBRANCH  17  18
ENDBRANCH  16  17
ENDBRANCH  15  16
ENDBRANCH  12  15
ENDBRANCH   1  11
BRANCH   6  25
ATOM     25  C18 <0> d           1.422   1.618  -0.003  0.00  0.00     0.409 C 
ATOM     26  F1  <0> d           2.099   1.155   1.131  0.00  0.00    -0.169 F 
ATOM     27  F2  <0> d           2.077   1.168  -1.154  0.00  0.00    -0.169 F 
ATOM     28  F3  <0> d           1.400   3.017   0.005  0.00  0.00    -0.169 F 
ENDBRANCH   6  25
BRANCH   8  29
ATOM     29  C15 <0> d          -2.935   1.702   2.454  0.00  0.00     0.008 A 
ATOM     30  C17 <0> d          -4.444   1.472   2.547  0.00  0.00     0.007 A 
ATOM     31  C16 <0> d          -3.486   0.601   3.362  0.00  0.00     0.007 A 
ENDBRANCH   8  29
TORSDOF 7
