REMARK  4 active torsions:
REMARK  status: ('A' for Active; 'I' for Inactive)
REMARK    1  A    between atoms: C2_2  and  N1_4 
REMARK    2  A    between atoms: C5_6  and  C7_9 
REMARK    3  A    between atoms: N4_22  and  C18_23 
REMARK    4  A    between atoms: C18_23  and  C19_24 
ROOT
ATOM      1  C7  <0> d           3.682  -1.436   3.130  0.00  0.00     0.274 C 
ATOM      2  C8  <0> d           4.061  -0.209   3.924  0.00  0.00     0.052 A 
ATOM      3  H2  <0> d           4.963   1.066   2.545  0.00  0.00     0.166 HD
ATOM      4  C9  <0> d           3.813  -0.084   5.248  0.00  0.00    -0.019 A 
ATOM      5  C10 <0> d           4.314   1.208   5.658  0.00  0.00    -0.001 A 
ATOM      6  C11 <0> d           4.338   1.873   6.887  0.00  0.00     0.014 A 
ATOM      7  C12 <0> d           4.909   3.122   6.908  0.00  0.00     0.001 A 
ATOM      8  C13 <0> d           5.439   3.707   5.770  0.00  0.00     0.002 A 
ATOM      9  C14 <0> d           5.430   3.072   4.540  0.00  0.00     0.030 A 
ATOM     10  C15 <0> d           4.857   1.803   4.489  0.00  0.00     0.043 A 
ATOM     11  N3  <0> d           4.685   0.918   3.463  0.00  0.00    -0.356 N 
ATOM     12  C16 <0> d           3.128  -1.151   6.064  0.00  0.00     0.069 C 
ATOM     13  C17 <0> d           2.461  -2.132   5.089  0.00  0.00     0.241 C 
ATOM     14  N4  <0> d           3.434  -2.546   4.064  0.00  0.00    -0.056 N 
ATOM     15  H29 <0> d           4.300  -2.807   4.510  0.00  0.00     0.281 HD
ENDROOT
BRANCH  14  16
ATOM     16  C18 <0> d           2.906  -3.698   3.321  0.00  0.00     0.254 C 
BRANCH  16  17
ATOM     17  C19 <0> d           2.799  -4.903   4.258  0.00  0.00     0.127 A 
ATOM     18  C27 <0> d           2.130  -6.025   3.496  0.00  0.00     0.231 A 
ATOM     19  N5  <0> d           2.750  -7.183   3.353  0.00  0.00    -0.326 N 
ATOM     20  O1  <0> d           1.023  -5.862   3.018  0.00  0.00    -0.272 OA
ATOM     21  C26 <0> d           3.963  -7.425   3.851  0.00  0.00     0.044 A 
ATOM     22  H28 <0> d           2.303  -7.889   2.862  0.00  0.00     0.169 HD
ATOM     23  C21 <0> d           4.712  -6.409   4.610  0.00  0.00    -0.012 A 
ATOM     24  C25 <0> d           4.564  -8.682   3.657  0.00  0.00     0.030 A 
ATOM     25  C20 <0> d           4.178  -5.174   4.827  0.00  0.00     0.003 A 
ATOM     26  C22 <0> d           6.038  -6.755   5.124  0.00  0.00     0.013 A 
ATOM     27  C23 <0> d           6.530  -7.997   4.884  0.00  0.00     0.001 A 
ATOM     28  C24 <0> d           5.799  -8.941   4.161  0.00  0.00     0.002 A 
ENDBRANCH  16  17
ENDBRANCH  14  16
BRANCH   1  29
ATOM     29  C5  <0> d           2.433  -1.157   2.333  0.00  0.00     0.015 A 
ATOM     30  C4  <0> d           2.255  -1.415   1.017  0.00  0.00     0.123 A 
ATOM     31  N1  <0> d           1.007  -1.021   0.686  0.00  0.00    -0.277 N 
ATOM     32  N2  <0> d           0.401  -0.500   1.836  0.00  0.00    -0.184 NA
ATOM     33  C6  <0> d           1.254  -0.587   2.824  0.00  0.00     0.150 A 
BRANCH  31  34
ATOM     34  C2  <0> d           0.396  -1.117  -0.642  0.00  0.00     0.101 C 
ATOM     35  C1  <0> d           0.793   0.103  -1.475  0.00  0.00     0.034 C 
ATOM     36  C3  <0> d           0.885  -2.390  -1.337  0.00  0.00     0.034 C 
ENDBRANCH  31  34
ENDBRANCH   1  29
TORSDOF 4
