REMARK  4 active torsions:
REMARK  status: ('A' for Active; 'I' for Inactive)
REMARK    1  A    between atoms: C3_3  and  O1_4 
REMARK    2  A    between atoms: O1_4  and  C4_5 
REMARK    3  A    between atoms: C9_10  and  C10_11 
REMARK    4  A    between atoms: C11_13  and  N5_29 
ROOT
ATOM      1  C1  <0> d           0.018  -1.178  -0.004  0.00  0.00     0.014 C 
ATOM      2  C2  <0> d           0.002  -0.004   0.002  0.00  0.00    -0.091 C 
ATOM      3  C3  <0> d          -0.018   1.468   0.010  0.00  0.00     0.268 C 
ENDROOT
BRANCH   3   4
ATOM      4  O1  <0> d           1.323   1.962  -0.000  0.00  0.00    -0.339 OA
BRANCH   4   5
ATOM      5  C4  <0> d           1.482   3.312   0.006  0.00  0.00     0.080 A 
ATOM      6  C9  <0> d           2.756   3.861  -0.004  0.00  0.00     0.019 A 
ATOM      7  C8  <0> d           2.916   5.233  -0.003  0.00  0.00     0.014 A 
ATOM      8  C7  <0> d           1.808   6.059   0.018  0.00  0.00     0.001 A 
ATOM      9  C6  <0> d           0.537   5.514   0.033  0.00  0.00     0.003 A 
ATOM     10  C5  <0> d           0.372   4.143   0.027  0.00  0.00     0.037 A 
BRANCH   6  11
ATOM     11  C10 <0> d           3.965   2.961  -0.020  0.00  0.00     0.261 C 
ATOM     12  N3  <0> d           4.303   2.599  -1.401  0.00  0.00    -0.152 N 
ATOM     13  C12 <0> d           5.265   3.285  -2.121  0.00  0.00     0.724 A 
ATOM     14  C13 <0> d           3.796   1.609  -2.211  0.00  0.00     0.086 A 
ATOM     15  N2  <0> d           5.952   4.317  -1.576  0.00  0.00    -0.021 N 
ATOM     16  N4  <0> d           5.342   2.781  -3.325  0.00  0.00    -0.062 NA
ATOM     17  C11 <0> d           5.855   4.518  -0.274  0.00  0.00     0.688 C 
ATOM     18  H20 <0> d           6.502   4.895  -2.128  0.00  0.00     0.203 HD
ATOM     19  N1  <0> d           5.133   3.674   0.528  0.00  0.00    -0.199 N 
ATOM     20  H19 <0> d           5.390   3.546   1.454  0.00  0.00     0.180 HD
ATOM     21  C18 <0> d           4.467   1.736  -3.442  0.00  0.00     0.106 A 
ATOM     22  C17 <0> d           4.167   0.859  -4.489  0.00  0.00     0.074 A 
ATOM     23  C16 <0> d           3.215  -0.121  -4.306  0.00  0.00     0.104 A 
ATOM     24  C15 <0> d           2.552  -0.244  -3.088  0.00  0.00     0.104 A 
ATOM     25  O2  <0> d           2.914  -0.980  -5.325  0.00  0.00    -0.348 OA
ATOM     26  C14 <0> d           2.840   0.615  -2.045  0.00  0.00     0.072 A 
ATOM     27  O3  <0> d           1.612  -1.222  -2.929  0.00  0.00    -0.348 OA
ATOM     28  C21 <0> d           2.101  -2.564  -2.920  0.00  0.00     0.178 C 
ATOM     29  C20 <0> d           2.247  -3.095  -4.338  0.00  0.00     0.053 C 
ATOM     30  C19 <0> d           3.303  -2.341  -5.131  0.00  0.00     0.178 C 
BRANCH  17  31
ATOM     31  N5  <0> d           6.490   5.594   0.287  0.00  0.00    -0.234 N 
ATOM     32  H17 <0> d           6.425   5.752   1.242  0.00  0.00     0.174 HD
ATOM     33  H18 <0> d           7.004   6.198  -0.271  0.00  0.00     0.174 HD
ENDBRANCH  17  31
ENDBRANCH   6  11
ENDBRANCH   4   5
ENDBRANCH   3   4
TORSDOF 4
