REMARK  3 active torsions:
REMARK  status: ('A' for Active; 'I' for Inactive)
REMARK    1  A    between atoms: O1_2  and  C2_3 
REMARK    2  A    between atoms: C5_6  and  N1_9 
REMARK    3  A    between atoms: C10_13  and  C11_14 
ROOT
ATOM      1  N1  <0> d           5.135   5.027   0.296  0.00  0.00    -0.229 N 
ATOM      2  C8  <0> d           3.933   5.213  -0.286  0.00  0.00     0.272 A 
ATOM      3  O2  <0> d           3.610   6.304  -0.719  0.00  0.00    -0.266 OA
ATOM      4  C9  <0> d           3.018   4.062  -0.380  0.00  0.00     0.103 A 
ATOM      5  C10 <0> d           1.761   4.180  -0.963  0.00  0.00     0.060 C 
ATOM      6  C15 <0> d           3.496   2.780   0.165  0.00  0.00     0.265 A 
ATOM      7  O4  <0> d           2.798   1.784   0.121  0.00  0.00    -0.267 OA
ATOM      8  N2  <0> d           4.726   2.740   0.716  0.00  0.00    -0.274 N 
ATOM      9  C16 <0> d           5.505   3.829   0.772  0.00  0.00     0.337 A 
ATOM     10  O5  <0> d           6.604   3.727   1.281  0.00  0.00    -0.246 OA
ATOM     11  H12 <0> d           5.056   1.903   1.079  0.00  0.00     0.173 HD
ENDROOT
BRANCH   1  12
ATOM     12  C5  <0> d           6.021   6.109   0.401  0.00  0.00     0.047 A 
ATOM     13  C4  <0> d           6.929   6.365  -0.618  0.00  0.00     0.033 A 
ATOM     14  C3  <0> d           7.801   7.431  -0.514  0.00  0.00     0.039 A 
ATOM     15  C2  <0> d           7.770   8.246   0.609  0.00  0.00     0.068 A 
ATOM     16  C7  <0> d           6.863   7.990   1.627  0.00  0.00     0.039 A 
ATOM     17  C6  <0> d           5.987   6.929   1.521  0.00  0.00     0.033 A 
BRANCH  15  18
ATOM     18  O1  <0> d           8.628   9.295   0.711  0.00  0.00    -0.356 OA
ATOM     19  C1  <0> d           8.541  10.092   1.893  0.00  0.00     0.210 C 
ENDBRANCH  15  18
ENDBRANCH   1  12
BRANCH   5  20
ATOM     20  C11 <0> d           0.992   3.032  -1.211  0.00  0.00     0.076 A 
ATOM     21  O3  <0> d           1.460   1.831  -1.616  0.00  0.00    -0.323 OA
ATOM     22  C14 <0> d           0.439   0.977  -1.750  0.00  0.00     0.142 A 
ATOM     23  C13 <0> d          -0.716   1.614  -1.438  0.00  0.00     0.027 A 
ATOM     24  C12 <0> d          -0.385   2.926  -1.085  0.00  0.00     0.039 A 
ENDBRANCH   5  20
TORSDOF 3
