REMARK  3 active torsions:
REMARK  status: ('A' for Active; 'I' for Inactive)
REMARK    1  A    between atoms: C5_5  and  C6_7 
REMARK    2  A    between atoms: C6_7  and  N1_8 
REMARK    3  A    between atoms: N1_8  and  C7_9 
ROOT
ATOM      1  C7  <0> d           2.901  -4.767  -1.460  0.00  0.00     0.347 A 
ATOM      2  C8  <0> d           3.638  -4.800  -2.779  0.00  0.00     0.011 A 
ATOM      3  C9  <0> d           4.503  -3.921  -3.390  0.00  0.00     0.012 A 
ATOM      4  C10 <0> d           5.035  -4.226  -4.631  0.00  0.00     0.001 A 
ATOM      5  C11 <0> d           4.694  -5.414  -5.252  0.00  0.00     0.002 A 
ATOM      6  C12 <0> d           3.828  -6.296  -4.642  0.00  0.00     0.030 A 
ATOM      7  C13 <0> d           3.288  -5.996  -3.392  0.00  0.00     0.043 A 
ATOM      8  N2  <0> d           2.405  -6.712  -2.584  0.00  0.00    -0.324 N 
ATOM      9  C14 <0> d           2.127  -6.067  -1.435  0.00  0.00     0.260 A 
ATOM     10  O2  <0> d           1.395  -6.454  -0.547  0.00  0.00    -0.270 OA
ATOM     11  H14 <0> d           2.034  -7.577  -2.821  0.00  0.00     0.169 HD
ENDROOT
BRANCH   1  12
ATOM     12  N1  <0> d           1.984  -3.621  -1.411  0.00  0.00     0.107 N 
ATOM     13  H9  <0> d           1.137  -3.813  -1.924  0.00  0.00     0.317 HD
BRANCH  12  14
ATOM     14  C6  <0> d           1.684  -3.245  -0.023  0.00  0.00     0.335 C 
BRANCH  14  15
ATOM     15  C5  <0> d           0.742  -2.069  -0.013  0.00  0.00     0.081 A 
ATOM     16  C4  <0> d          -0.601  -2.136  -0.007  0.00  0.00     0.037 A 
ATOM     17  C3  <0> d          -1.078  -0.805   0.003  0.00  0.00     0.035 A 
ATOM     18  C2  <0> d           0.002  -0.004   0.002  0.00  0.00     0.049 A 
ATOM     19  C1  <0> d          -0.018   1.503   0.010  0.00  0.00     0.076 C 
ATOM     20  O1  <0> d           1.102  -0.775  -0.013  0.00  0.00    -0.318 OA
ENDBRANCH  14  15
ENDBRANCH  12  14
ENDBRANCH   1  12
TORSDOF 3
