REMARK  5 active torsions:
REMARK  status: ('A' for Active; 'I' for Inactive)
REMARK    1  A    between atoms: C4_4  and  C15_22 
REMARK    2  A    between atoms: N2_6  and  C5_7 
REMARK    3  A    between atoms: C5_7  and  C7_9 
REMARK       I    between atoms: C7_9  and  N3_11 
REMARK    4  A    between atoms: N3_11  and  N4_12 
REMARK       I    between atoms: N4_12  and  C8_13 
REMARK       I    between atoms: C8_13  and  N5_15 
REMARK    5  A    between atoms: N5_15  and  C9_16 
ROOT
ATOM      1  C7  <0> d           0.002  -0.004   0.002  0.00  0.00     0.260 C 
ATOM      2  O1  <0> d          -1.040  -0.625   0.009  0.00  0.00    -0.269 OA
ATOM      3  N3  <0> d          -0.016   1.344   0.009  0.00  0.00    -0.264 N 
ATOM      4  H8  <0> d           0.817   1.840   0.004  0.00  0.00     0.190 HD
ENDROOT
BRANCH   1   5
ATOM      5  C5  <0> d           1.317  -0.740  -0.015  0.00  0.00     0.199 C 
ATOM      6  C6  <0> d           2.126  -0.366   1.229  0.00  0.00     0.044 C 
BRANCH   5   7
ATOM      7  N2  <0> d           1.069  -2.183  -0.020  0.00  0.00    -0.259 N 
ATOM      8  C2  <0> d           1.459  -3.053  -0.977  0.00  0.00     0.051 A 
ATOM      9  C1  <0> d           2.226  -2.712  -2.228  0.00  0.00     0.072 C 
ATOM     10  C3  <0> d           1.040  -4.287  -0.608  0.00  0.00     0.093 A 
ATOM     11  C4  <0> d           0.363  -4.165   0.611  0.00  0.00     0.184 A 
ATOM     12 Cl1  <0> d           1.292  -5.758  -1.494  0.00  0.00    -0.080 Cl
ATOM     13  N1  <0> d           0.380  -2.905   0.964  0.00  0.00    -0.165 NA
BRANCH  11  14
ATOM     14  C15 <0> d          -0.275  -5.291   1.383  0.00  0.00     0.438 C 
ATOM     15  F1  <0> d          -0.953  -4.770   2.491  0.00  0.00    -0.164 F 
ATOM     16  F2  <0> d          -1.179  -5.968   0.559  0.00  0.00    -0.164 F 
ATOM     17  F3  <0> d           0.716  -6.178   1.817  0.00  0.00    -0.164 F 
ENDBRANCH  11  14
ENDBRANCH   5   7
ENDBRANCH   1   5
BRANCH   3  18
ATOM     18  N4  <0> d          -1.239   2.027   0.019  0.00  0.00    -0.249 N 
ATOM     19  C8  <0> d          -1.257   3.375   0.026  0.00  0.00     0.335 C 
ATOM     20  O2  <0> d          -2.318   3.969   0.035  0.00  0.00    -0.246 OA
ATOM     21  N5  <0> d          -0.099   4.065   0.025  0.00  0.00    -0.337 N 
ATOM     22  H10 <0> d           0.747   3.591   0.018  0.00  0.00     0.164 HD
ATOM     23  H9  <0> d          -2.072   1.531   0.020  0.00  0.00     0.192 HD
BRANCH  21  24
ATOM     24  C9  <0> d          -0.119   5.530   0.033  0.00  0.00     0.086 C 
ATOM     25  C14 <0> d           1.184   6.054   0.639  0.00  0.00     0.025 C 
ATOM     26  C13 <0> d           1.163   7.584   0.647  0.00  0.00     0.002 C 
ATOM     27  C12 <0> d           1.024   8.100  -0.786  0.00  0.00     0.000 C 
ATOM     28  C11 <0> d          -0.279   7.575  -1.393  0.00  0.00     0.002 C 
ATOM     29  C10 <0> d          -0.259   6.046  -1.401  0.00  0.00     0.025 C 
ENDBRANCH  21  24
ENDBRANCH   3  18
TORSDOF 5
