REMARK  7 active torsions:
REMARK  status: ('A' for Active; 'I' for Inactive)
REMARK    1  A    between atoms: C3_3  and  C7_8 
REMARK    2  A    between atoms: C5_5  and  O1_7 
REMARK    3  A    between atoms: N1_10  and  C9_13 
REMARK    4  A    between atoms: C9_13  and  C10_14 
REMARK    5  A    between atoms: C16_20  and  C17_21 
REMARK       I    between atoms: C17_21  and  N4_23 
REMARK    6  A    between atoms: N4_23  and  C18_24 
REMARK    7  A    between atoms: C18_24  and  C19_25 
ROOT
ATOM      1  C10 <0> d           4.956   0.280  -1.340  0.00  0.00     0.208 C 
ATOM      2  C11 <0> d           4.941   1.159  -0.087  0.00  0.00     0.040 C 
ATOM      3  C12 <0> d           3.616   1.930  -0.039  0.00  0.00     0.004 C 
ATOM      4  C13 <0> d           3.498   2.780  -1.310  0.00  0.00     0.033 C 
ATOM      5  C14 <0> d           3.553   1.855  -2.530  0.00  0.00     0.236 C 
ATOM      6  C15 <0> d           2.546   0.046  -1.272  0.00  0.00     0.249 C 
ATOM      7  C16 <0> d           2.462   0.920  -0.017  0.00  0.00     0.108 C 
ATOM      8  N6  <0> d           3.701   0.447  -2.103  0.00  0.00    -0.064 N 
ATOM      9  H27 <0> d           3.735  -0.152  -2.937  0.00  0.00     0.280 HD
ENDROOT
BRANCH   1  10
ATOM     10  C9  <0> d           6.135   0.679  -2.230  0.00  0.00     0.185 C 
BRANCH  10  11
ATOM     11  N1  <0> d           6.219  -0.237  -3.370  0.00  0.00    -0.258 N 
ATOM     12  C8  <0> d           6.220   0.123  -4.674  0.00  0.00     0.148 A 
ATOM     13  C7  <0> d           6.314  -1.038  -5.385  0.00  0.00     0.108 A 
ATOM     14  N3  <0> d           6.356  -2.031  -4.479  0.00  0.00    -0.130 NA
ATOM     15  N2  <0> d           6.298  -1.519  -3.300  0.00  0.00    -0.066 NA
BRANCH  13  16
ATOM     16  C3  <0> d           6.356  -1.178  -6.862  0.00  0.00    -0.002 A 
ATOM     17  C2  <0> d           6.409  -0.043  -7.670  0.00  0.00     0.014 A 
ATOM     18  C1  <0> d           6.448  -0.175  -9.044  0.00  0.00     0.004 A 
ATOM     19  C6  <0> d           6.436  -1.431  -9.621  0.00  0.00     0.036 A 
ATOM     20  C5  <0> d           6.384  -2.566  -8.824  0.00  0.00     0.066 A 
ATOM     21  C4  <0> d           6.349  -2.442  -7.445  0.00  0.00     0.050 A 
BRANCH  20  22
ATOM     22  O1  <0> d           6.373  -3.799  -9.396  0.00  0.00    -0.361 OA
ATOM     23  H8  <0> d           7.252  -4.176  -9.534  0.00  0.00     0.217 HD
ENDBRANCH  20  22
ENDBRANCH  13  16
ENDBRANCH  10  11
ENDBRANCH   1  10
BRANCH   7  24
ATOM     24  C17 <0> d           1.147   1.655  -0.000  0.00  0.00     0.224 C 
ATOM     25  O2  <0> d           1.130   2.868   0.007  0.00  0.00    -0.273 OA
ATOM     26  N4  <0> d          -0.011   0.966   0.007  0.00  0.00    -0.356 N 
ATOM     27  H20 <0> d           0.002  -0.004   0.002  0.00  0.00     0.162 HD
BRANCH  26  28
ATOM     28  C18 <0> d          -1.290   1.681   0.017  0.00  0.00     0.162 C 
BRANCH  28  29
ATOM     29  C19 <0> d          -2.422   0.686   0.017  0.00  0.00    -0.023 A 
ATOM     30  C23 <0> d          -2.942   0.218   1.209  0.00  0.00     0.124 A 
ATOM     31  N5  <0> d          -3.933  -0.652   1.217  0.00  0.00    -0.273 NA
ATOM     32  C22 <0> d          -4.464  -1.108   0.100  0.00  0.00     0.116 A 
ATOM     33  C21 <0> d          -3.996  -0.685  -1.130  0.00  0.00     0.020 A 
ATOM     34  C20 <0> d          -2.959   0.234  -1.179  0.00  0.00     0.012 A 
ENDBRANCH  28  29
ENDBRANCH  26  28
ENDBRANCH   7  24
TORSDOF 7
