REMARK  4 active torsions:
REMARK  status: ('A' for Active; 'I' for Inactive)
REMARK    1  A    between atoms: N1_2  and  S1_3 
REMARK    2  A    between atoms: S1_3  and  C2_6 
REMARK       I    between atoms: N2_14  and  C10_15 
REMARK    3  A    between atoms: C10_15  and  C11_17 
REMARK    4  A    between atoms: C11_17  and  N3_18 
ROOT
ATOM      1  C2  <0> d          -0.166  -0.494   2.705  0.00  0.00     0.080 A 
ATOM      2  C3  <0> d           0.171   0.589   3.496  0.00  0.00     0.027 A 
ATOM      3  C4  <0> d          -0.537   0.854   4.649  0.00  0.00     0.032 A 
ATOM      4  C5  <0> d          -1.601   0.031   5.026  0.00  0.00     0.043 A 
ATOM      5  C6  <0> d          -1.931  -1.051   4.226  0.00  0.00    -0.028 A 
ATOM      6  C7  <0> d          -1.222  -1.309   3.068  0.00  0.00     0.034 A 
ATOM      7  C8  <0> d          -3.105  -1.771   4.851  0.00  0.00     0.061 A 
ATOM      8  C9  <0> d          -3.419  -0.967   6.123  0.00  0.00     0.137 A 
ATOM      9  N2  <0> d          -2.438   0.121   6.142  0.00  0.00    -0.316 N 
ATOM     10  C10 <0> d          -2.356   1.070   7.096  0.00  0.00     0.242 C 
ATOM     11  O3  <0> d          -1.505   1.932   7.021  0.00  0.00    -0.271 OA
ENDROOT
BRANCH  10  12
ATOM     12  C11 <0> d          -3.320   1.061   8.254  0.00  0.00     0.240 C 
BRANCH  12  13
ATOM     13  N3  <0> d          -3.024   2.186   9.145  0.00  0.00    -0.259 N 
ATOM     14  C22 <0> d          -3.569   3.403   9.027  0.00  0.00     0.326 A 
ATOM     15  N4  <0> d          -3.132   4.256   9.976  0.00  0.00    -0.320 N 
ATOM     16  O5  <0> d          -4.371   3.705   8.164  0.00  0.00    -0.247 OA
ATOM     17  C13 <0> d          -2.185   3.501  10.797  0.00  0.00     0.144 A 
ATOM     18  H22 <0> d          -3.390   5.184  10.088  0.00  0.00     0.165 HD
ATOM     19  C12 <0> d          -2.163   2.125  10.184  0.00  0.00     0.261 A 
ATOM     20  C17 <0> d          -0.819   4.132  10.797  0.00  0.00    -0.014 A 
ATOM     21  C14 <0> d          -2.634   3.450  12.263  0.00  0.00     0.051 C 
ATOM     22  O4  <0> d          -1.511   1.169  10.545  0.00  0.00    -0.270 OA
ATOM     23  C16 <0> d          -0.611   4.774  12.008  0.00  0.00    -0.049 A 
ATOM     24  C18 <0> d           0.172   4.154   9.831  0.00  0.00     0.011 A 
ATOM     25  C15 <0> d          -1.831   4.611  12.890  0.00  0.00     0.042 C 
ATOM     26  C21 <0> d           0.585   5.430  12.243  0.00  0.00     0.007 A 
ATOM     27  C20 <0> d           1.571   5.448  11.276  0.00  0.00     0.001 A 
ATOM     28  C19 <0> d           1.364   4.809  10.068  0.00  0.00     0.001 A 
ENDBRANCH  12  13
ENDBRANCH  10  12
BRANCH   1  29
ATOM     29  S1  <0> d           0.742  -0.829   1.233  0.00  0.00     0.258 S 
ATOM     30  O1  <0> d           0.570  -2.212   0.955  0.00  0.00    -0.201 OA
ATOM     31  O2  <0> d           2.024  -0.240   1.403  0.00  0.00    -0.201 OA
BRANCH  29  32
ATOM     32  N1  <0> d           0.002  -0.004   0.002  0.00  0.00    -0.320 N 
ATOM     33  C1  <0> d          -0.018   1.461   0.010  0.00  0.00     0.159 C 
ATOM     34  H4  <0> d          -0.418  -0.491  -0.724  0.00  0.00     0.171 HD
ENDBRANCH  29  32
ENDBRANCH   1  29
TORSDOF 4
