REMARK  6 active torsions:
REMARK  status: ('A' for Active; 'I' for Inactive)
REMARK    1  A    between atoms: O1_2  and  C2_3 
REMARK    2  A    between atoms: C7_8  and  N1_9 
REMARK    3  A    between atoms: C9_11  and  C11_14 
REMARK    4  A    between atoms: C11_14  and  N3_15 
REMARK    5  A    between atoms: C14_18  and  N4_22 
REMARK    6  A    between atoms: C15_19  and  O2_21 
ROOT
ATOM      1  N3  <0> d          -2.852   1.610   0.036  0.00  0.00    -0.065 N 
ATOM      2  C12 <0> d          -2.207   1.109  -1.184  0.00  0.00     0.237 C 
ATOM      3  C13 <0> d          -0.756   1.594  -1.230  0.00  0.00     0.066 C 
ATOM      4  C14 <0> d          -0.013   1.086   0.008  0.00  0.00     0.255 C 
ATOM      5  C15 <0> d          -0.732   1.581   1.266  0.00  0.00     0.177 C 
ATOM      6  C16 <0> d          -2.185   1.096   1.239  0.00  0.00     0.269 C 
ATOM      7  H29 <0> d          -2.756   2.705   0.042  0.00  0.00     0.280 HD
ENDROOT
BRANCH   1   8
ATOM      8  C11 <0> d          -4.284   1.280   0.048  0.00  0.00     0.276 C 
BRANCH   8   9
ATOM      9  C9  <0> d          -4.980   2.029  -1.060  0.00  0.00     0.004 A 
ATOM     10  C8  <0> d          -5.540   3.257  -0.961  0.00  0.00     0.129 A 
ATOM     11  N1  <0> d          -6.057   3.572  -2.170  0.00  0.00    -0.242 N 
ATOM     12  N2  <0> d          -5.813   2.498  -3.035  0.00  0.00    -0.179 NA
ATOM     13  C10 <0> d          -5.168   1.574  -2.369  0.00  0.00     0.149 A 
BRANCH  11  14
ATOM     14  C7  <0> d          -6.724   4.762  -2.498  0.00  0.00     0.091 A 
ATOM     15  C2  <0> d          -7.214   4.955  -3.787  0.00  0.00     0.097 A 
ATOM     16  C3  <0> d          -7.873   6.132  -4.105  0.00  0.00     0.039 A 
ATOM     17  C4  <0> d          -8.043   7.111  -3.144  0.00  0.00     0.003 A 
ATOM     18  C5  <0> d          -7.557   6.919  -1.863  0.00  0.00     0.002 A 
ATOM     19  C6  <0> d          -6.904   5.746  -1.537  0.00  0.00     0.034 A 
BRANCH  15  20
ATOM     20  O1  <0> d          -7.047   3.991  -4.731  0.00  0.00    -0.354 OA
ATOM     21  C1  <0> d          -7.575   4.258  -6.032  0.00  0.00     0.210 C 
ENDBRANCH  15  20
ENDBRANCH  11  14
ENDBRANCH   8   9
ENDBRANCH   1   8
BRANCH   5  22
ATOM     22  O2  <0> d          -0.076   1.064   2.425  0.00  0.00    -0.392 OA
ATOM     23  H20 <0> d          -0.453   1.314   3.428  0.00  0.00     0.210 HD
ENDBRANCH   5  22
BRANCH   4  24
ATOM     24  N4  <0> d           1.365   1.595  -0.002  0.00  0.00     0.099 N 
ATOM     25  C20 <0> d           2.122   1.046  -1.137  0.00  0.00     0.299 C 
ATOM     26  C19 <0> d           3.564   1.555  -1.076  0.00  0.00     0.198 C 
ATOM     27  O3  <0> d           3.560   2.985  -1.069  0.00  0.00    -0.388 OA
ATOM     28  C18 <0> d           2.833   3.554   0.023  0.00  0.00     0.198 C 
ATOM     29  C17 <0> d           1.383   3.065  -0.027  0.00  0.00     0.299 C 
ENDBRANCH   4  24
TORSDOF 6
