REMARK  4 active torsions:
REMARK  status: ('A' for Active; 'I' for Inactive)
REMARK    1  A    between atoms: C2_2  and  C3_3 
REMARK    2  A    between atoms: C3_3  and  C4_4 
REMARK       I    between atoms: C4_4  and  N1_6 
REMARK    3  A    between atoms: N1_6  and  C5_7 
REMARK    4  A    between atoms: C5_7  and  C6_8 
ROOT
ATOM      1  C4  <0> d           0.847  -1.998  -1.206  0.00  0.00     0.232 C 
ATOM      2  O1  <0> d          -0.101  -2.677  -0.874  0.00  0.00    -0.272 OA
ATOM      3  N1  <0> d           2.017  -2.585  -1.529  0.00  0.00    -0.356 N 
ATOM      4  H8  <0> d           2.775  -2.042  -1.795  0.00  0.00     0.162 HD
ENDROOT
BRANCH   3   5
ATOM      5  C5  <0> d           2.142  -4.044  -1.480  0.00  0.00     0.164 C 
BRANCH   5   6
ATOM      6  C6  <0> d           3.538  -4.442  -1.884  0.00  0.00     0.002 A 
ATOM      7  C8  <0> d           4.673  -4.406  -1.068  0.00  0.00     0.060 A 
ATOM      8  N3  <0> d           5.694  -4.829  -1.768  0.00  0.00    -0.180 NA
ATOM      9  C9  <0> d           4.713  -3.962   0.372  0.00  0.00     0.073 C 
ATOM     10  N2  <0> d           5.242  -5.138  -3.058  0.00  0.00    -0.288 N 
ATOM     11  C7  <0> d           3.916  -4.892  -3.103  0.00  0.00     0.120 A 
ATOM     12  H2  <0> d           5.786  -5.470  -3.789  0.00  0.00     0.188 HD
ENDBRANCH   5   6
ENDBRANCH   3   5
BRANCH   1  13
ATOM     13  C3  <0> d           0.718  -0.497  -1.257  0.00  0.00     0.149 C 
ATOM     14 Br1  <0> d          -0.319   0.017  -2.845  0.00  0.00    -0.081 Br
BRANCH  13  15
ATOM     15  C2  <0> d           0.002  -0.004   0.002  0.00  0.00     0.021 C 
ATOM     16  C1  <0> d          -0.019   1.526   0.010  0.00  0.00     0.006 C 
ENDBRANCH  13  15
ENDBRANCH   1  13
TORSDOF 4
