REMARK  1 active torsions:
REMARK  status: ('A' for Active; 'I' for Inactive)
REMARK    1  A    between atoms: N3_18  and  N4_23 
ROOT
ATOM      1  C1  <0> d          -0.018   1.465   0.010  0.00  0.00     0.312 C 
ATOM      2  N1  <0> d           0.002  -0.004   0.002  0.00  0.00     0.109 N 
ATOM      3  C2  <0> d          -1.377  -0.556   0.080  0.00  0.00     0.275 C 
ATOM      4  C3  <0> d          -1.158  -1.997   0.612  0.00  0.00     0.053 C 
ATOM      5  C4  <0> d           0.010  -1.822   1.603  0.00  0.00     0.089 C 
ATOM      6  C5  <0> d           0.708  -0.529   1.184  0.00  0.00     0.283 A 
ATOM      7  C6  <0> d           2.164  -0.767   0.884  0.00  0.00     0.019 A 
ATOM      8  C7  <0> d           2.823  -1.563  -0.025  0.00  0.00     0.031 A 
ATOM      9  C8  <0> d           4.207  -1.572  -0.062  0.00  0.00     0.011 A 
ATOM     10  C9  <0> d           4.924  -0.779   0.817  0.00  0.00     0.021 A 
ATOM     11  C10 <0> d           4.266   0.022   1.727  0.00  0.00     0.031 A 
ATOM     12  C11 <0> d           2.874   0.036   1.770  0.00  0.00     0.044 A 
ATOM     13  N2  <0> d           1.994   0.751   2.586  0.00  0.00    -0.324 N 
ATOM     14  C12 <0> d           0.706   0.478   2.305  0.00  0.00     0.267 A 
ATOM     15  O1  <0> d          -0.269   0.952   2.849  0.00  0.00    -0.270 OA
ATOM     16 Br1  <0> d           5.115  -2.666  -1.309  0.00  0.00    -0.051 Br
ATOM     17  C13 <0> d           0.965  -3.010   1.502  0.00  0.00     0.168 C 
ATOM     18  N3  <0> d           1.915  -2.948   2.622  0.00  0.00    -0.279 N 
ATOM     19  C14 <0> d           1.400  -2.914   3.997  0.00  0.00     0.154 C 
ATOM     20  C15 <0> d           0.474  -1.700   4.152  0.00  0.00     0.101 C 
ATOM     21  C16 <0> d          -0.519  -1.710   3.009  0.00  0.00     0.142 C 
ATOM     22  O2  <0> d          -1.706  -1.628   3.219  0.00  0.00    -0.297 OA
ATOM     23  H11 <0> d           2.277   1.371   3.276  0.00  0.00     0.169 HD
ENDROOT
BRANCH  18  24
ATOM     24  N4  <0> d           3.186  -2.924   2.400  0.00  0.00    -0.017 NA
ATOM     25  O3  <0> d           3.966  -2.873   3.334  0.00  0.00    -0.042 OA
ENDBRANCH  18  24
TORSDOF 1
