REMARK  5 active torsions:
REMARK  status: ('A' for Active; 'I' for Inactive)
REMARK    1  A    between atoms: C4_4  and  N3_27 
REMARK    2  A    between atoms: C7_7  and  N1_8 
REMARK    3  A    between atoms: N1_8  and  C8_9 
REMARK       I    between atoms: N2_11  and  C9_12 
REMARK    4  A    between atoms: C9_12  and  C10_14 
REMARK    5  A    between atoms: C13_17  and  C14_19 
ROOT
ATOM      1  C8  <0> d          -2.394   1.385  -0.081  0.00  0.00     0.179 C 
ATOM      2  S1  <0> d          -2.378  -0.327  -0.090  0.00  0.00    -0.040 SA
ATOM      3  N2  <0> d          -3.563   2.049  -0.173  0.00  0.00    -0.298 N 
ATOM      4  C9  <0> d          -4.720   1.365  -0.273  0.00  0.00     0.281 C 
ATOM      5  O1  <0> d          -4.709   0.149  -0.280  0.00  0.00    -0.265 OA
ATOM      6  H8  <0> d          -3.573   3.149  -0.167  0.00  0.00     0.171 HD
ENDROOT
BRANCH   1   7
ATOM      7  N1  <0> d          -1.237   2.069   0.019  0.00  0.00    -0.333 N 
ATOM      8  H7  <0> d          -1.251   3.166   0.097  0.00  0.00     0.168 HD
BRANCH   7   9
ATOM      9  C7  <0> d          -0.017   1.384   0.024  0.00  0.00     0.040 A 
ATOM     10  C2  <0> d           1.024   1.810  -0.790  0.00  0.00    -0.033 A 
ATOM     11  C1  <0> d           0.844   3.015  -1.676  0.00  0.00     0.050 C 
ATOM     12  C3  <0> d           2.224   1.127  -0.787  0.00  0.00     0.045 A 
ATOM     13  C4  <0> d           2.391   0.021   0.025  0.00  0.00     0.103 A 
ATOM     14  C5  <0> d           1.356  -0.406   0.837  0.00  0.00     0.038 A 
ATOM     15  C6  <0> d           0.153   0.272   0.839  0.00  0.00     0.032 A 
BRANCH  13  16
ATOM     16  N3  <0> d           3.679  -0.709   0.025  0.00  0.00    -0.116 N 
ATOM     17  O3  <0> d           3.826  -1.684   0.740  0.00  0.00    -0.532 OA
ATOM     18  O4  <0> d           4.591  -0.334  -0.690  0.00  0.00    -0.532 OA
ENDBRANCH  13  16
ENDBRANCH   7   9
ENDBRANCH   1   7
BRANCH   4  19
ATOM     19  C10 <0> d          -5.990   2.087  -0.373  0.00  0.00     0.144 A 
ATOM     20  O2  <0> d          -6.142   3.428  -0.378  0.00  0.00    -0.304 OA
ATOM     21  C13 <0> d          -7.447   3.728  -0.484  0.00  0.00     0.088 A 
ATOM     22  C12 <0> d          -8.160   2.565  -0.551  0.00  0.00     0.041 A 
ATOM     23  C11 <0> d          -7.239   1.514  -0.486  0.00  0.00     0.046 A 
BRANCH  21  24
ATOM     24  C14 <0> d          -8.017   5.090  -0.523  0.00  0.00     0.021 A 
ATOM     25  C19 <0> d          -7.650   6.031   0.442  0.00  0.00     0.068 A 
ATOM     26  C18 <0> d          -8.188   7.304   0.399  0.00  0.00     0.056 A 
ATOM     27 Cl1  <0> d          -6.524   5.604   1.692  0.00  0.00    -0.082 Cl
ATOM     28  C17 <0> d          -9.086   7.645  -0.598  0.00  0.00     0.026 A 
ATOM     29 Cl2  <0> d          -7.735   8.477   1.596  0.00  0.00    -0.083 Cl
ATOM     30  C16 <0> d          -9.453   6.716  -1.556  0.00  0.00     0.003 A 
ATOM     31  C15 <0> d          -8.920   5.444  -1.528  0.00  0.00     0.016 A 
ENDBRANCH  21  24
ENDBRANCH   4  19
TORSDOF 5
