REMARK  4 active torsions:
REMARK  status: ('A' for Active; 'I' for Inactive)
REMARK    1  A    between atoms: O1_2  and  C2_3 
REMARK    2  A    between atoms: C5_6  and  C11_15 
REMARK    3  A    between atoms: C7_8  and  C8_9 
REMARK    4  A    between atoms: C8_9  and  N1_10 
ROOT
ATOM      1  C2  <0> d          -1.200  -0.637   0.010  0.00  0.00     0.076 A 
ATOM      2  C3  <0> d          -2.375   0.101   0.019  0.00  0.00     0.038 A 
ATOM      3  C4  <0> d          -3.596  -0.545   0.027  0.00  0.00     0.012 A 
ATOM      4  C5  <0> d          -3.648  -1.927   0.026  0.00  0.00    -0.021 A 
ATOM      5  C6  <0> d          -2.479  -2.665   0.017  0.00  0.00     0.021 A 
ATOM      6  C7  <0> d          -1.255  -2.023   0.003  0.00  0.00    -0.004 A 
ENDROOT
BRANCH   4   7
ATOM      7  C11 <0> d          -4.981  -2.629   0.034  0.00  0.00     0.272 C 
ATOM      8  N6  <0> d          -5.923  -1.913  -0.842  0.00  0.00    -0.061 N 
ATOM      9  C16 <0> d          -7.275  -2.472  -0.699  0.00  0.00     0.239 C 
ATOM     10  H18 <0> d          -5.939  -0.937  -0.588  0.00  0.00     0.278 HD
ATOM     11  H19 <0> d          -5.621  -2.001  -1.800  0.00  0.00     0.278 HD
ATOM     12  C15 <0> d          -7.865  -2.068   0.660  0.00  0.00     0.086 C 
ATOM     13  C13 <0> d          -6.838  -2.384   1.716  0.00  0.00     0.039 A 
ATOM     14  C12 <0> d          -5.539  -2.640   1.435  0.00  0.00     0.093 A 
ATOM     15  N4  <0> d          -6.982  -2.476   3.063  0.00  0.00    -0.352 N 
ATOM     16  N5  <0> d          -4.911  -2.886   2.585  0.00  0.00    -0.244 NA
ATOM     17  C14 <0> d          -5.767  -2.790   3.570  0.00  0.00     0.207 A 
ATOM     18  H2  <0> d          -7.801  -2.343   3.566  0.00  0.00     0.166 HD
ENDBRANCH   4   7
BRANCH   6  19
ATOM     19  C8  <0> d           0.018  -2.829  -0.013  0.00  0.00     0.193 C 
BRANCH  19  20
ATOM     20  N1  <0> d           0.547  -2.880  -1.378  0.00  0.00    -0.258 N 
ATOM     21  N3  <0> d          -0.132  -3.318  -2.527  0.00  0.00    -0.164 NA
ATOM     22  C10 <0> d           0.702  -3.195  -3.527  0.00  0.00     0.256 A 
ATOM     23  N2  <0> d           1.858  -2.717  -3.071  0.00  0.00    -0.234 NA
ATOM     24  C9  <0> d           1.779  -2.522  -1.779  0.00  0.00     0.230 A 
ENDBRANCH  19  20
ENDBRANCH   6  19
BRANCH   1  25
ATOM     25  O1  <0> d           0.002  -0.004   0.002  0.00  0.00    -0.355 OA
ATOM     26  C1  <0> d          -0.017   1.425   0.010  0.00  0.00     0.210 C 
ENDBRANCH   1  25
TORSDOF 4
