REMARK  3 active torsions:
REMARK  status: ('A' for Active; 'I' for Inactive)
REMARK    1  A    between atoms: N2_6  and  C5_8 
REMARK    2  A    between atoms: C5_8  and  C6_9 
REMARK    3  A    between atoms: C6_9  and  C7_10 
ROOT
ATOM      1  C6  <0> d           1.264  -2.632   1.419  0.00  0.00     0.026 C 
ENDROOT
BRANCH   1   2
ATOM      2  C5  <0> d           1.236  -2.115  -0.021  0.00  0.00     0.133 C 
BRANCH   2   3
ATOM      3  N2  <0> d           1.197  -0.650  -0.012  0.00  0.00    -0.308 N 
ATOM      4  C3  <0> d           2.345   0.052  -0.020  0.00  0.00     0.347 A 
ATOM      5  N1  <0> d           2.333   1.387  -0.013  0.00  0.00    -0.206 NA
ATOM      6  O1  <0> d           3.412  -0.539  -0.033  0.00  0.00    -0.244 OA
ATOM      7  C2  <0> d           1.196   2.052   0.002  0.00  0.00     0.123 A 
ATOM      8  C1  <0> d          -0.016   1.356   0.009  0.00  0.00     0.037 A 
ATOM      9  C4  <0> d           0.002  -0.004   0.002  0.00  0.00     0.097 A 
ENDBRANCH   2   3
ENDBRANCH   1   2
BRANCH   1  10
ATOM     10  C7  <0> d           1.304  -4.162   1.410  0.00  0.00     0.013 C 
ATOM     11  C11 <0> d           1.209  -4.684   2.846  0.00  0.00     0.237 C 
ATOM     12  N3  <0> d           1.251  -6.151   2.841  0.00  0.00    -0.075 N 
ATOM     13  C10 <0> d           2.540  -6.611   2.310  0.00  0.00     0.232 C 
ATOM     14  H15 <0> d           0.505  -6.505   2.262  0.00  0.00     0.277 HD
ATOM     15  H18 <0> d           1.135  -6.493   3.783  0.00  0.00     0.277 HD
ATOM     16  C9  <0> d           2.686  -6.163   0.854  0.00  0.00     0.028 C 
ATOM     17  C8  <0> d           2.621  -4.635   0.787  0.00  0.00     0.008 C 
ENDBRANCH   1  10
TORSDOF 3
