REMARK  5 active torsions:
REMARK  status: ('A' for Active; 'I' for Inactive)
REMARK    1  A    between atoms: C3_4  and  N2_6 
REMARK       I    between atoms: N2_6  and  C4_7 
REMARK    2  A    between atoms: C4_7  and  C5_9 
REMARK    3  A    between atoms: C5_9  and  S2_10 
REMARK    4  A    between atoms: S2_10  and  C6_11 
REMARK    5  A    between atoms: C6_11  and  C7_12 
ROOT
ATOM      1  C7  <0> d           6.538   1.967  -0.050  0.00  0.00     0.117 A 
ATOM      2  N3  <0> d           7.770   1.398  -0.059  0.00  0.00    -0.310 N 
ATOM      3  H1  <0> d           7.847   0.431  -0.062  0.00  0.00     0.170 HD
ATOM      4  C8  <0> d           8.888   2.149  -0.070  0.00  0.00     0.260 A 
ATOM      5  O2  <0> d           9.988   1.625  -0.083  0.00  0.00    -0.267 OA
ATOM      6  C9  <0> d           8.760   3.576  -0.061  0.00  0.00     0.075 A 
ATOM      7  C10 <0> d           9.832   4.582  -0.064  0.00  0.00    -0.026 A 
ATOM      8  C11 <0> d           9.454   5.872  -0.056  0.00  0.00    -0.008 A 
ATOM      9  S3  <0> d           7.676   5.830  -0.041  0.00  0.00    -0.073 SA
ATOM     10  C12 <0> d           7.450   4.071  -0.047  0.00  0.00     0.116 A 
ATOM     11  N4  <0> d           6.391   3.265  -0.041  0.00  0.00    -0.226 NA
ATOM     12  C13 <0> d          10.632   6.809  -0.065  0.00  0.00     0.047 C 
ATOM     13  C14 <0> d          11.821   5.933  -0.517  0.00  0.00     0.010 C 
ATOM     14  C15 <0> d          11.362   4.530  -0.074  0.00  0.00     0.041 C 
ENDROOT
BRANCH   1  15
ATOM     15  C6  <0> d           5.316   1.085  -0.043  0.00  0.00     0.152 C 
BRANCH  15  16
ATOM     16  S2  <0> d           3.825   2.117  -0.023  0.00  0.00    -0.152 SA
BRANCH  16  17
ATOM     17  C5  <0> d           2.462   0.920  -0.017  0.00  0.00     0.177 C 
BRANCH  17  18
ATOM     18  C4  <0> d           1.147   1.655  -0.000  0.00  0.00     0.232 C 
ATOM     19  N2  <0> d          -0.011   0.966   0.007  0.00  0.00    -0.305 N 
ATOM     20  H4  <0> d           0.002  -0.004   0.002  0.00  0.00     0.171 HD
ATOM     21  O1  <0> d           1.130   2.868   0.007  0.00  0.00    -0.272 OA
BRANCH  19  22
ATOM     22  C3  <0> d          -1.224   1.644   0.017  0.00  0.00     0.172 A 
ATOM     23  S1  <0> d          -2.836   0.998   0.021  0.00  0.00    -0.062 SA
ATOM     24  C2  <0> d          -3.711   2.556   0.034  0.00  0.00     0.072 A 
ATOM     25  C1  <0> d          -2.673   3.428   0.033  0.00  0.00     0.126 A 
ATOM     26  N1  <0> d          -1.446   2.944   0.031  0.00  0.00    -0.236 NA
ENDBRANCH  19  22
ENDBRANCH  17  18
ENDBRANCH  16  17
ENDBRANCH  15  16
ENDBRANCH   1  15
TORSDOF 5
