REMARK  6 active torsions:
REMARK  status: ('A' for Active; 'I' for Inactive)
REMARK    1  A    between atoms: C5_5  and  C8_8 
REMARK    2  A    between atoms: C8_8  and  C9_9 
REMARK       I    between atoms: C9_9  and  N1_11 
REMARK    3  A    between atoms: N1_11  and  C10_12 
REMARK    4  A    between atoms: C10_12  and  C12_14 
REMARK    5  A    between atoms: C16_18  and  S1_20 
REMARK    6  A    between atoms: S1_20  and  N2_23 
ROOT
ATOM      1  C10 <0> d           3.137  -6.551  -0.051  0.00  0.00     0.113 C 
ATOM      2  C11 <0> d           3.669  -6.604   1.383  0.00  0.00     0.037 C 
ENDROOT
BRANCH   1   3
ATOM      3  N1  <0> d           1.750  -6.081  -0.041  0.00  0.00    -0.353 N 
ATOM      4  C9  <0> d           1.487  -4.759  -0.032  0.00  0.00     0.222 C 
ATOM      5  O1  <0> d           2.398  -3.959  -0.033  0.00  0.00    -0.273 OA
ATOM      6  H11 <0> d           1.021  -6.721  -0.040  0.00  0.00     0.163 HD
BRANCH   4   7
ATOM      7  C8  <0> d           0.059  -4.275  -0.021  0.00  0.00     0.141 C 
BRANCH   7   8
ATOM      8  C5  <0> d           0.040  -2.768  -0.013  0.00  0.00    -0.049 A 
ATOM      9  C4  <0> d           0.025  -2.071  -1.206  0.00  0.00     0.008 A 
ATOM     10  C3  <0> d           0.006  -0.689  -1.199  0.00  0.00     0.007 A 
ATOM     11  C2  <0> d           0.002  -0.004   0.002  0.00  0.00    -0.062 A 
ATOM     12  C1  <0> d          -0.018   1.503   0.010  0.00  0.00     0.048 C 
ATOM     13  C7  <0> d           0.023  -0.702   1.195  0.00  0.00     0.007 A 
ATOM     14  C6  <0> d           0.037  -2.084   1.188  0.00  0.00     0.008 A 
ENDBRANCH   7   8
ENDBRANCH   4   7
ENDBRANCH   1   3
BRANCH   1  15
ATOM     15  C12 <0> d           3.196  -7.929  -0.659  0.00  0.00    -0.034 A 
ATOM     16  C17 <0> d           4.232  -8.265  -1.510  0.00  0.00     0.034 A 
ATOM     17  C16 <0> d           4.288  -9.530  -2.065  0.00  0.00     0.080 A 
ATOM     18  C15 <0> d           3.304 -10.456  -1.776  0.00  0.00     0.025 A 
ATOM     19  C14 <0> d           2.265 -10.118  -0.928  0.00  0.00     0.002 A 
ATOM     20  C13 <0> d           2.211  -8.855  -0.370  0.00  0.00     0.009 A 
BRANCH  17  21
ATOM     21  S1  <0> d           5.613  -9.961  -3.144  0.00  0.00     0.260 S 
ATOM     22  O2  <0> d           6.696  -9.098  -2.823  0.00  0.00    -0.200 OA
ATOM     23  O3  <0> d           5.728 -11.376  -3.101  0.00  0.00    -0.200 OA
BRANCH  21  24
ATOM     24  N2  <0> d           5.138  -9.571  -4.682  0.00  0.00    -0.315 N 
ATOM     25  C18 <0> d           5.421  -8.238  -5.220  0.00  0.00     0.162 C 
ATOM     26  C19 <0> d           4.435 -10.559  -5.504  0.00  0.00     0.162 C 
ENDBRANCH  21  24
ENDBRANCH  17  21
ENDBRANCH   1  15
TORSDOF 6
