REMARK  6 active torsions:
REMARK  status: ('A' for Active; 'I' for Inactive)
REMARK    1  A    between atoms: C3_4  and  S1_10 
REMARK    2  A    between atoms: C5_6  and  C6_7 
REMARK       I    between atoms: C6_7  and  N2_9 
REMARK    3  A    between atoms: S1_10  and  N3_13 
REMARK    4  A    between atoms: N3_13  and  C7_14 
REMARK    5  A    between atoms: C7_14  and  C8_15 
REMARK    6  A    between atoms: C7_14  and  C18_25 
ROOT
ATOM      1  N3  <0> d          -6.965   0.375   1.549  0.00  0.00    -0.301 N 
ATOM      2  H9  <0> d          -7.520  -0.376   1.812  0.00  0.00     0.173 HD
ENDROOT
BRANCH   1   3
ATOM      3  S1  <0> d          -6.357   0.456   0.010  0.00  0.00     0.261 S 
ATOM      4  O2  <0> d          -6.643   1.762  -0.471  0.00  0.00    -0.200 OA
ATOM      5  O3  <0> d          -6.797  -0.717  -0.662  0.00  0.00    -0.200 OA
BRANCH   3   6
ATOM      6  C3  <0> d          -4.604   0.337   0.136  0.00  0.00     0.097 A 
ATOM      7  C2  <0> d          -3.878  -0.806   0.109  0.00  0.00     0.116 A 
ATOM      8  N1  <0> d          -2.565  -0.495   0.232  0.00  0.00    -0.355 N 
ATOM      9  C1  <0> d          -1.457  -1.454   0.248  0.00  0.00     0.156 C 
ATOM     10  C5  <0> d          -2.445   0.872   0.340  0.00  0.00     0.103 A 
ATOM     11  C4  <0> d          -3.715   1.406   0.287  0.00  0.00     0.062 A 
BRANCH  10  12
ATOM     12  C6  <0> d          -1.194   1.624   0.489  0.00  0.00     0.266 C 
ATOM     13  O1  <0> d          -0.126   1.044   0.437  0.00  0.00    -0.266 OA
ATOM     14  N2  <0> d          -1.228   2.957   0.685  0.00  0.00    -0.365 N 
ATOM     15  H7  <0> d          -2.074   3.430   0.651  0.00  0.00     0.159 HD
ATOM     16  H8  <0> d          -0.408   3.442   0.863  0.00  0.00     0.159 HD
ENDBRANCH  10  12
ENDBRANCH   3   6
ENDBRANCH   1   3
BRANCH   1  17
ATOM     17  C7  <0> d          -6.665   1.438   2.511  0.00  0.00     0.166 C 
BRANCH  17  18
ATOM     18  C8  <0> d          -6.529   0.844   3.889  0.00  0.00    -0.029 A 
ATOM     19  C13 <0> d          -5.546   1.298   4.745  0.00  0.00     0.017 A 
ATOM     20  C12 <0> d          -5.414   0.758   6.018  0.00  0.00    -0.051 A 
ATOM     21  C11 <0> d          -6.271  -0.238   6.429  0.00  0.00    -0.052 A 
ATOM     22  C14 <0> d          -4.316   1.296   6.897  0.00  0.00     0.039 C 
ATOM     23  C10 <0> d          -7.258  -0.696   5.564  0.00  0.00     0.008 A 
ATOM     24  C17 <0> d          -6.192  -0.862   7.797  0.00  0.00     0.039 C 
ATOM     25  C9  <0> d          -7.391  -0.154   4.303  0.00  0.00     0.010 A 
ATOM     26  C16 <0> d          -4.836  -0.578   8.440  0.00  0.00     0.005 C 
ATOM     27  C15 <0> d          -4.570   0.930   8.358  0.00  0.00     0.005 C 
ENDBRANCH  17  18
BRANCH  17  28
ATOM     28  C18 <0> d          -7.783   2.449   2.508  0.00  0.00     0.010 A 
ATOM     29  S2  <0> d          -9.544   2.176   2.404  0.00  0.00    -0.104 SA
ATOM     30  C21 <0> d         -10.067   3.882   2.469  0.00  0.00     0.050 A 
ATOM     31  C20 <0> d          -8.883   4.535   2.564  0.00  0.00     0.008 A 
ATOM     32  C19 <0> d          -7.712   3.800   2.590  0.00  0.00     0.017 A 
ENDBRANCH  17  28
ENDBRANCH   1  17
TORSDOF 6
