REMARK  4 active torsions:
REMARK  status: ('A' for Active; 'I' for Inactive)
REMARK    1  A    between atoms: C4_4  and  C7_8 
REMARK    2  A    between atoms: C9_11  and  N2_13 
REMARK       I    between atoms: N2_13  and  C10_14 
REMARK    3  A    between atoms: C10_14  and  C11_16 
REMARK    4  A    between atoms: C11_16  and  N3_17 
ROOT
ATOM      1  C11 <0> d          -1.763   4.150   0.039  0.00  0.00     0.240 C 
ENDROOT
BRANCH   1   2
ATOM      2  C10 <0> d          -2.112   4.530  -1.377  0.00  0.00     0.242 C 
ATOM      3  N2  <0> d          -3.002   5.515  -1.610  0.00  0.00    -0.304 N 
ATOM      4  H9  <0> d          -3.473   6.042  -0.767  0.00  0.00     0.171 HD
ATOM      5  O1  <0> d          -1.593   3.949  -2.306  0.00  0.00    -0.271 OA
BRANCH   3   6
ATOM      6  C9  <0> d          -3.324   5.865  -2.916  0.00  0.00     0.173 A 
ATOM      7  S2  <0> d          -2.720   5.199  -4.401  0.00  0.00    -0.061 SA
ATOM      8  C8  <0> d          -3.661   6.225  -5.521  0.00  0.00     0.085 A 
ATOM      9  C7  <0> d          -4.355   6.999  -4.634  0.00  0.00     0.077 A 
ATOM     10  N1  <0> d          -4.160   6.790  -3.340  0.00  0.00    -0.223 NA
BRANCH   9  11
ATOM     11  C4  <0> d          -5.299   8.043  -5.106  0.00  0.00     0.007 A 
ATOM     12  C3  <0> d          -5.496   8.261  -6.466  0.00  0.00     0.029 A 
ATOM     13  C2  <0> d          -6.368   9.218  -6.858  0.00  0.00    -0.020 A 
ATOM     14  C1  <0> d          -6.751   9.635  -8.254  0.00  0.00     0.056 C 
ATOM     15  S1  <0> d          -6.944   9.866  -5.297  0.00  0.00    -0.099 SA
ATOM     16  C5  <0> d          -5.990   8.814  -4.215  0.00  0.00    -0.008 A 
ATOM     17  C6  <0> d          -5.956   8.785  -2.709  0.00  0.00     0.057 C 
ENDBRANCH   9  11
ENDBRANCH   3   6
ENDBRANCH   1   2
BRANCH   1  18
ATOM     18  N3  <0> d          -0.782   3.062   0.025  0.00  0.00    -0.259 N 
ATOM     19  C22 <0> d          -1.100   1.761   0.016  0.00  0.00     0.326 A 
ATOM     20  N4  <0> d          -0.011   0.966   0.007  0.00  0.00    -0.320 N 
ATOM     21  O3  <0> d          -2.242   1.344   0.019  0.00  0.00    -0.247 OA
ATOM     22  C13 <0> d           1.147   1.860   0.001  0.00  0.00     0.144 A 
ATOM     23  H20 <0> d           0.136  -0.124   0.005  0.00  0.00     0.165 HD
ATOM     24  C12 <0> d           0.556   3.246   0.014  0.00  0.00     0.261 A 
ATOM     25  C17 <0> d           2.041   1.627   1.189  0.00  0.00    -0.014 A 
ATOM     26  C14 <0> d           2.019   1.640  -1.242  0.00  0.00     0.051 C 
ATOM     27  O2  <0> d           1.154   4.301   0.014  0.00  0.00    -0.270 OA
ATOM     28  C16 <0> d           3.364   1.676   0.783  0.00  0.00    -0.049 A 
ATOM     29  C18 <0> d           1.740   1.390   2.519  0.00  0.00     0.011 A 
ATOM     30  C15 <0> d           3.435   1.949  -0.705  0.00  0.00     0.042 C 
ATOM     31  C21 <0> d           4.376   1.488   1.708  0.00  0.00     0.007 A 
ATOM     32  C20 <0> d           4.072   1.251   3.035  0.00  0.00     0.001 A 
ATOM     33  C19 <0> d           2.751   1.202   3.441  0.00  0.00     0.001 A 
ENDBRANCH   1  18
TORSDOF 4
