REMARK  8 active torsions:
REMARK  status: ('A' for Active; 'I' for Inactive)
REMARK    1  A    between atoms: C4_4  and  C7_7 
REMARK    2  A    between atoms: C8_8  and  C9_9 
REMARK    3  A    between atoms: C9_9  and  S1_10 
REMARK    4  A    between atoms: S1_10  and  C10_11 
REMARK    5  A    between atoms: C11_14  and  C12_16 
REMARK    6  A    between atoms: C12_16  and  C13_17 
REMARK    7  A    between atoms: C12_16  and  N4_27 
REMARK    8  A    between atoms: C13_17  and  C14_18 
ROOT
ATOM      1  C12 <0> d           9.361  -3.173  -0.804  0.00  0.00     0.239 C 
ENDROOT
BRANCH   1   2
ATOM      2  C11 <0> d           8.762  -4.176   0.184  0.00  0.00     0.300 C 
ATOM      3  N2  <0> d           7.919  -5.148  -0.525  0.00  0.00    -0.160 NA
ATOM      4  N1  <0> d           6.859  -5.320   0.091  0.00  0.00    -0.151 NA
ATOM      5  C10 <0> d           6.838  -4.489   1.302  0.00  0.00     0.332 C 
ATOM      6  O1  <0> d           7.876  -3.506   1.107  0.00  0.00    -0.324 OA
BRANCH   5   7
ATOM      7  S1  <0> d           5.226  -3.676   1.480  0.00  0.00    -0.109 SA
BRANCH   7   8
ATOM      8  C9  <0> d           5.033  -2.743  -0.063  0.00  0.00     0.105 C 
BRANCH   8   9
ATOM      9  C8  <0> d           3.716  -2.010  -0.046  0.00  0.00    -0.015 C 
ATOM     10  C7  <0> d           3.695  -0.685  -0.038  0.00  0.00     0.008 C 
BRANCH  10  11
ATOM     11  C4  <0> d           2.403   0.034  -0.021  0.00  0.00    -0.036 A 
ATOM     12  C3  <0> d           2.377   1.429  -0.013  0.00  0.00     0.011 A 
ATOM     13  C2  <0> d           1.168   2.093   0.002  0.00  0.00     0.001 A 
ATOM     14  C1  <0> d          -0.017   1.379   0.010  0.00  0.00     0.000 A 
ATOM     15  C6  <0> d           0.002  -0.004   0.002  0.00  0.00     0.001 A 
ATOM     16  C5  <0> d           1.204  -0.681  -0.013  0.00  0.00     0.011 A 
ENDBRANCH  10  11
ENDBRANCH   8   9
ENDBRANCH   7   8
ENDBRANCH   5   7
ENDBRANCH   1   2
BRANCH   1  17
ATOM     17  C13 <0> d          10.243  -3.914  -1.811  0.00  0.00     0.074 C 
BRANCH  17  18
ATOM     18  C14 <0> d          10.735  -2.947  -2.856  0.00  0.00    -0.048 A 
ATOM     19  C21 <0> d          10.011  -2.522  -4.114  0.00  0.00     0.155 A 
ATOM     20  N3  <0> d          10.901  -1.571  -4.789  0.00  0.00    -0.385 N 
ATOM     21  C20 <0> d          11.992  -1.439  -4.074  0.00  0.00     0.038 A 
ATOM     22  H23 <0> d          10.715  -1.118  -5.627  0.00  0.00     0.160 HD
ATOM     23  C15 <0> d          11.915  -2.287  -2.862  0.00  0.00    -0.006 A 
ATOM     24  C19 <0> d          13.163  -0.657  -4.269  0.00  0.00     0.030 A 
ATOM     25  C16 <0> d          13.051  -2.272  -1.933  0.00  0.00     0.014 A 
ATOM     26  C17 <0> d          14.119  -1.491  -2.214  0.00  0.00     0.001 A 
ATOM     27  C18 <0> d          14.168  -0.697  -3.368  0.00  0.00     0.002 A 
ENDBRANCH  17  18
ENDBRANCH   1  17
BRANCH   1  28
ATOM     28  N4  <0> d          10.172  -2.191  -0.073  0.00  0.00    -0.070 N 
ATOM     29  H21 <0> d          10.567  -1.529  -0.725  0.00  0.00     0.274 HD
ATOM     30  H22 <0> d           9.590  -1.702   0.591  0.00  0.00     0.274 HD
ATOM     31  H24 <0> d          10.915  -2.665   0.417  0.00  0.00     0.274 HD
ENDBRANCH   1  28
TORSDOF 8
