REMARK  4 active torsions:
REMARK  status: ('A' for Active; 'I' for Inactive)
REMARK    1  A    between atoms: C6_9  and  C7_10 
REMARK       I    between atoms: C7_10  and  N3_12 
REMARK    2  A    between atoms: N3_12  and  C8_13 
REMARK    3  A    between atoms: C12_17  and  C14_19 
REMARK    4  A    between atoms: C14_19  and  S1_21 
ROOT
ATOM      1  C7  <0> d          -3.100   0.759   0.022  0.00  0.00     0.277 C 
ATOM      2  O2  <0> d          -2.353   1.718   0.032  0.00  0.00    -0.266 OA
ATOM      3  N3  <0> d          -4.435   0.945   0.028  0.00  0.00    -0.322 N 
ATOM      4  H5  <0> d          -5.031   0.183  -0.048  0.00  0.00     0.169 HD
ENDROOT
BRANCH   1   5
ATOM      5  C6  <0> d          -2.546  -0.608   0.004  0.00  0.00     0.160 A 
ATOM      6  C3  <0> d          -1.086  -0.814  -0.002  0.00  0.00     0.068 A 
ATOM      7  C2  <0> d           0.002  -0.005   0.006  0.00  0.00     0.090 A 
ATOM      8  C4  <0> d          -0.588  -2.201  -0.020  0.00  0.00     0.169 A 
ATOM      9  C1  <0> d          -0.018   1.502   0.025  0.00  0.00     0.080 C 
ATOM     10  O3  <0> d           1.097  -0.775  -0.012  0.00  0.00    -0.217 OA
ATOM     11  N4  <0> d           0.715  -2.139  -0.022  0.00  0.00    -0.122 NA
ATOM     12  C5  <0> d          -1.591  -3.284  -0.032  0.00  0.00     0.295 A 
ATOM     13  O1  <0> d          -1.242  -4.450  -0.046  0.00  0.00    -0.264 OA
ATOM     14  N1  <0> d          -2.899  -2.960  -0.024  0.00  0.00    -0.236 N 
ATOM     15  N2  <0> d          -3.348  -1.642  -0.007  0.00  0.00    -0.163 NA
ATOM     16  C17 <0> d          -3.891  -4.039  -0.035  0.00  0.00     0.183 C 
ENDBRANCH   1   5
BRANCH   3  17
ATOM     17  C8  <0> d          -4.961   2.236   0.142  0.00  0.00     0.035 A 
ATOM     18  C13 <0> d          -4.306   3.309  -0.447  0.00  0.00     0.038 A 
ATOM     19  C12 <0> d          -4.830   4.582  -0.336  0.00  0.00    -0.043 A 
ATOM     20  C11 <0> d          -6.001   4.790   0.369  0.00  0.00     0.008 A 
ATOM     21  C10 <0> d          -6.653   3.724   0.962  0.00  0.00     0.003 A 
ATOM     22  C9  <0> d          -6.137   2.448   0.851  0.00  0.00     0.029 A 
BRANCH  19  23
ATOM     23  C14 <0> d          -4.124   5.746  -0.981  0.00  0.00     0.075 C 
ATOM     24  C15 <0> d          -3.733   6.764   0.093  0.00  0.00     0.026 C 
BRANCH  23  25
ATOM     25  S1  <0> d          -5.229   6.532  -2.186  0.00  0.00    -0.164 SA
ATOM     26  C16 <0> d          -4.192   7.798  -2.971  0.00  0.00     0.090 C 
ENDBRANCH  23  25
ENDBRANCH  19  23
ENDBRANCH   3  17
TORSDOF 4
