REMARK  5 active torsions:
REMARK  status: ('A' for Active; 'I' for Inactive)
REMARK    1  A    between atoms: C2_2  and  N1_4 
REMARK       I    between atoms: N1_4  and  C4_5 
REMARK    2  A    between atoms: C4_5  and  C5_7 
REMARK    3  A    between atoms: C10_12  and  N2_13 
REMARK       I    between atoms: N2_13  and  C11_14 
REMARK    4  A    between atoms: C11_14  and  C12_16 
REMARK    5  A    between atoms: C12_16  and  N3_17 
ROOT
ATOM      1  N2  <0> d          -2.253  -4.149  -1.653  0.00  0.00    -0.325 N 
ATOM      2  C11 <0> d          -2.513  -5.285  -2.331  0.00  0.00     0.248 C 
ATOM      3  O2  <0> d          -3.660  -5.640  -2.502  0.00  0.00    -0.271 OA
ATOM      4  H13 <0> d          -1.340  -3.833  -1.568  0.00  0.00     0.169 HD
ENDROOT
BRANCH   1   5
ATOM      5  C10 <0> d          -3.296  -3.429  -1.075  0.00  0.00     0.050 A 
ATOM      6  C5  <0> d          -3.155  -2.898   0.216  0.00  0.00     0.058 A 
ATOM      7  C6  <0> d          -4.206  -2.174   0.783  0.00  0.00     0.019 A 
ATOM      8  C7  <0> d          -5.374  -1.990   0.075  0.00  0.00     0.001 A 
ATOM      9  C8  <0> d          -5.512  -2.520  -1.197  0.00  0.00     0.002 A 
ATOM     10  C9  <0> d          -4.482  -3.239  -1.770  0.00  0.00     0.030 A 
BRANCH   6  11
ATOM     11  C4  <0> d          -1.902  -3.098   0.968  0.00  0.00     0.254 C 
ATOM     12  N1  <0> d          -1.724  -2.487   2.156  0.00  0.00    -0.353 N 
ATOM     13  H8  <0> d          -2.420  -1.917   2.517  0.00  0.00     0.163 HD
ATOM     14  O1  <0> d          -1.029  -3.814   0.515  0.00  0.00    -0.268 OA
BRANCH  12  15
ATOM     15  C2  <0> d          -0.479  -2.686   2.903  0.00  0.00     0.076 C 
ATOM     16  C1  <0> d          -0.241  -1.489   3.825  0.00  0.00     0.032 C 
ATOM     17  C3  <0> d          -0.585  -3.962   3.740  0.00  0.00     0.032 C 
ENDBRANCH  12  15
ENDBRANCH   6  11
ENDBRANCH   1   5
BRANCH   2  18
ATOM     18  C12 <0> d          -1.378  -6.113  -2.876  0.00  0.00     0.339 C 
BRANCH  18  19
ATOM     19  N3  <0> d          -1.920  -7.290  -3.569  0.00  0.00    -0.044 N 
ATOM     20  C16 <0> d          -0.825  -8.034  -4.203  0.00  0.00     0.200 C 
ATOM     21  C15 <0> d          -1.331  -9.345  -4.735  0.00  0.00     0.253 C 
ATOM     22  C17 <0> d          -0.250  -7.207  -5.355  0.00  0.00     0.057 C 
ATOM     23  C18 <0> d           0.275  -8.296  -3.172  0.00  0.00     0.057 C 
ATOM     24  N4  <0> d          -2.483  -9.892  -4.332  0.00  0.00    -0.357 N 
ATOM     25  O3  <0> d          -0.668  -9.931  -5.565  0.00  0.00    -0.271 OA
ATOM     26  C14 <0> d          -3.362  -9.247  -3.359  0.00  0.00     0.150 C 
ATOM     27  H20 <0> d          -2.746 -10.750  -4.700  0.00  0.00     0.162 HD
ATOM     28  C13 <0> d          -2.592  -8.167  -2.597  0.00  0.00     0.256 C 
ATOM     29  H27 <0> d          -2.580  -6.994  -4.272  0.00  0.00     0.282 HD
ENDBRANCH  18  19
ENDBRANCH   2  18
TORSDOF 5
