REMARK  5 active torsions:
REMARK  status: ('A' for Active; 'I' for Inactive)
REMARK    1  A    between atoms: N1_5  and  C6_9 
REMARK    2  A    between atoms: C6_9  and  C7_10 
REMARK    3  A    between atoms: C9_12  and  C11_15 
REMARK    4  A    between atoms: C12_16  and  C13_17 
REMARK    5  A    between atoms: C13_17  and  N3_18 
ROOT
ATOM      1  C7  <0> d           0.130  -4.663  -1.446  0.00  0.00     0.002 A 
ATOM      2  C8  <0> d           1.190  -4.900  -2.250  0.00  0.00     0.037 A 
ATOM      3  C9  <0> d           0.967  -5.360  -3.546  0.00  0.00     0.025 A 
ATOM      4  C10 <0> d          -0.326  -5.554  -3.955  0.00  0.00     0.070 A 
ATOM      5  S1  <0> d          -1.247  -5.092  -2.497  0.00  0.00    -0.103 SA
ENDROOT
BRANCH   1   6
ATOM      6  C6  <0> d           0.115  -4.170  -0.023  0.00  0.00     0.179 C 
BRANCH   6   7
ATOM      7  N1  <0> d           0.050  -2.706  -0.014  0.00  0.00    -0.297 N 
ATOM      8  C4  <0> d          -1.156  -2.081  -0.004  0.00  0.00     0.014 A 
ATOM      9  C3  <0> d          -1.198  -0.721   0.004  0.00  0.00     0.051 A 
ATOM     10  C14 <0> d          -2.431  -2.884  -0.002  0.00  0.00     0.068 C 
ATOM     11  C2  <0> d           0.002  -0.004   0.002  0.00  0.00     0.038 A 
ATOM     12  C1  <0> d          -0.018   1.503   0.010  0.00  0.00     0.070 C 
ATOM     13  N2  <0> d           1.151  -0.649  -0.012  0.00  0.00    -0.199 NA
ATOM     14  C5  <0> d           1.186  -1.984  -0.015  0.00  0.00     0.349 A 
ATOM     15  O1  <0> d           2.263  -2.557  -0.023  0.00  0.00    -0.244 OA
ENDBRANCH   6   7
ENDBRANCH   1   6
BRANCH   3  16
ATOM     16  C11 <0> d           2.062  -5.622  -4.431  0.00  0.00    -0.065 C 
ATOM     17  C12 <0> d           2.960  -5.837  -5.155  0.00  0.00    -0.074 C 
BRANCH  17  18
ATOM     18  C13 <0> d           4.086  -6.107  -6.064  0.00  0.00     0.323 C 
BRANCH  18  19
ATOM     19  N3  <0> d           3.571  -6.577  -7.357  0.00  0.00    -0.069 N 
ATOM     20  H11 <0> d           3.039  -7.424  -7.219  0.00  0.00     0.275 HD
ATOM     21  H12 <0> d           2.976  -5.869  -7.759  0.00  0.00     0.275 HD
ATOM     22  H16 <0> d           4.343  -6.762  -7.980  0.00  0.00     0.275 HD
ENDBRANCH  18  19
ENDBRANCH  17  18
ENDBRANCH   3  16
TORSDOF 5
