REMARK  5 active torsions:
REMARK  status: ('A' for Active; 'I' for Inactive)
REMARK    1  A    between atoms: C2_2  and  C3_3 
REMARK    2  A    between atoms: C3_3  and  N1_4 
REMARK    3  A    between atoms: C4_5  and  N2_6 
REMARK    4  A    between atoms: C5_7  and  C15_20 
REMARK       I    between atoms: C15_20  and  N5_22 
REMARK    5  A    between atoms: N5_22  and  C16_23 
ROOT
ATOM      1  N1  <0> d           0.598  -1.901  -1.113  0.00  0.00    -0.316 N 
ATOM      2  C4  <0> d           1.813  -2.403  -1.003  0.00  0.00     0.118 A 
ATOM      3  C5  <0> d           2.073  -3.764  -1.279  0.00  0.00     0.077 A 
ATOM      4  C6  <0> d           1.021  -4.593  -1.675  0.00  0.00     0.042 A 
ATOM      5  C7  <0> d          -0.249  -4.031  -1.780  0.00  0.00     0.080 A 
ATOM      6  C8  <0> d          -0.440  -2.654  -1.483  0.00  0.00     0.149 A 
ATOM      7  N3  <0> d          -1.667  -2.136  -1.586  0.00  0.00    -0.212 NA
ATOM      8  C9  <0> d          -2.715  -2.865  -1.952  0.00  0.00     0.139 A 
ATOM      9  C10 <0> d          -3.977  -2.236  -2.035  0.00  0.00     0.051 A 
ATOM     10  C11 <0> d          -5.066  -2.961  -2.409  0.00  0.00     0.005 A 
ATOM     11  C12 <0> d          -4.924  -4.325  -2.707  0.00  0.00     0.018 A 
ATOM     12  C13 <0> d          -3.711  -4.913  -2.623  0.00  0.00     0.102 A 
ATOM     13  N4  <0> d          -2.611  -4.197  -2.250  0.00  0.00    -0.273 N 
ATOM     14  C14 <0> d          -1.411  -4.821  -2.188  0.00  0.00     0.267 A 
ATOM     15  O1  <0> d          -1.305  -6.005  -2.451  0.00  0.00    -0.267 OA
ENDROOT
BRANCH   3  16
ATOM     16  C15 <0> d           3.437  -4.302  -1.151  0.00  0.00     0.260 C 
ATOM     17  O2  <0> d           4.330  -3.600  -0.715  0.00  0.00    -0.267 OA
ATOM     18  N5  <0> d           3.697  -5.573  -1.516  0.00  0.00    -0.323 N 
ATOM     19  H14 <0> d           3.004  -6.109  -1.934  0.00  0.00     0.169 HD
BRANCH  18  20
ATOM     20  C16 <0> d           4.965  -6.120  -1.293  0.00  0.00     0.035 A 
ATOM     21  C21 <0> d           5.487  -7.051  -2.181  0.00  0.00     0.036 A 
ATOM     22  C20 <0> d           6.742  -7.585  -1.961  0.00  0.00    -0.060 A 
ATOM     23  C19 <0> d           7.473  -7.201  -0.852  0.00  0.00     0.007 A 
ATOM     24  C22 <0> d           7.312  -8.591  -2.927  0.00  0.00     0.048 C 
ATOM     25  C18 <0> d           6.953  -6.278   0.037  0.00  0.00     0.003 A 
ATOM     26  C17 <0> d           5.702  -5.736  -0.180  0.00  0.00     0.029 A 
ENDBRANCH  18  20
ENDBRANCH   3  16
BRANCH   2  27
ATOM     27  N2  <0> d           2.851  -1.583  -0.612  0.00  0.00    -0.384 N 
ATOM     28  H8  <0> d           2.833  -0.639  -0.835  0.00  0.00     0.157 HD
ATOM     29  H22 <0> d           3.597  -1.950  -0.113  0.00  0.00     0.157 HD
ENDBRANCH   2  27
BRANCH   1  30
ATOM     30  C3  <0> d           0.381  -0.483  -0.815  0.00  0.00     0.132 C 
BRANCH  30  31
ATOM     31  C2  <0> d           0.052  -0.318   0.670  0.00  0.00     0.016 C 
ATOM     32  C1  <0> d          -0.174   1.163   0.981  0.00  0.00     0.006 C 
ENDBRANCH  30  31
ENDBRANCH   1  30
TORSDOF 5
