REMARK  6 active torsions:
REMARK  status: ('A' for Active; 'I' for Inactive)
REMARK    1  A    between atoms: C5_6  and  C6_8 
REMARK    2  A    between atoms: C12_15  and  C14_17 
REMARK    3  A    between atoms: C14_17  and  N3_18 
REMARK       I    between atoms: N3_18  and  C15_19 
REMARK    4  A    between atoms: C15_19  and  C16_21 
REMARK    5  A    between atoms: C16_21  and  C17_22 
REMARK    6  A    between atoms: C16_21  and  N4_25 
REMARK       I    between atoms: N4_25  and  C20_26 
ROOT
ATOM      1  C6  <0> d          -1.088  -1.013  -0.275  0.00  0.00     0.032 A 
ATOM      2  C7  <0> d          -0.915  -2.393  -0.336  0.00  0.00     0.059 A 
ATOM      3  C8  <0> d          -2.011  -3.224  -0.466  0.00  0.00     0.117 A 
ATOM      4  C9  <0> d          -3.285  -2.682  -0.539  0.00  0.00     0.052 A 
ATOM      5  C10 <0> d          -3.462  -1.317  -0.483  0.00  0.00    -0.018 A 
ATOM      6  C11 <0> d          -2.378  -0.463  -0.340  0.00  0.00     0.088 A 
ATOM      7  O1  <0> d          -2.777   0.836  -0.278  0.00  0.00    -0.342 OA
ATOM      8  C12 <0> d          -4.104   0.950  -0.818  0.00  0.00     0.151 C 
ATOM      9  C13 <0> d          -4.704  -0.449  -0.554  0.00  0.00     0.075 C 
ATOM     10  F1  <0> d          -1.841  -4.564  -0.521  0.00  0.00    -0.206 F 
ENDROOT
BRANCH   8  11
ATOM     11  C14 <0> d          -4.897   2.033  -0.084  0.00  0.00     0.155 C 
BRANCH  11  12
ATOM     12  N3  <0> d          -4.302   3.344  -0.359  0.00  0.00    -0.357 N 
ATOM     13  C15 <0> d          -4.838   4.454   0.185  0.00  0.00     0.240 C 
ATOM     14  O2  <0> d          -5.812   4.369   0.902  0.00  0.00    -0.271 OA
ATOM     15  H13 <0> d          -3.523   3.412  -0.932  0.00  0.00     0.162 HD
BRANCH  13  16
ATOM     16  C16 <0> d          -4.226   5.802  -0.097  0.00  0.00     0.179 C 
BRANCH  16  17
ATOM     17  C17 <0> d          -2.775   5.815   0.388  0.00  0.00     0.009 C 
ATOM     18  C18 <0> d          -2.154   7.184   0.101  0.00  0.00     0.012 C 
ATOM     19  C19 <0> d          -2.738   5.544   1.893  0.00  0.00     0.012 C 
ENDBRANCH  16  17
BRANCH  16  20
ATOM     20  N4  <0> d          -4.985   6.840   0.605  0.00  0.00    -0.348 N 
ATOM     21  C20 <0> d          -4.979   8.107   0.145  0.00  0.00     0.214 C 
ATOM     22  O3  <0> d          -4.344   8.388  -0.850  0.00  0.00    -0.274 OA
ATOM     23  C21 <0> d          -5.760   9.175   0.867  0.00  0.00     0.117 C 
ATOM     24  H21 <0> d          -5.492   6.615   1.400  0.00  0.00     0.163 HD
ENDBRANCH  16  20
ENDBRANCH  13  16
ENDBRANCH  11  12
ENDBRANCH   8  11
BRANCH   1  25
ATOM     25  C5  <0> d           0.090  -0.124  -0.136  0.00  0.00     0.094 A 
ATOM     26  C4  <0> d           1.038  -0.369   0.858  0.00  0.00     0.060 A 
ATOM     27  N1  <0> d           2.085   0.426   0.978  0.00  0.00    -0.262 NA
ATOM     28  C22 <0> d           0.866  -1.537   1.794  0.00  0.00     0.073 C 
ATOM     29  C3  <0> d           2.236   1.451   0.157  0.00  0.00     0.143 A 
ATOM     30  C2  <0> d           1.299   1.698  -0.831  0.00  0.00     0.049 A 
ATOM     31  C1  <0> d           1.478   2.868  -1.763  0.00  0.00     0.072 C 
ATOM     32  N2  <0> d           0.247   0.909  -0.958  0.00  0.00    -0.249 NA
ENDBRANCH   1  25
TORSDOF 6
