REMARK  5 active torsions:
REMARK  status: ('A' for Active; 'I' for Inactive)
REMARK    1  A    between atoms: C6_6  and  C7_7 
REMARK    2  A    between atoms: C9_10  and  C10_12 
REMARK    3  A    between atoms: C11_13  and  N3_26 
REMARK    4  A    between atoms: N2_14  and  C14_18 
REMARK    5  A    between atoms: C17_24  and  O4_25 
ROOT
ATOM      1  C10 <0> d          -0.800   3.597   0.028  0.00  0.00     0.091 A 
ATOM      2  C11 <0> d          -1.129   2.245   0.019  0.00  0.00     0.114 A 
ATOM      3  N2  <0> d          -0.018   1.461   0.010  0.00  0.00    -0.351 N 
ATOM      4  C12 <0> d           1.159   2.341   0.004  0.00  0.00     0.209 A 
ATOM      5  C13 <0> d           0.596   3.746   0.015  0.00  0.00     0.183 A 
ATOM      6  O1  <0> d           1.224   4.788   0.015  0.00  0.00    -0.290 OA
ENDROOT
BRANCH   1   7
ATOM      7  C9  <0> d          -1.772   4.707   0.042  0.00  0.00     0.116 A 
ATOM      8  S1  <0> d          -3.558   4.646   0.051  0.00  0.00    -0.079 SA
ATOM      9  C8  <0> d          -3.842   6.411   0.068  0.00  0.00     0.084 A 
ATOM     10  C7  <0> d          -2.556   6.876   0.059  0.00  0.00     0.075 A 
ATOM     11  N1  <0> d          -1.552   6.013   0.046  0.00  0.00    -0.239 NA
BRANCH  10  12
ATOM     12  C6  <0> d          -2.288   8.335   0.063  0.00  0.00    -0.007 A 
ATOM     13  C1  <0> d          -3.347   9.240   0.072  0.00  0.00     0.015 A 
ATOM     14  C2  <0> d          -3.092  10.597   0.082  0.00  0.00     0.024 A 
ATOM     15  C3  <0> d          -1.787  11.058   0.071  0.00  0.00     0.034 A 
ATOM     16  C4  <0> d          -0.731  10.163   0.057  0.00  0.00     0.024 A 
ATOM     17 Cl1  <0> d          -1.473  12.765   0.077  0.00  0.00    -0.084 Cl
ATOM     18  C5  <0> d          -0.975   8.805   0.053  0.00  0.00     0.015 A 
ENDBRANCH  10  12
ENDBRANCH   1   7
BRANCH   2  19
ATOM     19  N3  <0> d          -2.406   1.766   0.022  0.00  0.00    -0.385 N 
ATOM     20  H15 <0> d          -2.566   0.809   0.018  0.00  0.00     0.157 HD
ATOM     21  H16 <0> d          -3.155   2.383   0.029  0.00  0.00     0.157 HD
ENDBRANCH   2  19
BRANCH   3  22
ATOM     22  C14 <0> d           0.002  -0.004   0.002  0.00  0.00     0.130 C 
ATOM     23  C17 <0> d          -0.606  -0.495  -1.311  0.00  0.00     0.155 C 
ATOM     24  C16 <0> d          -1.251  -1.895  -1.116  0.00  0.00     0.174 C 
ATOM     25  S2  <0> d          -2.005  -1.657   0.553  0.00  0.00     0.148 S 
ATOM     26  C15 <0> d          -0.741  -0.515   1.252  0.00  0.00     0.168 C 
ATOM     27  O2  <0> d          -1.967  -2.887   1.263  0.00  0.00    -0.228 OA
ATOM     28  O3  <0> d          -3.237  -0.962   0.415  0.00  0.00    -0.228 OA
BRANCH  23  29
ATOM     29  O4  <0> d           0.418  -0.580  -2.304  0.00  0.00    -0.393 OA
ATOM     30  H14 <0> d           0.106  -0.886  -3.166  0.00  0.00     0.210 HD
ENDBRANCH  23  29
ENDBRANCH   3  22
TORSDOF 5
