REMARK  7 active torsions:
REMARK  status: ('A' for Active; 'I' for Inactive)
REMARK    1  A    between atoms: C3_3  and  C17_26 
REMARK    2  A    between atoms: C5_5  and  S1_7 
REMARK    3  A    between atoms: S1_7  and  N1_10 
REMARK    4  A    between atoms: N1_10  and  C7_11 
REMARK    5  A    between atoms: C11_15  and  S2_17 
REMARK    6  A    between atoms: S2_17  and  N2_20 
REMARK    7  A    between atoms: N2_20  and  C13_21 
ROOT
ATOM      1  C7  <0> d           3.703   0.546  -2.850  0.00  0.00     0.044 A 
ATOM      2  C8  <0> d           3.452   1.356  -3.951  0.00  0.00     0.030 A 
ATOM      3  C9  <0> d           2.579   2.420  -3.839  0.00  0.00     0.004 A 
ATOM      4  C10 <0> d           1.955   2.680  -2.632  0.00  0.00     0.025 A 
ATOM      5  C11 <0> d           2.203   1.877  -1.534  0.00  0.00     0.083 A 
ATOM      6  C12 <0> d           3.079   0.814  -1.639  0.00  0.00     0.055 A 
ENDROOT
BRANCH   1   7
ATOM      7  N1  <0> d           4.585  -0.531  -2.961  0.00  0.00    -0.281 N 
ATOM      8  H5  <0> d           4.315  -1.509  -2.535  0.00  0.00     0.179 HD
BRANCH   7   9
ATOM      9  S1  <0> d           6.037  -0.337  -3.733  0.00  0.00     0.263 S 
ATOM     10  O1  <0> d           6.708  -1.587  -3.656  0.00  0.00    -0.200 OA
ATOM     11  O2  <0> d           5.756   0.303  -4.970  0.00  0.00    -0.200 OA
BRANCH   9  12
ATOM     12  C5  <0> d           6.985   0.803  -2.780  0.00  0.00     0.080 A 
ATOM     13  C4  <0> d           6.904   2.158  -3.042  0.00  0.00     0.041 A 
ATOM     14  C3  <0> d           7.644   3.053  -2.292  0.00  0.00     0.049 A 
ATOM     15  C2  <0> d           8.473   2.591  -1.287  0.00  0.00     0.016 A 
ATOM     16  C1  <0> d           8.558   1.236  -1.028  0.00  0.00     0.002 A 
ATOM     17  C6  <0> d           7.814   0.342  -1.775  0.00  0.00     0.025 A 
BRANCH  14  18
ATOM     18  C17 <0> d           7.551   4.530  -2.574  0.00  0.00     0.417 C 
ATOM     19  F1  <0> d           8.389   5.226  -1.696  0.00  0.00    -0.166 F 
ATOM     20  F2  <0> d           7.947   4.779  -3.892  0.00  0.00    -0.166 F 
ATOM     21  F3  <0> d           6.231   4.957  -2.394  0.00  0.00    -0.166 F 
ENDBRANCH  14  18
ENDBRANCH   9  12
ENDBRANCH   7   9
ENDBRANCH   1   7
BRANCH   5  22
ATOM     22  S2  <0> d           1.406   2.213   0.001  0.00  0.00     0.284 S 
ATOM     23  O3  <0> d           1.058   3.591  -0.016  0.00  0.00    -0.198 OA
ATOM     24  O4  <0> d           2.223   1.646   1.015  0.00  0.00    -0.198 OA
BRANCH  22  25
ATOM     25  N2  <0> d          -0.017   1.366   0.010  0.00  0.00    -0.147 NA
BRANCH  25  26
ATOM     26  C13 <0> d           0.002  -0.004   0.002  0.00  0.00     0.113 C 
ATOM     27  C16 <0> d          -1.233  -0.878   0.015  0.00  0.00     0.080 C 
ATOM     28  C15 <0> d          -0.706  -2.269  -0.419  0.00  0.00     0.027 C 
ATOM     29  C14 <0> d           0.783  -2.157  -0.014  0.00  0.00     0.121 C 
ATOM     30  N3  <0> d           1.073  -0.719  -0.012  0.00  0.00    -0.378 N 
ATOM     31  H16 <0> d           2.115  -0.367  -0.021  0.00  0.00     0.160 HD
ENDBRANCH  25  26
ENDBRANCH  22  25
ENDBRANCH   5  22
TORSDOF 7
