REMARK  7 active torsions:
REMARK  status: ('A' for Active; 'I' for Inactive)
REMARK    1  A    between atoms: N1_2  and  C6_8 
REMARK    2  A    between atoms: C6_8  and  C7_9 
REMARK    3  A    between atoms: C7_9  and  C8_10 
REMARK    4  A    between atoms: C7_9  and  O5_23 
REMARK    5  A    between atoms: C8_10  and  O2_11 
REMARK    6  A    between atoms: O2_11  and  C9_12 
REMARK    7  A    between atoms: C9_12  and  C10_13 
ROOT
ATOM      1  C8  <0> d          -3.556  -0.111  -1.286  0.00  0.00     0.201 C 
ENDROOT
BRANCH   1   2
ATOM      2  C7  <0> d          -2.041   0.092  -1.345  0.00  0.00     0.168 C 
BRANCH   2   3
ATOM      3  C6  <0> d          -1.408  -0.412  -0.046  0.00  0.00     0.271 C 
BRANCH   3   4
ATOM      4  N1  <0> d           0.022  -0.076  -0.035  0.00  0.00    -0.065 N 
ATOM      5  C1  <0> d           0.707  -0.819  -1.101  0.00  0.00     0.272 C 
ATOM      6  C5  <0> d           0.188   1.367  -0.259  0.00  0.00     0.263 C 
ATOM      7  C4  <0> d           1.678   1.714  -0.248  0.00  0.00     0.195 C 
ATOM      8  O1  <0> d           2.248   1.307   0.999  0.00  0.00    -0.388 OA
ATOM      9  C3  <0> d           2.091  -0.088   1.274  0.00  0.00     0.195 C 
ATOM     10  C2  <0> d           0.601  -0.439   1.266  0.00  0.00     0.263 C 
ENDBRANCH   3   4
ENDBRANCH   2   3
BRANCH   2  11
ATOM     11  O5  <0> d          -1.505  -0.639  -2.450  0.00  0.00    -0.392 OA
ATOM     12  H26 <0> d          -1.664  -1.592  -2.406  0.00  0.00     0.210 HD
ENDBRANCH   2  11
ENDBRANCH   1   2
BRANCH   1  13
ATOM     13  O2  <0> d          -4.159   0.464  -2.448  0.00  0.00    -0.386 OA
BRANCH  13  14
ATOM     14  C9  <0> d          -5.581   0.329  -2.492  0.00  0.00     0.202 C 
BRANCH  14  15
ATOM     15  C10 <0> d          -6.115   0.976  -3.771  0.00  0.00     0.177 C 
ATOM     16  O4  <0> d          -5.885   2.389  -3.729  0.00  0.00    -0.339 OA
ATOM     17  C17 <0> d          -6.556   3.145  -4.640  0.00  0.00     0.102 A 
ATOM     18  C12 <0> d          -7.663   2.637  -5.309  0.00  0.00     0.102 A 
ATOM     19  C16 <0> d          -6.130   4.440  -4.897  0.00  0.00     0.039 A 
ATOM     20  O3  <0> d          -8.096   1.368  -5.076  0.00  0.00    -0.346 OA
ATOM     21  C13 <0> d          -8.338   3.428  -6.227  0.00  0.00     0.039 A 
ATOM     22  C11 <0> d          -7.628   0.738  -3.879  0.00  0.00     0.210 C 
ATOM     23  C14 <0> d          -7.909   4.718  -6.477  0.00  0.00     0.003 A 
ATOM     24  C15 <0> d          -6.806   5.223  -5.813  0.00  0.00     0.003 A 
ENDBRANCH  14  15
ENDBRANCH  13  14
ENDBRANCH   1  13
TORSDOF 7
