REMARK  6 active torsions:
REMARK  status: ('A' for Active; 'I' for Inactive)
REMARK    1  A    between atoms: C2_2  and  C3_3 
REMARK    2  A    between atoms: C2_2  and  N4_20 
REMARK    3  A    between atoms: C3_3  and  N1_4 
REMARK       I    between atoms: N1_4  and  C4_5 
REMARK       I    between atoms: C4_5  and  N2_7 
REMARK    4  A    between atoms: N2_7  and  C5_8 
REMARK    5  A    between atoms: C7_10  and  C12_16 
REMARK    6  A    between atoms: C10_13  and  O2_14 
REMARK       I    between atoms: C12_16  and  N3_18 
ROOT
ATOM      1  N1  <0> d          -1.749  -1.728  -0.072  0.00  0.00    -0.341 N 
ATOM      2  C4  <0> d          -3.005  -2.206   0.039  0.00  0.00     0.320 C 
ATOM      3  O1  <0> d          -3.938  -1.437   0.162  0.00  0.00    -0.247 OA
ATOM      4  N2  <0> d          -3.225  -3.535   0.014  0.00  0.00    -0.306 N 
ATOM      5  H7  <0> d          -1.004  -2.342  -0.170  0.00  0.00     0.164 HD
ATOM      6  H8  <0> d          -2.475  -4.151  -0.012  0.00  0.00     0.171 HD
ENDROOT
BRANCH   1   7
ATOM      7  C3  <0> d          -1.510  -0.283  -0.045  0.00  0.00     0.157 C 
BRANCH   7   8
ATOM      8  C2  <0> d          -0.003  -0.015  -0.066  0.00  0.00     0.202 C 
ATOM      9  C1  <0> d           0.246   1.494  -0.090  0.00  0.00     0.042 C 
BRANCH   8  10
ATOM     10  N4  <0> d           0.586  -0.628  -1.264  0.00  0.00    -0.061 N 
ATOM     11  C22 <0> d          -0.046  -0.070  -2.462  0.00  0.00     0.274 C 
ATOM     12  C21 <0> d           0.643  -0.568  -3.705  0.00  0.00    -0.026 A 
ATOM     13  C16 <0> d           1.912  -1.104  -3.666  0.00  0.00    -0.049 A 
ATOM     14  C20 <0> d          -0.027  -0.476  -4.917  0.00  0.00     0.009 A 
ATOM     15  C15 <0> d           2.673  -1.228  -2.370  0.00  0.00     0.067 C 
ATOM     16  C17 <0> d           2.514  -1.543  -4.835  0.00  0.00     0.007 A 
ATOM     17  C14 <0> d           2.028  -0.340  -1.305  0.00  0.00     0.240 C 
ATOM     18  C18 <0> d           1.847  -1.448  -6.040  0.00  0.00     0.001 A 
ATOM     19  C19 <0> d           0.573  -0.914  -6.080  0.00  0.00     0.001 A 
ATOM     20  H29 <0> d           0.441  -1.627  -1.238  0.00  0.00     0.280 HD
ENDBRANCH   8  10
ENDBRANCH   7   8
ENDBRANCH   1   7
BRANCH   4  21
ATOM     21  C5  <0> d          -4.537  -4.029   0.025  0.00  0.00     0.070 A 
ATOM     22  C10 <0> d          -4.822  -5.239   0.659  0.00  0.00     0.095 A 
ATOM     23  C9  <0> d          -6.121  -5.727   0.676  0.00  0.00     0.040 A 
ATOM     24  C8  <0> d          -7.133  -5.025   0.058  0.00  0.00     0.020 A 
ATOM     25  C7  <0> d          -6.854  -3.815  -0.583  0.00  0.00     0.034 A 
ATOM     26  C6  <0> d          -5.548  -3.320  -0.597  0.00  0.00     0.049 A 
BRANCH  22  27
ATOM     27  O2  <0> d          -3.828  -5.937   1.265  0.00  0.00    -0.354 OA
ATOM     28  C11 <0> d          -4.190  -7.168   1.895  0.00  0.00     0.210 C 
ENDBRANCH  22  27
BRANCH  25  29
ATOM     29  C12 <0> d          -7.937  -3.062  -1.245  0.00  0.00     0.251 C 
ATOM     30  O3  <0> d          -7.693  -2.010  -1.803  0.00  0.00    -0.268 OA
ATOM     31  N3  <0> d          -9.197  -3.542  -1.232  0.00  0.00    -0.361 N 
ATOM     32  C13 <0> d         -10.272  -2.794  -1.889  0.00  0.00     0.149 C 
ATOM     33  H15 <0> d          -9.392  -4.381  -0.787  0.00  0.00     0.162 HD
ENDBRANCH  25  29
ENDBRANCH   4  21
TORSDOF 6
