REMARK  4 active torsions:
REMARK  status: ('A' for Active; 'I' for Inactive)
REMARK    1  A    between atoms: C16_18  and  O6_28 
REMARK    2  A    between atoms: C19_21  and  C20_23 
REMARK    3  A    between atoms: C20_23  and  C21_25 
REMARK    4  A    between atoms: C21_25  and  O5_26 
ROOT
ATOM      1  C1  <0> d           0.342   3.101   3.182  0.00  0.00     0.078 C 
ATOM      2  C2  <0> d           0.296   3.073   1.644  0.00  0.00     0.159 C 
ATOM      3  O1  <0> d           1.612   2.815   1.128  0.00  0.00    -0.347 OA
ATOM      4  C3  <0> d           1.495   1.891   0.035  0.00  0.00     0.168 C 
ATOM      5  C4  <0> d           2.275   0.600   0.423  0.00  0.00     0.041 C 
ATOM      6  C5  <0> d           1.174  -0.299   1.002  0.00  0.00     0.007 C 
ATOM      7  C6  <0> d           1.481  -1.740   1.224  0.00  0.00     0.037 C 
ATOM      8  C7  <0> d           2.615  -2.341   0.402  0.00  0.00     0.050 C 
ATOM      9  C8  <0> d           3.034  -3.644   1.087  0.00  0.00     0.201 C 
ATOM     10  C9  <0> d           1.908  -4.312   1.834  0.00  0.00    -0.027 C 
ATOM     11  C10 <0> d           2.256  -5.285   2.698  0.00  0.00     0.061 C 
ATOM     12  C11 <0> d           1.218  -5.930   3.531  0.00  0.00     0.172 C 
ATOM     13  O2  <0> d           1.404  -7.034   4.042  0.00  0.00    -0.289 OA
ATOM     14  C12 <0> d          -0.049  -5.196   3.737  0.00  0.00     0.052 C 
ATOM     15  C13 <0> d          -0.384  -4.231   2.863  0.00  0.00    -0.006 C 
ATOM     16  C14 <0> d           0.469  -3.955   1.674  0.00  0.00     0.039 C 
ATOM     17  C15 <0> d           0.245  -2.618   1.016  0.00  0.00     0.147 C 
ATOM     18  C16 <0> d          -1.004  -1.866   1.433  0.00  0.00     0.160 C 
ATOM     19  C17 <0> d          -1.268  -0.692   0.472  0.00  0.00     0.048 C 
ATOM     20  C18 <0> d           0.015  -0.049   0.021  0.00  0.00     0.004 C 
ATOM     21  C19 <0> d          -0.007   1.497  -0.010  0.00  0.00     0.160 C 
ATOM     22  O3  <0> d          -0.563   2.012   1.201  0.00  0.00    -0.334 OA
ATOM     23  C22 <0> d           0.362  -0.488  -1.406  0.00  0.00     0.019 C 
ATOM     24  F1  <0> d           0.129  -2.923  -0.344  0.00  0.00    -0.238 F 
ATOM     25  C23 <0> d          -0.035  -4.954   0.616  0.00  0.00     0.028 C 
ATOM     26  F2  <0> d           4.066  -3.357   1.992  0.00  0.00    -0.245 F 
ATOM     27  C24 <0> d          -0.212   4.432   1.144  0.00  0.00     0.078 C 
ENDROOT
BRANCH  21  28
ATOM     28  C20 <0> d          -0.701   1.995  -1.248  0.00  0.00     0.188 C 
ATOM     29  O4  <0> d          -0.056   2.284  -2.227  0.00  0.00    -0.292 OA
BRANCH  28  30
ATOM     30  C21 <0> d          -2.202   2.135  -1.266  0.00  0.00     0.245 C 
BRANCH  30  31
ATOM     31  O5  <0> d          -2.609   2.732  -2.499  0.00  0.00    -0.393 OA
ATOM     32  H20 <0> d          -3.565   2.852  -2.580  0.00  0.00     0.209 HD
ENDBRANCH  30  31
ENDBRANCH  28  30
ENDBRANCH  21  28
BRANCH  18  33
ATOM     33  O6  <0> d          -0.852  -1.355   2.762  0.00  0.00    -0.392 OA
ATOM     34  H24 <0> d          -1.628  -0.880   3.091  0.00  0.00     0.210 HD
ENDBRANCH  18  33
TORSDOF 4
