REMARK  4 active torsions:
REMARK  status: ('A' for Active; 'I' for Inactive)
REMARK    1  A    between atoms: C2_2  and  O1_3 
REMARK    2  A    between atoms: O1_3  and  C3_4 
REMARK    3  A    between atoms: P1_17  and  C13_20 
REMARK    4  A    between atoms: C18_25  and  O4_26 
ROOT
ATOM      1  C3  <0> d           0.777  -1.810  -1.336  0.00  0.00     0.086 C 
ATOM      2  C4  <0> d           0.264  -2.642  -0.424  0.00  0.00     0.019 C 
ATOM      3  C5  <0> d           0.402  -4.128  -0.618  0.00  0.00     0.047 C 
ATOM      4  C6  <0> d           0.289  -4.856   0.714  0.00  0.00     0.272 C 
ATOM      5  N1  <0> d           1.367  -4.454   1.632  0.00  0.00     0.018 N 
ATOM      6  C7  <0> d           2.674  -4.783   1.058  0.00  0.00     0.238 C 
ATOM      7  C8  <0> d           2.863  -4.051  -0.276  0.00  0.00     0.047 C 
ATOM      8  C9  <0> d           1.766  -4.439  -1.240  0.00  0.00     0.021 C 
ATOM      9  C10 <0> d           1.936  -3.607  -2.488  0.00  0.00     0.005 C 
ATOM     10  C11 <0> d           1.454  -2.366  -2.525  0.00  0.00     0.063 C 
ATOM     11 Cl1  <0> d           1.625  -1.404  -3.960  0.00  0.00    -0.082 Cl
ATOM     12  C12 <0> d           3.821  -4.340   1.975  0.00  0.00     0.213 C 
ATOM     13  O2  <0> d           3.725  -5.034   3.232  0.00  0.00    -0.312 OA
ATOM     14  P1  <0> d           2.288  -5.018   3.996  0.00  0.00     0.346 P 
ATOM     15  O3  <0> d           2.107  -3.741   4.722  0.00  0.00    -0.260 OA
ATOM     16  N2  <0> d           1.158  -5.165   2.796  0.00  0.00    -0.172 N 
ATOM     17  H17 <0> d           0.375  -5.726   2.906  0.00  0.00     0.197 HD
ATOM     18  H23 <0> d           1.303  -3.465   1.821  0.00  0.00     0.309 HD
ENDROOT
BRANCH  14  19
ATOM     19  C13 <0> d           2.171  -6.416   5.145  0.00  0.00     0.084 A 
ATOM     20  C18 <0> d           2.597  -6.274   6.458  0.00  0.00     0.083 A 
ATOM     21  C17 <0> d           2.501  -7.344   7.336  0.00  0.00     0.037 A 
ATOM     22  C16 <0> d           1.991  -8.551   6.899  0.00  0.00     0.003 A 
ATOM     23  C15 <0> d           1.572  -8.692   5.588  0.00  0.00     0.001 A 
ATOM     24  C14 <0> d           1.662  -7.626   4.713  0.00  0.00     0.022 A 
BRANCH  20  25
ATOM     25  O4  <0> d           3.103  -5.087   6.884  0.00  0.00    -0.360 OA
ATOM     26  H22 <0> d           2.439  -4.482   7.242  0.00  0.00     0.217 HD
ENDBRANCH  20  25
ENDBRANCH  14  19
BRANCH   1  27
ATOM     27  O1  <0> d           0.671  -0.465  -1.174  0.00  0.00    -0.350 OA
BRANCH  27  28
ATOM     28  C2  <0> d           0.002  -0.004   0.002  0.00  0.00     0.171 C 
ATOM     29  C1  <0> d          -0.019   1.526   0.010  0.00  0.00     0.034 C 
ENDBRANCH  27  28
ENDBRANCH   1  27
TORSDOF 4
