REMARK  4 active torsions:
REMARK  status: ('A' for Active; 'I' for Inactive)
REMARK    1  A    between atoms: N1_12  and  C12_16 
REMARK    2  A    between atoms: C12_16  and  C13_17 
REMARK    3  A    between atoms: C13_17  and  C14_18 
REMARK    4  A    between atoms: C13_17  and  O3_25 
ROOT
ATOM      1  C1  <0> d          -0.017   1.377   0.010  0.00  0.00     0.001 A 
ATOM      2  C2  <0> d           1.173   2.082   0.002  0.00  0.00     0.001 A 
ATOM      3  C3  <0> d           2.376   1.405  -0.014  0.00  0.00     0.011 A 
ATOM      4  C4  <0> d           2.398   0.019  -0.021  0.00  0.00    -0.014 A 
ATOM      5  C5  <0> d           1.207  -0.686  -0.012  0.00  0.00    -0.049 A 
ATOM      6  C6  <0> d           0.002  -0.004   0.002  0.00  0.00     0.007 A 
ATOM      7  C7  <0> d           1.492  -2.174  -0.016  0.00  0.00     0.042 C 
ATOM      8  C8  <0> d           2.966  -2.303  -0.460  0.00  0.00     0.051 C 
ATOM      9  C9  <0> d           3.550  -0.948  -0.040  0.00  0.00     0.144 A 
ATOM     10  C10 <0> d           4.224  -1.037   1.304  0.00  0.00     0.261 A 
ATOM     11  O1  <0> d           3.721  -1.359   2.359  0.00  0.00    -0.270 OA
ATOM     12  N1  <0> d           5.508  -0.681   1.083  0.00  0.00    -0.265 N 
ATOM     13  C11 <0> d           5.722  -0.386  -0.206  0.00  0.00     0.326 A 
ATOM     14  O2  <0> d           6.799  -0.038  -0.651  0.00  0.00    -0.247 OA
ATOM     15  N2  <0> d           4.608  -0.517  -0.955  0.00  0.00    -0.320 N 
ATOM     16  H10 <0> d           4.525  -0.357  -1.908  0.00  0.00     0.165 HD
ENDROOT
BRANCH  12  17
ATOM     17  C12 <0> d           6.538  -0.625   2.123  0.00  0.00     0.173 C 
BRANCH  17  18
ATOM     18  C13 <0> d           7.234  -1.984   2.225  0.00  0.00     0.169 C 
BRANCH  18  19
ATOM     19  C14 <0> d           8.294  -1.926   3.294  0.00  0.00    -0.028 A 
ATOM     20  C19 <0> d           9.605  -1.650   2.954  0.00  0.00     0.013 A 
ATOM     21  C18 <0> d          10.577  -1.593   3.934  0.00  0.00     0.043 A 
ATOM     22  C17 <0> d          10.239  -1.821   5.257  0.00  0.00     0.116 A 
ATOM     23  C16 <0> d           8.927  -2.103   5.597  0.00  0.00     0.043 A 
ATOM     24  F1  <0> d          11.190  -1.770   6.216  0.00  0.00    -0.206 F 
ATOM     25  C15 <0> d           7.956  -2.155   4.615  0.00  0.00     0.013 A 
ENDBRANCH  18  19
BRANCH  18  26
ATOM     26  O3  <0> d           6.274  -2.987   2.560  0.00  0.00    -0.389 OA
ATOM     27  H17 <0> d           5.822  -2.834   3.401  0.00  0.00     0.210 HD
ENDBRANCH  18  26
ENDBRANCH  17  18
ENDBRANCH  12  17
TORSDOF 4
