REMARK  4 active torsions:
REMARK  status: ('A' for Active; 'I' for Inactive)
REMARK    1  A    between atoms: C2_2  and  C3_3 
REMARK    2  A    between atoms: C2_2  and  N2_9 
REMARK    3  A    between atoms: N2_9  and  S1_10 
REMARK    4  A    between atoms: S1_10  and  C8_13 
ROOT
ATOM      1  N2  <0> d           0.811  -0.543   1.176  0.00  0.00    -0.314 N 
ATOM      2  H16 <0> d           0.420  -0.788   2.029  0.00  0.00     0.172 HD
ENDROOT
BRANCH   1   3
ATOM      3  C2  <0> d          -0.035   0.001   0.111  0.00  0.00     0.094 C 
ATOM      4  C1  <0> d          -0.209   1.507   0.318  0.00  0.00     0.033 C 
BRANCH   3   5
ATOM      5  C3  <0> d          -1.404  -0.680   0.149  0.00  0.00     0.034 C 
ATOM      6  C7  <0> d          -2.246  -0.202  -1.036  0.00  0.00     0.238 C 
ATOM      7  N1  <0> d          -3.562  -0.852  -1.000  0.00  0.00    -0.075 N 
ATOM      8  C6  <0> d          -4.282  -0.454   0.216  0.00  0.00     0.232 C 
ATOM      9  H13 <0> d          -3.441  -1.853  -1.005  0.00  0.00     0.277 HD
ATOM     10  H23 <0> d          -4.095  -0.575  -1.811  0.00  0.00     0.277 HD
ATOM     11  C5  <0> d          -3.518  -0.943   1.448  0.00  0.00     0.028 C 
ATOM     12  C4  <0> d          -2.119  -0.320   1.455  0.00  0.00     0.010 C 
ENDBRANCH   3   5
ENDBRANCH   1   3
BRANCH   1  13
ATOM     13  S1  <0> d           2.436  -0.741   0.923  0.00  0.00     0.232 S 
ATOM     14  O1  <0> d           2.884   0.519   0.443  0.00  0.00    -0.206 OA
ATOM     15  O2  <0> d           2.932  -1.267   2.146  0.00  0.00    -0.206 OA
BRANCH  13  16
ATOM     16  C8  <0> d           2.555  -1.988  -0.389  0.00  0.00     0.144 C 
ATOM     17  C11 <0> d           4.050  -2.312  -0.670  0.00  0.00     0.162 C 
ATOM     18  S2  <0> d           3.889  -3.942  -1.514  0.00  0.00     0.145 S 
ATOM     19  C10 <0> d           2.230  -4.441  -0.897  0.00  0.00     0.142 C 
ATOM     20  O3  <0> d           3.816  -3.731  -2.918  0.00  0.00    -0.228 OA
ATOM     21  O4  <0> d           4.864  -4.833  -0.991  0.00  0.00    -0.228 OA
ATOM     22  C9  <0> d           1.862  -3.284   0.063  0.00  0.00     0.037 C 
ENDBRANCH  13  16
ENDBRANCH   1  13
TORSDOF 4
