REMARK  6 active torsions:
REMARK  status: ('A' for Active; 'I' for Inactive)
REMARK    1  A    between atoms: C2_2  and  N1_4 
REMARK       I    between atoms: N1_4  and  C4_5 
REMARK       I    between atoms: C4_5  and  N2_7 
REMARK    2  A    between atoms: N2_7  and  C5_8 
REMARK    3  A    between atoms: C10_13  and  N3_14 
REMARK       I    between atoms: N3_14  and  C11_15 
REMARK    4  A    between atoms: C11_15  and  C12_17 
REMARK    5  A    between atoms: N4_19  and  C20_26 
REMARK    6  A    between atoms: C20_26  and  C21_27 
ROOT
ATOM      1  N3  <0> d          -5.581  -3.260  -0.657  0.00  0.00    -0.321 N 
ATOM      2  C11 <0> d          -6.826  -3.774  -0.654  0.00  0.00     0.258 C 
ATOM      3  O2  <0> d          -7.044  -4.843  -1.193  0.00  0.00    -0.267 OA
ATOM      4  H14 <0> d          -5.422  -2.372  -0.300  0.00  0.00     0.169 HD
ENDROOT
BRANCH   1   5
ATOM      5  C10 <0> d          -4.516  -4.006  -1.178  0.00  0.00     0.062 A 
ATOM      6  C5  <0> d          -3.382  -3.358  -1.668  0.00  0.00     0.063 A 
ATOM      7  C6  <0> d          -2.329  -4.104  -2.177  0.00  0.00     0.032 A 
ATOM      8  C7  <0> d          -2.407  -5.483  -2.201  0.00  0.00     0.002 A 
ATOM      9  C8  <0> d          -3.534  -6.125  -1.720  0.00  0.00     0.002 A 
ATOM     10  C9  <0> d          -4.588  -5.391  -1.211  0.00  0.00     0.032 A 
BRANCH   6  11
ATOM     11  N2  <0> d          -3.305  -1.960  -1.642  0.00  0.00    -0.307 N 
ATOM     12  C4  <0> d          -2.103  -1.351  -1.621  0.00  0.00     0.321 C 
ATOM     13  N1  <0> d          -2.025  -0.009  -1.709  0.00  0.00    -0.339 N 
ATOM     14  O1  <0> d          -1.088  -2.014  -1.522  0.00  0.00    -0.247 OA
ATOM     15  H8  <0> d          -2.835   0.520  -1.787  0.00  0.00     0.164 HD
ATOM     16  H9  <0> d          -4.117  -1.429  -1.639  0.00  0.00     0.170 HD
BRANCH  13  17
ATOM     17  C2  <0> d          -0.718   0.652  -1.686  0.00  0.00     0.078 C 
ATOM     18  C1  <0> d          -0.818   2.004  -2.396  0.00  0.00     0.032 C 
ATOM     19  C3  <0> d          -0.281   0.869  -0.236  0.00  0.00     0.032 C 
ENDBRANCH  13  17
ENDBRANCH   6  11
ENDBRANCH   1   5
BRANCH   2  20
ATOM     20  C12 <0> d          -7.920  -3.045   0.001  0.00  0.00     0.060 A 
ATOM     21  C15 <0> d          -9.330  -3.467   0.094  0.00  0.00     0.008 A 
ATOM     22  C14 <0> d          -9.988  -2.453   0.809  0.00  0.00     0.045 A 
ATOM     23  C16 <0> d         -10.040  -4.578  -0.355  0.00  0.00     0.015 A 
ATOM     24  N4  <0> d          -9.051  -1.488   1.116  0.00  0.00    -0.352 N 
ATOM     25  C19 <0> d         -11.351  -2.572   1.064  0.00  0.00     0.030 A 
ATOM     26  C13 <0> d          -7.834  -1.843   0.638  0.00  0.00     0.109 A 
ATOM     27  C18 <0> d         -12.042  -3.673   0.606  0.00  0.00     0.002 A 
ATOM     28  C17 <0> d         -11.390  -4.675  -0.097  0.00  0.00     0.001 A 
BRANCH  24  29
ATOM     29  C20 <0> d          -9.332  -0.256   1.856  0.00  0.00     0.155 C 
BRANCH  29  30
ATOM     30  C21 <0> d          -9.262  -0.530   3.336  0.00  0.00    -0.017 C 
ATOM     31  C22 <0> d          -8.469   0.182   4.098  0.00  0.00     0.008 C 
ENDBRANCH  29  30
ENDBRANCH  24  29
ENDBRANCH   2  20
TORSDOF 6
