REMARK  4 active torsions:
REMARK  status: ('A' for Active; 'I' for Inactive)
REMARK    1  A    between atoms: C4_4  and  O5_19 
REMARK    2  A    between atoms: C6_7  and  N1_9 
REMARK    3  A    between atoms: O5_19  and  C11_20 
REMARK    4  A    between atoms: C11_20  and  C12_22 
ROOT
ATOM      1  C1  <0> d          -0.223   0.937   0.062  0.00  0.00     0.044 C 
ATOM      2  C2  <0> d          -0.840   1.554   1.319  0.00  0.00     0.146 C 
ATOM      3  C3  <0> d          -0.105   1.048   2.527  0.00  0.00     0.046 C 
ATOM      4  C4  <0> d           0.169   1.837   3.569  0.00  0.00     0.128 C 
ATOM      5  C5  <0> d          -0.252   3.249   3.529  0.00  0.00     0.231 C 
ATOM      6  O1  <0> d           0.140   4.051   4.350  0.00  0.00    -0.285 OA
ATOM      7  C6  <0> d          -1.197   3.655   2.415  0.00  0.00     0.310 C 
ATOM      8  O2  <0> d          -0.766   2.975   1.227  0.00  0.00    -0.350 OA
ENDROOT
BRANCH   7   9
ATOM      9  N1  <0> d          -1.137   5.104   2.211  0.00  0.00    -0.272 N 
ATOM     10  C10 <0> d          -0.763   5.594   1.015  0.00  0.00     0.331 A 
ATOM     11  N2  <0> d          -0.698   6.921   0.800  0.00  0.00    -0.273 N 
ATOM     12  O4  <0> d          -0.479   4.827   0.115  0.00  0.00    -0.246 OA
ATOM     13  C9  <0> d          -1.010   7.786   1.786  0.00  0.00     0.289 A 
ATOM     14  H3  <0> d          -0.418   7.267  -0.096  0.00  0.00     0.173 HD
ATOM     15  C8  <0> d          -1.406   7.285   3.051  0.00  0.00     0.199 A 
ATOM     16  O3  <0> d          -0.952   8.987   1.591  0.00  0.00    -0.265 OA
ATOM     17  C7  <0> d          -1.467   5.949   3.239  0.00  0.00     0.147 A 
ATOM     18  F1  <0> d          -1.722   8.132   4.055  0.00  0.00    -0.199 F 
ENDBRANCH   7   9
BRANCH   4  19
ATOM     19  O5  <0> d           0.828   1.345   4.652  0.00  0.00    -0.271 OA
BRANCH  19  20
ATOM     20  C11 <0> d           0.143   1.287   5.811  0.00  0.00     0.298 C 
ATOM     21  O6  <0> d          -1.037   1.575   5.833  0.00  0.00    -0.259 OA
BRANCH  20  22
ATOM     22  C12 <0> d           0.826   0.873   7.053  0.00  0.00     0.039 A 
ATOM     23  C17 <0> d           0.119   0.811   8.255  0.00  0.00     0.017 A 
ATOM     24  C16 <0> d           0.763   0.423   9.412  0.00  0.00     0.001 A 
ATOM     25  C15 <0> d           2.107   0.095   9.382  0.00  0.00     0.000 A 
ATOM     26  C14 <0> d           2.814   0.154   8.194  0.00  0.00     0.001 A 
ATOM     27  C13 <0> d           2.181   0.536   7.029  0.00  0.00     0.017 A 
ENDBRANCH  20  22
ENDBRANCH  19  20
ENDBRANCH   4  19
TORSDOF 4
