REMARK  6 active torsions:
REMARK  status: ('A' for Active; 'I' for Inactive)
REMARK    1  A    between atoms: C7_7  and  N1_8 
REMARK    2  A    between atoms: N1_8  and  S1_9 
REMARK    3  A    between atoms: S1_9  and  C8_12 
REMARK    4  A    between atoms: C11_15  and  C14_18 
REMARK       I    between atoms: C14_18  and  N2_20 
REMARK    5  A    between atoms: N2_20  and  N3_21 
REMARK       I    between atoms: N3_21  and  C15_22 
REMARK    6  A    between atoms: C15_22  and  C16_24 
ROOT
ATOM      1  C8  <0> d          -1.553   2.390  -1.773  0.00  0.00     0.079 A 
ATOM      2  C9  <0> d          -1.073   3.657  -2.051  0.00  0.00     0.026 A 
ATOM      3  C10 <0> d          -1.138   4.156  -3.336  0.00  0.00     0.018 A 
ATOM      4  C11 <0> d          -1.700   3.384  -4.353  0.00  0.00     0.033 A 
ATOM      5  C12 <0> d          -2.188   2.108  -4.064  0.00  0.00     0.018 A 
ATOM      6  C13 <0> d          -2.111   1.619  -2.777  0.00  0.00     0.026 A 
ENDROOT
BRANCH   4   7
ATOM      7  C14 <0> d          -1.779   3.914  -5.731  0.00  0.00     0.270 C 
ATOM      8  O3  <0> d          -2.269   3.239  -6.615  0.00  0.00    -0.266 OA
ATOM      9  N2  <0> d          -1.308   5.146  -6.006  0.00  0.00    -0.263 N 
ATOM     10  H14 <0> d          -0.864   5.757  -5.206  0.00  0.00     0.190 HD
BRANCH   9  11
ATOM     11  N3  <0> d          -1.382   5.649  -7.312  0.00  0.00    -0.262 N 
ATOM     12  C15 <0> d          -0.910   6.881  -7.587  0.00  0.00     0.286 C 
ATOM     13  O4  <0> d          -0.420   7.557  -6.702  0.00  0.00    -0.264 OA
ATOM     14  H15 <0> d          -1.825   5.038  -8.112  0.00  0.00     0.190 HD
BRANCH  12  15
ATOM     15  C16 <0> d          -0.988   7.408  -8.954  0.00  0.00     0.103 A 
ATOM     16  N4  <0> d          -1.514   6.758 -10.047  0.00  0.00    -0.360 N 
ATOM     17  C19 <0> d          -1.405   7.569 -11.128  0.00  0.00     0.107 A 
ATOM     18  H1  <0> d          -1.927   5.744  -9.938  0.00  0.00     0.165 HD
ATOM     19  C18 <0> d          -0.819   8.730 -10.747  0.00  0.00     0.028 A 
ATOM     20  C17 <0> d          -0.554   8.646  -9.377  0.00  0.00     0.055 A 
ATOM     21 Br1  <0> d          -0.433  10.203 -11.868  0.00  0.00    -0.050 Br
ENDBRANCH  12  15
ENDBRANCH   9  11
ENDBRANCH   4   7
BRANCH   1  22
ATOM     22  S1  <0> d          -1.459   1.757  -0.131  0.00  0.00     0.263 S 
ATOM     23  O1  <0> d          -2.474   0.770  -0.017  0.00  0.00    -0.200 OA
ATOM     24  O2  <0> d          -1.391   2.883   0.735  0.00  0.00    -0.200 OA
BRANCH  22  25
ATOM     25  N1  <0> d          -0.011   0.966   0.007  0.00  0.00    -0.280 N 
ATOM     26  H9  <0> d           0.008  -0.107   0.249  0.00  0.00     0.179 HD
BRANCH  25  27
ATOM     27  C7  <0> d           1.186   1.661  -0.183  0.00  0.00     0.048 A 
ATOM     28  C2  <0> d           2.265   1.034  -0.793  0.00  0.00    -0.035 A 
ATOM     29  C1  <0> d           2.146  -0.397  -1.251  0.00  0.00     0.050 C 
ATOM     30  C3  <0> d           3.446   1.724  -0.980  0.00  0.00     0.009 A 
ATOM     31  C4  <0> d           3.556   3.038  -0.561  0.00  0.00     0.001 A 
ATOM     32  C5  <0> d           2.483   3.664   0.047  0.00  0.00     0.002 A 
ATOM     33  C6  <0> d           1.297   2.982   0.233  0.00  0.00     0.030 A 
ENDBRANCH  25  27
ENDBRANCH  22  25
ENDBRANCH   1  22
TORSDOF 6
