REMARK  6 active torsions:
REMARK  status: ('A' for Active; 'I' for Inactive)
REMARK       I    between atoms: C2_2  and  N1_4 
REMARK    1  A    between atoms: N1_4  and  C3_5 
REMARK    2  A    between atoms: C3_5  and  C4_6 
REMARK    3  A    between atoms: C7_9  and  C8_11 
REMARK       I    between atoms: C8_11  and  N2_13 
REMARK    4  A    between atoms: N2_13  and  C9_14 
REMARK    5  A    between atoms: C9_14  and  C10_15 
REMARK    6  A    between atoms: C13_18  and  N3_21 
ROOT
ATOM      1  C8  <0> d          -6.249  -4.050   1.060  0.00  0.00     0.258 C 
ATOM      2  O2  <0> d          -7.157  -4.382   0.320  0.00  0.00    -0.267 OA
ATOM      3  N2  <0> d          -6.411  -4.115   2.397  0.00  0.00    -0.352 N 
ATOM      4  H9  <0> d          -5.688  -3.850   2.986  0.00  0.00     0.163 HD
ENDROOT
BRANCH   3   5
ATOM      5  C9  <0> d          -7.680  -4.585   2.958  0.00  0.00     0.161 C 
BRANCH   5   6
ATOM      6  C10 <0> d          -7.602  -4.562   4.463  0.00  0.00    -0.040 A 
ATOM      7  C15 <0> d          -7.981  -3.427   5.156  0.00  0.00     0.011 A 
ATOM      8  C14 <0> d          -7.916  -3.405   6.536  0.00  0.00     0.030 A 
ATOM      9  C13 <0> d          -7.459  -4.519   7.226  0.00  0.00     0.039 A 
ATOM     10  C12 <0> d          -7.073  -5.655   6.527  0.00  0.00     0.030 A 
ATOM     11  C11 <0> d          -7.146  -5.673   5.148  0.00  0.00     0.011 A 
BRANCH   9  12
ATOM     12  N3  <0> d          -7.386  -4.497   8.626  0.00  0.00    -0.315 N 
ATOM     13  C18 <0> d          -6.963  -5.508   9.429  0.00  0.00     0.214 A 
ATOM     14  N4  <0> d          -7.036  -5.112  10.670  0.00  0.00    -0.254 NA
ATOM     15  C17 <0> d          -7.510  -3.858  10.709  0.00  0.00     0.135 A 
ATOM     16  C16 <0> d          -7.736  -3.454   9.444  0.00  0.00     0.117 A 
ENDBRANCH   9  12
ENDBRANCH   5   6
ENDBRANCH   3   5
BRANCH   1  17
ATOM     17  C7  <0> d          -4.980  -3.579   0.498  0.00  0.00     0.073 A 
ATOM     18  C6  <0> d          -4.612  -3.439  -0.832  0.00  0.00     0.026 A 
ATOM     19  C5  <0> d          -3.340  -2.968  -1.052  0.00  0.00     0.018 A 
ATOM     20  C4  <0> d          -2.550  -2.680   0.012  0.00  0.00     0.001 A 
ATOM     21  S1  <0> d          -3.505  -3.045   1.345  0.00  0.00    -0.088 SA
BRANCH  20  22
ATOM     22  C3  <0> d          -1.136  -2.159   0.001  0.00  0.00     0.168 C 
BRANCH  22  23
ATOM     23  N1  <0> d          -1.156  -0.694   0.009  0.00  0.00    -0.357 N 
ATOM     24  C2  <0> d           0.002  -0.004   0.002  0.00  0.00     0.213 C 
ATOM     25  C1  <0> d          -0.018   1.503   0.010  0.00  0.00     0.117 C 
ATOM     26  O1  <0> d           1.060  -0.596  -0.011  0.00  0.00    -0.274 OA
ATOM     27  H4  <0> d          -2.002  -0.220   0.020  0.00  0.00     0.162 HD
ENDBRANCH  22  23
ENDBRANCH  20  22
ENDBRANCH   1  17
TORSDOF 6
