REMARK  3 active torsions:
REMARK  status: ('A' for Active; 'I' for Inactive)
REMARK    1  A    between atoms: C2_2  and  C3_3 
REMARK    2  A    between atoms: C3_3  and  N1_4 
REMARK    3  A    between atoms: C9_12  and  C10_14 
REMARK       I    between atoms: C10_14  and  N3_16 
ROOT
ATOM      1  N1  <0> d           0.759   0.863   2.144  0.00  0.00    -0.302 N 
ATOM      2  C4  <0> d           0.959   1.875   3.024  0.00  0.00     0.106 A 
ATOM      3  N2  <0> d           1.095   1.659   4.304  0.00  0.00    -0.227 NA
ATOM      4  C5  <0> d           1.046   0.434   4.813  0.00  0.00     0.116 A 
ATOM      5  C6  <0> d           0.843  -0.703   3.998  0.00  0.00     0.075 A 
ATOM      6  C7  <0> d           0.687  -0.419   2.554  0.00  0.00     0.262 A 
ATOM      7  O1  <0> d           0.502  -1.320   1.756  0.00  0.00    -0.267 OA
ATOM      8  C8  <0> d           0.813  -1.930   4.665  0.00  0.00    -0.021 A 
ATOM      9  C9  <0> d           0.975  -1.972   6.019  0.00  0.00     0.082 A 
ATOM     10  S1  <0> d           1.183  -0.251   6.444  0.00  0.00    -0.063 SA
ATOM     11  C15 <0> d           0.602  -3.206   3.890  0.00  0.00     0.051 C 
ATOM     12  C16 <0> d           1.025   3.290   2.509  0.00  0.00     0.091 C 
ENDROOT
BRANCH   9  13
ATOM     13  C10 <0> d           0.977  -3.140   6.905  0.00  0.00     0.261 C 
ATOM     14  O2  <0> d           0.139  -4.012   6.764  0.00  0.00    -0.267 OA
ATOM     15  N3  <0> d           1.906  -3.249   7.875  0.00  0.00    -0.344 N 
ATOM     16  C14 <0> d           1.983  -4.454   8.715  0.00  0.00     0.153 C 
ATOM     17  C11 <0> d           2.875  -2.169   8.117  0.00  0.00     0.153 C 
ATOM     18  C13 <0> d           3.428  -4.963   8.706  0.00  0.00     0.252 C 
ATOM     19  N4  <0> d           4.330  -3.872   9.100  0.00  0.00    -0.072 N 
ATOM     20  C12 <0> d           4.281  -2.765   8.135  0.00  0.00     0.252 C 
ATOM     21  H12 <0> d           5.356  -4.267   9.153  0.00  0.00     0.277 HD
ATOM     22  H23 <0> d           4.026  -3.507  10.092  0.00  0.00     0.277 HD
ENDBRANCH   9  13
BRANCH   1  23
ATOM     23  C3  <0> d           0.613   1.170   0.719  0.00  0.00     0.133 C 
BRANCH  23  24
ATOM     24  C2  <0> d           1.988   1.147   0.049  0.00  0.00     0.016 C 
ATOM     25  C1  <0> d           1.835   1.467  -1.439  0.00  0.00     0.006 C 
ENDBRANCH  23  24
ENDBRANCH   1  23
TORSDOF 3
