REMARK  2 active torsions:
REMARK  status: ('A' for Active; 'I' for Inactive)
REMARK    1  A    between atoms: C2_2  and  C7_8 
REMARK       I    between atoms: C7_8  and  N2_10 
REMARK    2  A    between atoms: N2_10  and  C8_11 
ROOT
ATOM      1  C7  <0> d          -1.411  -0.527   0.009  0.00  0.00     0.226 C 
ATOM      2  O1  <0> d          -1.791  -1.235   0.917  0.00  0.00    -0.273 OA
ATOM      3  N2  <0> d          -2.253  -0.208  -0.995  0.00  0.00    -0.352 N 
ATOM      4  H14 <0> d          -1.948   0.358  -1.721  0.00  0.00     0.163 HD
ENDROOT
BRANCH   1   5
ATOM      5  C2  <0> d           0.002  -0.004   0.002  0.00  0.00     0.040 C 
ATOM      6  C1  <0> d          -0.019   1.526   0.010  0.00  0.00     0.025 C 
ATOM      7  C6  <0> d           0.743  -0.513   1.242  0.00  0.00     0.046 C 
ATOM      8  C5  <0> d           0.829  -2.040   1.187  0.00  0.00     0.233 C 
ATOM      9  N1  <0> d           1.556  -2.449  -0.021  0.00  0.00    -0.075 N 
ATOM     10  C4  <0> d           0.814  -2.027  -1.215  0.00  0.00     0.233 C 
ATOM     11  H9  <0> d           1.657  -3.453  -0.027  0.00  0.00     0.277 HD
ATOM     12  H23 <0> d           2.469  -2.020  -0.024  0.00  0.00     0.277 HD
ATOM     13  C3  <0> d           0.727  -0.499  -1.252  0.00  0.00     0.046 C 
ENDBRANCH   1   5
BRANCH   3  14
ATOM     14  C8  <0> d          -3.626  -0.717  -0.988  0.00  0.00     0.120 C 
ATOM     15  C13 <0> d          -4.503   0.199  -0.174  0.00  0.00    -0.004 A 
ATOM     16  C12 <0> d          -5.734   0.608  -0.545  0.00  0.00     0.061 A 
ATOM     17  C14 <0> d          -4.228   0.785   1.075  0.00  0.00     0.036 A 
ATOM     18  C11 <0> d          -6.406   0.196  -1.832  0.00  0.00     0.066 C 
ATOM     19  O2  <0> d          -6.215   1.411   0.412  0.00  0.00    -0.326 OA
ATOM     20  C10 <0> d          -5.675  -1.031  -2.389  0.00  0.00     0.009 C 
ATOM     21  C9  <0> d          -4.169  -0.758  -2.422  0.00  0.00     0.030 C 
ATOM     22  C15 <0> d          -5.308   1.523   1.401  0.00  0.00     0.142 A 
ENDBRANCH   3  14
TORSDOF 2
