REMARK  4 active torsions:
REMARK  status: ('A' for Active; 'I' for Inactive)
REMARK    1  A    between atoms: C4_5  and  N4_21 
REMARK    2  A    between atoms: C5_6  and  N3_15 
REMARK       I    between atoms: N4_21  and  C15_22 
REMARK    3  A    between atoms: C15_22  and  C16_24 
REMARK    4  A    between atoms: C16_24  and  O5_25 
ROOT
ATOM      1  C1  <0> d          -0.025   1.482  -0.009  0.00  0.00     0.160 C 
ATOM      2  N1  <0> d           0.002   0.017  -0.023  0.00  0.00    -0.312 N 
ATOM      3  C2  <0> d          -1.193  -0.700  -0.017  0.00  0.00     0.066 A 
ATOM      4  C3  <0> d          -2.404  -0.016   0.001  0.00  0.00     0.064 A 
ATOM      5  C4  <0> d          -3.596  -0.718   0.007  0.00  0.00     0.064 A 
ATOM      6  C5  <0> d          -3.586  -2.115  -0.006  0.00  0.00     0.059 A 
ATOM      7  C6  <0> d          -2.383  -2.799  -0.025  0.00  0.00     0.063 A 
ATOM      8  C7  <0> d          -1.182  -2.096  -0.031  0.00  0.00     0.066 A 
ATOM      9  N2  <0> d           0.023  -2.794  -0.050  0.00  0.00    -0.312 N 
ATOM     10  C8  <0> d           1.193  -2.125  -0.055  0.00  0.00     0.316 A 
ATOM     11  O1  <0> d           2.246  -2.730  -0.072  0.00  0.00    -0.262 OA
ATOM     12  C9  <0> d           1.182  -0.634  -0.046  0.00  0.00     0.316 A 
ATOM     13  O2  <0> d           2.226  -0.013  -0.056  0.00  0.00    -0.262 OA
ATOM     14  C10 <0> d           0.018  -4.259  -0.064  0.00  0.00     0.160 C 
ENDROOT
BRANCH   5  15
ATOM     15  N4  <0> d          -4.816  -0.026   0.026  0.00  0.00    -0.323 N 
ATOM     16  C15 <0> d          -4.922   1.134   0.703  0.00  0.00     0.245 C 
ATOM     17  O4  <0> d          -3.943   1.622   1.227  0.00  0.00    -0.271 OA
ATOM     18  H17 <0> d          -5.583  -0.383  -0.448  0.00  0.00     0.169 HD
BRANCH  16  19
ATOM     19  C16 <0> d          -6.257   1.825   0.809  0.00  0.00     0.270 C 
BRANCH  19  20
ATOM     20  O5  <0> d          -6.112   3.027   1.569  0.00  0.00    -0.387 OA
ATOM     21  C17 <0> d          -7.326   3.763   1.730  0.00  0.00     0.202 C 
ENDBRANCH  19  20
ENDBRANCH  16  19
ENDBRANCH   5  15
BRANCH   6  22
ATOM     22  N3  <0> d          -4.793  -2.824  -0.000  0.00  0.00    -0.375 N 
ATOM     23  C14 <0> d          -5.433  -3.219   1.264  0.00  0.00     0.149 C 
ATOM     24  C13 <0> d          -5.765  -4.709   1.198  0.00  0.00     0.187 C 
ATOM     25  O3  <0> d          -6.502  -4.976   0.002  0.00  0.00    -0.388 OA
ATOM     26  C12 <0> d          -5.785  -4.697  -1.202  0.00  0.00     0.187 C 
ATOM     27  C11 <0> d          -5.456  -3.201  -1.258  0.00  0.00     0.149 C 
ENDBRANCH   6  22
TORSDOF 4
