REMARK  8 active torsions:
REMARK  status: ('A' for Active; 'I' for Inactive)
REMARK    1  A    between atoms: O1_2  and  C2_3 
REMARK    2  A    between atoms: C2_3  and  C3_4 
REMARK    3  A    between atoms: C3_4  and  O2_5 
REMARK    4  A    between atoms: O2_5  and  C4_6 
REMARK    5  A    between atoms: C4_6  and  C5_8 
REMARK    6  A    between atoms: C7_10  and  C10_15 
REMARK    7  A    between atoms: C10_15  and  C11_17 
REMARK    8  A    between atoms: C16_22  and  O6_23 
ROOT
ATOM      1  C5  <0> d          -4.969   1.350  -0.288  0.00  0.00     0.091 A 
ATOM      2  C6  <0> d          -3.792   2.075  -0.186  0.00  0.00     0.039 A 
ATOM      3  C7  <0> d          -2.569   1.373  -0.090  0.00  0.00     0.038 A 
ATOM      4  C8  <0> d          -2.555  -0.005  -0.103  0.00  0.00     0.159 A 
ATOM      5  O4  <0> d          -3.679  -0.719  -0.194  0.00  0.00    -0.304 OA
ATOM      6  C9  <0> d          -4.886  -0.120  -0.290  0.00  0.00     0.157 A 
ATOM      7  N1  <0> d          -5.972  -0.841  -0.385  0.00  0.00    -0.379 N 
ATOM      8  H10 <0> d          -5.905  -1.939  -0.386  0.00  0.00     0.158 HD
ATOM      9  H15 <0> d          -6.953  -0.349  -0.463  0.00  0.00     0.158 HD
ENDROOT
BRANCH   3  10
ATOM     10  C10 <0> d          -1.302   2.118   0.020  0.00  0.00     0.197 C 
ATOM     11  O5  <0> d          -1.316   3.330   0.127  0.00  0.00    -0.286 OA
BRANCH  10  12
ATOM     12  C11 <0> d          -0.017   1.394  -0.001  0.00  0.00     0.049 A 
ATOM     13  C16 <0> d           0.488   0.886  -1.206  0.00  0.00     0.080 A 
ATOM     14  C15 <0> d           1.694   0.202  -1.213  0.00  0.00     0.039 A 
ATOM     15  C14 <0> d           2.395   0.023  -0.037  0.00  0.00     0.022 A 
ATOM     16  C13 <0> d           1.901   0.524   1.158  0.00  0.00     0.012 A 
ATOM     17  C12 <0> d           0.703   1.206   1.183  0.00  0.00     0.037 A 
ATOM     18 Br1  <0> d           2.873   0.270   2.759  0.00  0.00    -0.051 Br
BRANCH  13  19
ATOM     19  O6  <0> d          -0.202   1.062  -2.361  0.00  0.00    -0.360 OA
ATOM     20  H14 <0> d           0.196   0.663  -3.306  0.00  0.00     0.217 HD
ENDBRANCH  13  19
ENDBRANCH  10  12
ENDBRANCH   3  10
BRANCH   1  21
ATOM     21  C4  <0> d          -6.266   2.031  -0.391  0.00  0.00     0.297 C 
ATOM     22  O3  <0> d          -7.289   1.379  -0.479  0.00  0.00    -0.259 OA
BRANCH  21  23
ATOM     23  O2  <0> d          -6.323   3.378  -0.386  0.00  0.00    -0.315 OA
BRANCH  23  24
ATOM     24  C3  <0> d          -7.639   3.982  -0.491  0.00  0.00     0.205 C 
BRANCH  24  25
ATOM     25  C2  <0> d          -7.503   5.506  -0.470  0.00  0.00     0.193 C 
BRANCH  25  26
ATOM     26  O1  <0> d          -6.796   5.938  -1.634  0.00  0.00    -0.394 OA
ATOM     27  C1  <0> d          -6.614   7.353  -1.712  0.00  0.00     0.201 C 
ENDBRANCH  25  26
ENDBRANCH  24  25
ENDBRANCH  23  24
ENDBRANCH  21  23
ENDBRANCH   1  21
TORSDOF 8
