REMARK  4 active torsions:
REMARK  status: ('A' for Active; 'I' for Inactive)
REMARK    1  A    between atoms: C2_2  and  C3_3 
REMARK    2  A    between atoms: C2_2  and  N4_16 
REMARK    3  A    between atoms: C3_3  and  C4_5 
REMARK       I    between atoms: N5_19  and  C14_22 
REMARK    4  A    between atoms: C14_22  and  C15_24 
ROOT
ATOM      1  C1  <0> d           7.639   5.183   1.373  0.00  0.00     0.049 C 
ATOM      2  C2  <0> d           6.227   5.065   1.951  0.00  0.00     0.258 C 
ENDROOT
BRANCH   2   3
ATOM      3  C3  <0> d           5.603   6.434   2.036  0.00  0.00     0.199 C 
ATOM      4  O1  <0> d           4.868   6.822   1.150  0.00  0.00    -0.290 OA
BRANCH   3   5
ATOM      5  C4  <0> d           5.871   7.265   3.144  0.00  0.00     0.124 A 
ATOM      6  C7  <0> d           6.797   6.841   4.202  0.00  0.00     0.269 A 
ATOM      7  N2  <0> d           7.023   7.678   5.237  0.00  0.00    -0.270 N 
ATOM      8  O3  <0> d           7.354   5.760   4.145  0.00  0.00    -0.267 OA
ATOM      9  C6  <0> d           6.406   8.868   5.307  0.00  0.00     0.332 A 
ATOM     10  C8  <0> d           7.948   7.279   6.300  0.00  0.00     0.164 C 
ATOM     11  N1  <0> d           5.549   9.291   4.364  0.00  0.00    -0.289 N 
ATOM     12  O2  <0> d           6.632   9.590   6.258  0.00  0.00    -0.246 OA
ATOM     13  C5  <0> d           5.257   8.523   3.274  0.00  0.00     0.124 A 
ATOM     14  C9  <0> d           4.913  10.603   4.509  0.00  0.00     0.163 C 
ATOM     15  N3  <0> d           4.386   8.967   2.328  0.00  0.00    -0.384 N 
ATOM     16  H11 <0> d           3.910   9.953   2.438  0.00  0.00     0.157 HD
ATOM     17  H12 <0> d           4.157   8.341   1.453  0.00  0.00     0.157 HD
ENDBRANCH   3   5
ENDBRANCH   2   3
BRANCH   2  18
ATOM     18  N4  <0> d           5.412   4.207   1.081  0.00  0.00    -0.057 N 
ATOM     19  C13 <0> d           5.495   4.647  -0.318  0.00  0.00     0.255 C 
ATOM     20  C12 <0> d           4.783   3.621  -1.214  0.00  0.00     0.154 C 
ATOM     21  N5  <0> d           3.417   3.430  -0.703  0.00  0.00    -0.344 N 
ATOM     22  C11 <0> d           3.246   3.122   0.725  0.00  0.00     0.154 C 
ATOM     23  C14 <0> d           2.351   3.530  -1.522  0.00  0.00     0.260 C 
ATOM     24  C10 <0> d           4.018   4.162   1.544  0.00  0.00     0.255 C 
ATOM     25  O4  <0> d           2.514   3.747  -2.708  0.00  0.00    -0.267 OA
ATOM     26  H24 <0> d           5.816   3.186   1.136  0.00  0.00     0.281 HD
BRANCH  23  27
ATOM     27  C15 <0> d           0.997   3.377  -0.984  0.00  0.00     0.072 A 
ATOM     28  S1  <0> d           0.431   2.356   0.366  0.00  0.00    -0.097 SA
ATOM     29  C18 <0> d          -1.251   2.772   0.320  0.00  0.00     0.050 A 
ATOM     30  C17 <0> d          -1.322   3.664  -0.702  0.00  0.00     0.009 A 
ATOM     31  C16 <0> d          -0.180   3.986  -1.391  0.00  0.00     0.025 A 
ENDBRANCH  23  27
ENDBRANCH   2  18
TORSDOF 4
