REMARK  6 active torsions:
REMARK  status: ('A' for Active; 'I' for Inactive)
REMARK    1  A    between atoms: C3_4  and  C5_7 
REMARK    2  A    between atoms: C5_7  and  N3_8 
REMARK    3  A    between atoms: N3_8  and  C6_9 
REMARK    4  A    between atoms: N5_17  and  C13_18 
REMARK    5  A    between atoms: C13_18  and  C14_19 
REMARK    6  A    between atoms: C14_19  and  O1_20 
ROOT
ATOM      1  C6  <0> d           5.414  -1.517  -1.478  0.00  0.00     0.257 C 
ATOM      2  C7  <0> d           5.586  -2.164  -2.858  0.00  0.00     0.041 C 
ATOM      3  C8  <0> d           7.019  -2.683  -3.004  0.00  0.00     0.008 C 
ATOM      4  C9  <0> d           7.984  -1.497  -3.119  0.00  0.00     0.059 C 
ATOM      5  C10 <0> d           7.690  -0.534  -1.996  0.00  0.00     0.040 A 
ATOM      6  C11 <0> d           6.547  -0.544  -1.263  0.00  0.00     0.018 A 
ATOM      7  C12 <0> d           6.630   0.478  -0.321  0.00  0.00     0.150 A 
ATOM      8  N4  <0> d           7.781   1.085  -0.479  0.00  0.00    -0.184 NA
ATOM      9  N5  <0> d           8.466   0.461  -1.535  0.00  0.00    -0.272 N 
ENDROOT
BRANCH   1  10
ATOM     10  N3  <0> d           4.132  -0.803  -1.422  0.00  0.00     0.098 N 
ATOM     11  H7  <0> d           3.440  -1.257  -2.000  0.00  0.00     0.317 HD
BRANCH  10  12
ATOM     12  C5  <0> d           3.659  -0.677  -0.037  0.00  0.00     0.331 C 
BRANCH  12  13
ATOM     13  C3  <0> d           2.344   0.059  -0.020  0.00  0.00     0.079 A 
ATOM     14  N1  <0> d           2.326   1.380  -0.013  0.00  0.00    -0.261 NA
ATOM     15  C2  <0> d           1.173   2.025   0.002  0.00  0.00     0.136 A 
ATOM     16  C1  <0> d          -0.016   1.317   0.009  0.00  0.00     0.135 A 
ATOM     17  N2  <0> d           0.002  -0.004   0.002  0.00  0.00    -0.270 NA
ATOM     18  C4  <0> d           1.155  -0.649  -0.013  0.00  0.00     0.145 A 
ENDBRANCH  12  13
ENDBRANCH  10  12
ENDBRANCH   1  10
BRANCH   9  19
ATOM     19  C13 <0> d           9.790   0.829  -2.041  0.00  0.00     0.177 C 
BRANCH  19  20
ATOM     20  C14 <0> d           9.641   1.867  -3.155  0.00  0.00     0.185 C 
BRANCH  20  21
ATOM     21  O1  <0> d          10.933   2.225  -3.649  0.00  0.00    -0.399 OA
ATOM     22  H19 <0> d          10.915   2.881  -4.359  0.00  0.00     0.209 HD
ENDBRANCH  20  21
ENDBRANCH  19  20
ENDBRANCH   9  19
TORSDOF 6
