REMARK  7 active torsions:
REMARK  status: ('A' for Active; 'I' for Inactive)
REMARK    1  A    between atoms: C4_4  and  C7_7 
REMARK    2  A    between atoms: C7_7  and  C8_9 
REMARK    3  A    between atoms: C9_10  and  C13_21 
REMARK    4  A    between atoms: C11_15  and  C12_16 
REMARK    5  A    between atoms: C11_15  and  O3_20 
REMARK    6  A    between atoms: C18_26  and  O4_27 
REMARK    7  A    between atoms: O4_27  and  C19_28 
ROOT
ATOM      1  C8  <0> d          -2.711   4.260  -1.684  0.00  0.00     0.153 C 
ATOM      2  C9  <0> d          -2.226   3.594  -0.392  0.00  0.00     0.139 C 
ATOM      3  N1  <0> d          -3.324   2.819   0.189  0.00  0.00    -0.333 N 
ATOM      4  C10 <0> d          -4.282   2.280  -0.581  0.00  0.00     0.319 C 
ATOM      5  O2  <0> d          -5.165   1.637  -0.049  0.00  0.00    -0.247 OA
ATOM      6  N2  <0> d          -4.303   2.423  -1.914  0.00  0.00    -0.303 N 
ATOM      7  C11 <0> d          -3.262   3.176  -2.616  0.00  0.00     0.248 C 
ATOM      8  H8  <0> d          -3.359   2.692   1.150  0.00  0.00     0.165 HD
ATOM      9  H9  <0> d          -5.023   2.021  -2.424  0.00  0.00     0.167 HD
ENDROOT
BRANCH   2  10
ATOM     10  C13 <0> d          -1.071   2.677  -0.701  0.00  0.00    -0.001 A 
ATOM     11  C18 <0> d           0.219   3.184  -0.765  0.00  0.00     0.083 A 
ATOM     12  C17 <0> d           1.281   2.337  -1.049  0.00  0.00     0.037 A 
ATOM     13  C16 <0> d           1.052   0.993  -1.267  0.00  0.00     0.003 A 
ATOM     14  C15 <0> d          -0.235   0.490  -1.204  0.00  0.00     0.001 A 
ATOM     15  C14 <0> d          -1.296   1.333  -0.926  0.00  0.00     0.012 A 
BRANCH  11  16
ATOM     16  O4  <0> d           0.442   4.507  -0.550  0.00  0.00    -0.290 OA
BRANCH  16  17
ATOM     17  C19 <0> d           1.795   4.958  -0.632  0.00  0.00     0.505 C 
ATOM     18  F4  <0> d           2.570   4.287   0.320  0.00  0.00    -0.184 F 
ATOM     19  F5  <0> d           2.298   4.695  -1.911  0.00  0.00    -0.184 F 
ENDBRANCH  16  17
ENDBRANCH  11  16
ENDBRANCH   2  10
BRANCH   1  20
ATOM     20  C7  <0> d          -3.795   5.257  -1.364  0.00  0.00     0.171 C 
ATOM     21  O1  <0> d          -4.937   4.880  -1.207  0.00  0.00    -0.292 OA
BRANCH  20  22
ATOM     22  C4  <0> d          -3.468   6.686  -1.242  0.00  0.00     0.010 A 
ATOM     23  C3  <0> d          -4.487   7.627  -1.058  0.00  0.00     0.015 A 
ATOM     24  C2  <0> d          -4.172   8.965  -0.944  0.00  0.00     0.001 A 
ATOM     25  C1  <0> d          -2.853   9.377  -1.012  0.00  0.00     0.000 A 
ATOM     26  C6  <0> d          -1.839   8.453  -1.194  0.00  0.00     0.001 A 
ATOM     27  C5  <0> d          -2.137   7.111  -1.304  0.00  0.00     0.015 A 
ENDBRANCH  20  22
ENDBRANCH   1  20
BRANCH   7  28
ATOM     28  C12 <0> d          -3.855   3.829  -3.866  0.00  0.00     0.438 C 
ATOM     29  F1  <0> d          -2.897   4.659  -4.458  0.00  0.00    -0.166 F 
ATOM     30  F2  <0> d          -4.236   2.835  -4.775  0.00  0.00    -0.166 F 
ATOM     31  F3  <0> d          -4.974   4.588  -3.509  0.00  0.00    -0.166 F 
ENDBRANCH   7  28
BRANCH   7  32
ATOM     32  O3  <0> d          -2.206   2.290  -2.995  0.00  0.00    -0.363 OA
ATOM     33  H10 <0> d          -2.484   1.577  -3.586  0.00  0.00     0.213 HD
ENDBRANCH   7  32
TORSDOF 7
