REMARK  6 active torsions:
REMARK  status: ('A' for Active; 'I' for Inactive)
REMARK    1  A    between atoms: C5_5  and  N1_7 
REMARK    2  A    between atoms: N1_7  and  C7_8 
REMARK    3  A    between atoms: C7_8  and  C8_9 
REMARK    4  A    between atoms: C7_8  and  C14_16 
REMARK    5  A    between atoms: C11_12  and  O1_15 
REMARK    6  A    between atoms: C22_25  and  O2_26 
ROOT
ATOM      1  C7  <0> d           1.453   2.394   4.804  0.00  0.00     0.152 C 
ENDROOT
BRANCH   1   2
ATOM      2  N1  <0> d           0.005   2.549   4.646  0.00  0.00    -0.363 N 
ATOM      3  H8  <0> d          -0.358   2.894   3.815  0.00  0.00     0.162 HD
BRANCH   2   4
ATOM      4  C5  <0> d          -0.849   2.201   5.686  0.00  0.00     0.102 A 
ATOM      5  C6  <0> d          -0.334   1.590   6.825  0.00  0.00     0.054 A 
ATOM      6  C2  <0> d          -1.195   1.250   7.853  0.00  0.00    -0.057 A 
ATOM      7  C1  <0> d          -0.678   0.586   9.103  0.00  0.00     0.048 C 
ATOM      8  C3  <0> d          -2.548   1.528   7.704  0.00  0.00     0.024 A 
ATOM      9  C4  <0> d          -2.989   2.141   6.548  0.00  0.00     0.090 A 
ATOM     10  N3  <0> d          -2.172   2.489   5.519  0.00  0.00    -0.353 N 
ATOM     11  H20 <0> d          -2.528   2.941   4.668  0.00  0.00     0.166 HD
ENDBRANCH   2   4
ENDBRANCH   1   2
BRANCH   1  12
ATOM     12  C8  <0> d           2.164   3.378   3.911  0.00  0.00    -0.031 A 
ATOM     13  C13 <0> d           3.211   4.131   4.409  0.00  0.00     0.012 A 
ATOM     14  C12 <0> d           3.865   5.033   3.592  0.00  0.00     0.037 A 
ATOM     15  C11 <0> d           3.469   5.183   2.270  0.00  0.00     0.065 A 
ATOM     16  C10 <0> d           2.418   4.426   1.773  0.00  0.00     0.037 A 
ATOM     17  C9  <0> d           1.772   3.521   2.592  0.00  0.00     0.012 A 
BRANCH  15  18
ATOM     18  O1  <0> d           4.111   6.069   1.464  0.00  0.00    -0.361 OA
ATOM     19  H13 <0> d           4.865   5.694   0.989  0.00  0.00     0.217 HD
ENDBRANCH  15  18
ENDBRANCH   1  12
BRANCH   1  20
ATOM     20  C14 <0> d           1.853   0.992   4.425  0.00  0.00     0.004 A 
ATOM     21  C22 <0> d           2.986   0.448   4.960  0.00  0.00     0.103 A 
ATOM     22  C21 <0> d           3.360  -0.867   4.612  0.00  0.00     0.100 A 
ATOM     23  C17 <0> d           2.554  -1.593   3.701  0.00  0.00    -0.004 A 
ATOM     24  N2  <0> d           4.460  -1.429   5.121  0.00  0.00    -0.257 NA
ATOM     25  C16 <0> d           1.399  -0.997   3.168  0.00  0.00     0.014 A 
ATOM     26  C18 <0> d           2.932  -2.903   3.349  0.00  0.00     0.015 A 
ATOM     27  C15 <0> d           1.065   0.272   3.531  0.00  0.00     0.013 A 
ATOM     28  C19 <0> d           4.068  -3.417   3.907  0.00  0.00     0.020 A 
ATOM     29  C20 <0> d           4.815  -2.648   4.796  0.00  0.00     0.117 A 
BRANCH  21  30
ATOM     30  O2  <0> d           3.745   1.167   5.828  0.00  0.00    -0.358 OA
ATOM     31  H19 <0> d           3.493   1.057   6.755  0.00  0.00     0.217 HD
ENDBRANCH  21  30
ENDBRANCH   1  20
TORSDOF 6
