REMARK  5 active torsions:
REMARK  status: ('A' for Active; 'I' for Inactive)
REMARK    1  A    between atoms: C6_6  and  C7_7 
REMARK       I    between atoms: C7_7  and  N1_9 
REMARK    2  A    between atoms: N1_9  and  N2_10 
REMARK       I    between atoms: N2_10  and  C8_11 
REMARK    3  A    between atoms: C8_11  and  C9_13 
REMARK    4  A    between atoms: C9_13  and  N3_14 
REMARK    5  A    between atoms: C11_16  and  C15_21 
ROOT
ATOM      1  N2  <0> d           5.251  -1.556  -1.724  0.00  0.00    -0.266 N 
ATOM      2  C8  <0> d           4.094  -0.917  -1.463  0.00  0.00     0.254 C 
ATOM      3  O2  <0> d           3.395  -0.530  -2.376  0.00  0.00    -0.270 OA
ATOM      4  H6  <0> d           5.810  -1.865  -0.993  0.00  0.00     0.190 HD
ENDROOT
BRANCH   2   5
ATOM      5  C9  <0> d           3.668  -0.681  -0.037  0.00  0.00     0.236 C 
BRANCH   5   6
ATOM      6  N3  <0> d           2.385   0.027  -0.021  0.00  0.00    -0.315 N 
ATOM      7  C14 <0> d           1.237  -0.675  -0.013  0.00  0.00     0.247 A 
ATOM      8  C13 <0> d           0.002  -0.004   0.002  0.00  0.00     0.075 A 
ATOM      9  O3  <0> d           1.268  -1.895  -0.021  0.00  0.00    -0.268 OA
ATOM     10  C12 <0> d          -0.016   1.360   0.009  0.00  0.00     0.023 A 
ATOM     11  C11 <0> d           1.197   2.062   0.002  0.00  0.00     0.063 A 
ATOM     12  C10 <0> d           2.369   1.385  -0.013  0.00  0.00     0.110 A 
BRANCH  11  13
ATOM     13  C15 <0> d           1.197   3.569   0.010  0.00  0.00     0.418 C 
ATOM     14  F1  <0> d           1.069   4.042  -1.300  0.00  0.00    -0.166 F 
ATOM     15  F2  <0> d           0.123   4.031   0.779  0.00  0.00    -0.166 F 
ATOM     16  F3  <0> d           2.397   4.032   0.558  0.00  0.00    -0.166 F 
ENDBRANCH  11  13
ENDBRANCH   5   6
ENDBRANCH   2   5
BRANCH   1  17
ATOM     17  N1  <0> d           5.647  -1.775  -3.050  0.00  0.00    -0.263 N 
ATOM     18  C7  <0> d           6.804  -2.415  -3.310  0.00  0.00     0.270 C 
ATOM     19  O1  <0> d           7.505  -2.802  -2.395  0.00  0.00    -0.266 OA
ATOM     20  H5  <0> d           5.088  -1.466  -3.780  0.00  0.00     0.190 HD
BRANCH  18  21
ATOM     21  C6  <0> d           7.222  -2.646  -4.708  0.00  0.00     0.033 A 
ATOM     22  C1  <0> d           6.417  -2.207  -5.762  0.00  0.00     0.020 A 
ATOM     23  C2  <0> d           6.814  -2.419  -7.064  0.00  0.00     0.043 A 
ATOM     24  C3  <0> d           8.005  -3.078  -7.330  0.00  0.00     0.116 A 
ATOM     25  C4  <0> d           8.806  -3.521  -6.288  0.00  0.00     0.043 A 
ATOM     26  F4  <0> d           8.387  -3.289  -8.608  0.00  0.00    -0.206 F 
ATOM     27  C5  <0> d           8.421  -3.308  -4.981  0.00  0.00     0.020 A 
ENDBRANCH  18  21
ENDBRANCH   1  17
TORSDOF 5
