REMARK  5 active torsions:
REMARK  status: ('A' for Active; 'I' for Inactive)
REMARK    1  A    between atoms: C2_2  and  C3_3 
REMARK    2  A    between atoms: C3_3  and  C4_4 
REMARK    3  A    between atoms: C3_3  and  N3_14 
REMARK       I    between atoms: N3_14  and  C11_15 
REMARK    4  A    between atoms: C11_15  and  C12_17 
REMARK    5  A    between atoms: C15_20  and  C17_25 
ROOT
ATOM      1  N3  <0> d          -2.099  -0.146  -1.232  0.00  0.00    -0.345 N 
ATOM      2  C11 <0> d          -2.690   1.062  -1.334  0.00  0.00     0.257 C 
ATOM      3  O1  <0> d          -2.744   1.796  -0.365  0.00  0.00    -0.267 OA
ATOM      4  H13 <0> d          -2.124  -0.762  -1.981  0.00  0.00     0.163 HD
ENDROOT
BRANCH   2   5
ATOM      5  C12 <0> d          -3.268   1.492  -2.614  0.00  0.00     0.100 A 
ATOM      6  C16 <0> d          -3.304   0.604  -3.719  0.00  0.00     0.261 A 
ATOM      7  N4  <0> d          -3.841   1.003  -4.887  0.00  0.00    -0.322 N 
ATOM      8  O2  <0> d          -2.855  -0.523  -3.609  0.00  0.00    -0.267 OA
ATOM      9  C15 <0> d          -4.344   2.263  -5.034  0.00  0.00     0.045 A 
ATOM     10  H3  <0> d          -3.866   0.388  -5.637  0.00  0.00     0.169 HD
ATOM     11  C14 <0> d          -4.322   3.161  -3.982  0.00  0.00     0.031 A 
ATOM     12  C13 <0> d          -3.782   2.782  -2.760  0.00  0.00     0.025 A 
BRANCH   9  13
ATOM     13  C17 <0> d          -4.920   2.673  -6.330  0.00  0.00    -0.009 A 
ATOM     14  C22 <0> d          -4.948   1.775  -7.400  0.00  0.00     0.020 A 
ATOM     15  C21 <0> d          -5.493   2.163  -8.606  0.00  0.00    -0.061 A 
ATOM     16  C20 <0> d          -5.999   3.441  -8.762  0.00  0.00     0.007 A 
ATOM     17  C23 <0> d          -5.530   1.194  -9.760  0.00  0.00     0.048 C 
ATOM     18  C19 <0> d          -5.969   4.338  -7.707  0.00  0.00     0.001 A 
ATOM     19  C18 <0> d          -5.433   3.962  -6.494  0.00  0.00     0.014 A 
ENDBRANCH   9  13
ENDBRANCH   2   5
BRANCH   1  20
ATOM     20  C3  <0> d          -1.420  -0.527   0.008  0.00  0.00     0.154 C 
BRANCH  20  21
ATOM     21  C2  <0> d           0.013   0.009  -0.009  0.00  0.00     0.028 C 
ATOM     22  C1  <0> d          -0.015   1.539  -0.002  0.00  0.00     0.007 C 
ENDBRANCH  20  21
BRANCH  20  23
ATOM     23  C4  <0> d          -1.393  -2.029   0.125  0.00  0.00     0.128 A 
ATOM     24  N2  <0> d          -0.754  -2.828  -0.679  0.00  0.00    -0.231 NA
ATOM     25  C10 <0> d          -0.938  -4.114  -0.286  0.00  0.00     0.085 A 
ATOM     26  C5  <0> d          -1.767  -4.081   0.848  0.00  0.00     0.062 A 
ATOM     27  C9  <0> d          -0.490  -5.345  -0.774  0.00  0.00     0.034 A 
ATOM     28  N1  <0> d          -2.038  -2.748   1.083  0.00  0.00    -0.341 N 
ATOM     29  C6  <0> d          -2.133  -5.267   1.471  0.00  0.00     0.032 A 
ATOM     30  H2  <0> d          -2.587  -2.391   1.798  0.00  0.00     0.167 HD
ATOM     31  C7  <0> d          -1.679  -6.469   0.971  0.00  0.00     0.002 A 
ATOM     32  C8  <0> d          -0.860  -6.501  -0.148  0.00  0.00     0.002 A 
ENDBRANCH  20  23
ENDBRANCH   1  20
TORSDOF 5
