REMARK  3 active torsions:
REMARK  status: ('A' for Active; 'I' for Inactive)
REMARK    1  A    between atoms: C3_3  and  C13_17 
REMARK    2  A    between atoms: C4_4  and  N3_8 
REMARK    3  A    between atoms: C8_11  and  N4_14 
ROOT
ATOM      1  C1  <0> d           1.529   0.644   1.235  0.00  0.00     0.074 C 
ATOM      2  C2  <0> d           0.670  -0.374   0.530  0.00  0.00     0.071 A 
ATOM      3  C3  <0> d           1.140  -1.472  -0.233  0.00  0.00     0.112 A 
ATOM      4  C4  <0> d           0.014  -2.151  -0.701  0.00  0.00     0.141 A 
ATOM      5  N1  <0> d          -1.067  -1.490  -0.241  0.00  0.00    -0.257 N 
ATOM      6  N2  <0> d          -0.631  -0.401   0.521  0.00  0.00    -0.175 NA
ATOM      7  C5  <0> d          -2.463  -1.855  -0.491  0.00  0.00     0.182 C 
ENDROOT
BRANCH   4   8
ATOM      8  N3  <0> d           0.008  -3.283  -1.487  0.00  0.00    -0.365 N 
ATOM      9  C10 <0> d          -0.095  -4.616  -0.879  0.00  0.00     0.126 C 
ATOM     10  C9  <0> d          -1.266  -5.364  -1.533  0.00  0.00     0.053 C 
ATOM     11  C8  <0> d          -1.070  -5.379  -3.051  0.00  0.00     0.190 C 
ATOM     12  C7  <0> d          -1.059  -3.943  -3.580  0.00  0.00     0.053 C 
ATOM     13  C6  <0> d           0.110  -3.180  -2.949  0.00  0.00     0.126 C 
BRANCH  11  14
ATOM     14  N4  <0> d          -2.169  -6.124  -3.679  0.00  0.00    -0.074 N 
ATOM     15  C11 <0> d          -1.980  -6.141  -5.136  0.00  0.00     0.269 C 
ATOM     16  C12 <0> d          -2.180  -7.502  -3.171  0.00  0.00     0.269 C 
ATOM     17  H22 <0> d          -3.047  -5.677  -3.459  0.00  0.00     0.279 HD
ENDBRANCH  11  14
ENDBRANCH   4   8
BRANCH   3  18
ATOM     18  C13 <0> d           2.537  -1.826  -0.481  0.00  0.00     0.215 C 
ATOM     19  O1  <0> d           3.434  -1.090  -0.090  0.00  0.00    -0.644 OA
ATOM     20  O2  <0> d           2.809  -2.859  -1.080  0.00  0.00    -0.644 OA
ENDBRANCH   3  18
TORSDOF 3
