REMARK  4 active torsions:
REMARK  status: ('A' for Active; 'I' for Inactive)
REMARK    1  A    between atoms: C4_4  and  C7_7 
REMARK    2  A    between atoms: C15_17  and  S1_18 
REMARK    3  A    between atoms: S1_18  and  C16_19 
REMARK    4  A    between atoms: C19_24  and  N4_26 
ROOT
ATOM      1  C7  <0> d           3.293  -0.619  -0.120  0.00  0.00    -0.012 A 
ATOM      2  C8  <0> d           4.356   0.280  -0.241  0.00  0.00     0.001 A 
ATOM      3  C9  <0> d           4.117   1.661  -0.402  0.00  0.00     0.038 A 
ATOM      4  C10 <0> d           5.170   2.515  -0.518  0.00  0.00     0.035 A 
ATOM      5  C11 <0> d           6.485   2.053  -0.480  0.00  0.00     0.026 A 
ATOM      6  C12 <0> d           6.777   0.732  -0.327  0.00  0.00     0.032 A 
ATOM      7  C13 <0> d           5.739  -0.207  -0.201  0.00  0.00     0.045 A 
ATOM      8  N1  <0> d           6.029  -1.504  -0.050  0.00  0.00    -0.325 N 
ATOM      9  C14 <0> d           5.114  -2.446   0.074  0.00  0.00     0.241 A 
ATOM     10  O1  <0> d           5.451  -3.607   0.208  0.00  0.00    -0.272 OA
ATOM     11  C15 <0> d           3.646  -2.083   0.057  0.00  0.00     0.182 A 
ATOM     12 Cl1  <0> d           4.871   4.214  -0.717  0.00  0.00    -0.084 Cl
ATOM     13  H14 <0> d           6.962  -1.766  -0.030  0.00  0.00     0.169 HD
ENDROOT
BRANCH  11  14
ATOM     14  S1  <0> d           2.908  -2.650   1.614  0.00  0.00    -0.071 SA
BRANCH  14  15
ATOM     15  C16 <0> d           3.753  -1.721   2.850  0.00  0.00     0.194 A 
ATOM     16  N3  <0> d           3.432  -1.957   4.123  0.00  0.00    -0.209 NA
ATOM     17  C19 <0> d           4.005  -1.323   5.121  0.00  0.00     0.109 A 
ATOM     18  C18 <0> d           5.057  -0.285   4.777  0.00  0.00     0.183 A 
ATOM     19  C17 <0> d           5.342  -0.090   3.299  0.00  0.00     0.252 A 
ATOM     20  N2  <0> d           4.652  -0.841   2.442  0.00  0.00    -0.187 NA
ATOM     21  O2  <0> d           6.166   0.716   2.913  0.00  0.00    -0.271 OA
BRANCH  17  22
ATOM     22  N4  <0> d           3.668  -1.582   6.402  0.00  0.00    -0.387 N 
ATOM     23  H12 <0> d           4.100  -1.100   7.125  0.00  0.00     0.157 HD
ATOM     24  H13 <0> d           2.993  -2.250   6.601  0.00  0.00     0.157 HD
ENDBRANCH  17  22
ENDBRANCH  14  15
ENDBRANCH  11  14
BRANCH   1  25
ATOM     25  C4  <0> d           1.944  -0.182  -0.154  0.00  0.00    -0.027 A 
ATOM     26  C3  <0> d           1.094  -0.593  -1.194  0.00  0.00     0.012 A 
ATOM     27  C2  <0> d          -0.214  -0.162  -1.218  0.00  0.00     0.001 A 
ATOM     28  C1  <0> d          -0.692   0.673  -0.222  0.00  0.00     0.000 A 
ATOM     29  C6  <0> d           0.139   1.084   0.808  0.00  0.00     0.001 A 
ATOM     30  C5  <0> d           1.450   0.666   0.851  0.00  0.00     0.012 A 
ENDBRANCH   1  25
TORSDOF 4
