REMARK  3 active torsions:
REMARK  status: ('A' for Active; 'I' for Inactive)
REMARK    1  A    between atoms: C3_3  and  C11_13 
REMARK    2  A    between atoms: C6_6  and  O1_11 
REMARK    3  A    between atoms: C13_16  and  N3_18 
ROOT
ATOM      1  C1  <0> d          -0.019   1.526   0.010  0.00  0.00     0.035 C 
ATOM      2  C2  <0> d           0.002  -0.004   0.002  0.00  0.00     0.114 C 
ATOM      3  C3  <0> d          -1.439  -0.551   0.029  0.00  0.00     0.065 C 
ATOM      4  C4  <0> d          -1.432  -1.487   1.241  0.00  0.00     0.073 C 
ATOM      5  C5  <0> d          -2.501  -1.140   2.243  0.00  0.00     0.021 C 
ATOM      6  C6  <0> d          -2.254  -1.307   3.549  0.00  0.00     0.065 C 
ATOM      7  C7  <0> d          -0.982  -1.824   4.061  0.00  0.00     0.038 C 
ATOM      8  C8  <0> d           0.136  -1.783   3.279  0.00  0.00     0.030 C 
ATOM      9  C9  <0> d          -0.088  -1.259   1.913  0.00  0.00     0.037 C 
ATOM     10  N1  <0> d           0.665  -0.503   1.209  0.00  0.00    -0.288 NA
ENDROOT
BRANCH   3  11
ATOM     11  C11 <0> d          -2.430   0.567   0.222  0.00  0.00     0.011 A 
ATOM     12  S1  <0> d          -2.567   1.750   1.552  0.00  0.00    -0.055 SA
ATOM     13  C13 <0> d          -3.900   2.599   0.973  0.00  0.00     0.164 A 
ATOM     14  N2  <0> d          -4.185   1.978  -0.152  0.00  0.00    -0.236 NA
ATOM     15  C12 <0> d          -3.466   0.948  -0.564  0.00  0.00     0.134 A 
BRANCH  13  16
ATOM     16  N3  <0> d          -4.545   3.684   1.544  0.00  0.00    -0.378 N 
ATOM     17  H14 <0> d          -5.313   4.080   1.103  0.00  0.00     0.158 HD
ATOM     18  H15 <0> d          -4.228   4.049   2.386  0.00  0.00     0.158 HD
ENDBRANCH  13  16
ENDBRANCH   3  11
BRANCH   6  19
ATOM     19  O1  <0> d          -3.228  -0.983   4.440  0.00  0.00    -0.356 OA
ATOM     20  C10 <0> d          -4.455  -0.483   3.906  0.00  0.00     0.210 C 
ENDBRANCH   6  19
TORSDOF 3
