REMARK  4 active torsions:
REMARK  status: ('A' for Active; 'I' for Inactive)
REMARK    1  A    between atoms: C2_2  and  N1_3 
REMARK    2  A    between atoms: N1_3  and  C3_4 
REMARK       I    between atoms: N1_3  and  C9_11 
REMARK    3  A    between atoms: C3_4  and  C4_5 
REMARK    4  A    between atoms: C9_11  and  C10_13 
ROOT
ATOM      1  C10 <0> d          -1.502  -0.473  -2.354  0.00  0.00     0.224 C 
ATOM      2  C11 <0> d          -1.946  -0.198  -3.768  0.00  0.00     0.267 C 
ATOM      3  O2  <0> d          -1.315  -0.645  -4.702  0.00  0.00    -0.269 OA
ATOM      4  N3  <0> d          -3.050   0.547  -3.990  0.00  0.00    -0.322 N 
ATOM      5  C12 <0> d          -3.692   1.158  -2.904  0.00  0.00     0.068 A 
ATOM      6  C13 <0> d          -4.942   1.736  -3.059  0.00  0.00     0.032 A 
ATOM      7  C14 <0> d          -5.568   2.323  -1.976  0.00  0.00     0.002 A 
ATOM      8  C15 <0> d          -4.950   2.336  -0.739  0.00  0.00     0.003 A 
ATOM      9  C16 <0> d          -3.700   1.766  -0.579  0.00  0.00     0.039 A 
ATOM     10  C17 <0> d          -3.065   1.181  -1.661  0.00  0.00     0.098 A 
ATOM     11  O3  <0> d          -1.822   0.645  -1.523  0.00  0.00    -0.319 OA
ATOM     12  C18 <0> d          -2.219  -1.719  -1.829  0.00  0.00     0.068 C 
ATOM     13  H12 <0> d          -3.394   0.658  -4.890  0.00  0.00     0.169 HD
ENDROOT
BRANCH   1  14
ATOM     14  C9  <0> d          -0.013  -0.705  -2.332  0.00  0.00     0.264 C 
ATOM     15  N1  <0> d           0.688  -0.476  -1.203  0.00  0.00    -0.345 N 
ATOM     16  O1  <0> d           0.555  -1.096  -3.330  0.00  0.00    -0.269 OA
BRANCH  15  17
ATOM     17  C2  <0> d           0.002  -0.004   0.002  0.00  0.00     0.122 C 
ATOM     18  C1  <0> d          -0.019   1.526   0.010  0.00  0.00     0.026 C 
ENDBRANCH  15  17
BRANCH  15  19
ATOM     19  C3  <0> d           2.135  -0.701  -1.182  0.00  0.00     0.164 C 
BRANCH  19  20
ATOM     20  C4  <0> d           2.417  -2.123  -0.770  0.00  0.00    -0.037 A 
ATOM     21  C8  <0> d           2.514  -3.131  -1.717  0.00  0.00     0.028 A 
ATOM     22  C7  <0> d           2.779  -4.422  -1.302  0.00  0.00     0.116 A 
ATOM     23  N2  <0> d           2.928  -4.702  -0.022  0.00  0.00    -0.273 NA
ATOM     24  C6  <0> d           2.837  -3.770   0.907  0.00  0.00     0.116 A 
ATOM     25  C5  <0> d           2.580  -2.456   0.566  0.00  0.00     0.028 A 
ENDBRANCH  19  20
ENDBRANCH  15  19
ENDBRANCH   1  14
TORSDOF 4
