REMARK  5 active torsions:
REMARK  status: ('A' for Active; 'I' for Inactive)
REMARK    1  A    between atoms: N1_2  and  C3_4 
REMARK    2  A    between atoms: C6_7  and  C9_10 
REMARK    3  A    between atoms: C9_10  and  C10_11 
REMARK    4  A    between atoms: C9_10  and  N3_28 
REMARK    5  A    between atoms: C11_13  and  C13_16 
ROOT
ATOM      1  C10 <0> d           0.002  -0.004   0.002  0.00  0.00     0.110 A 
ATOM      2  N2  <0> d          -0.016   1.306   0.009  0.00  0.00    -0.242 NA
ATOM      3  C11 <0> d           1.104   2.013   0.002  0.00  0.00     0.074 A 
ATOM      4  C12 <0> d           2.292   1.331  -0.013  0.00  0.00     0.084 A 
ATOM      5  S1  <0> d           1.702  -0.356  -0.016  0.00  0.00    -0.082 SA
ENDROOT
BRANCH   1   6
ATOM      6  C9  <0> d          -1.160  -0.964   0.007  0.00  0.00     0.275 C 
BRANCH   6   7
ATOM      7  C6  <0> d          -1.301  -1.574   1.378  0.00  0.00    -0.021 A 
ATOM      8  C5  <0> d          -2.251  -1.087   2.256  0.00  0.00     0.012 A 
ATOM      9  C4  <0> d          -2.383  -1.645   3.513  0.00  0.00     0.030 A 
ATOM     10  C3  <0> d          -1.559  -2.696   3.894  0.00  0.00     0.029 A 
ATOM     11  C8  <0> d          -0.605  -3.183   3.010  0.00  0.00     0.030 A 
ATOM     12  C7  <0> d          -0.482  -2.624   1.753  0.00  0.00     0.012 A 
BRANCH  10  13
ATOM     13  N1  <0> d          -1.689  -3.262   5.164  0.00  0.00    -0.390 N 
ATOM     14  C1  <0> d          -2.696  -2.748   6.096  0.00  0.00     0.149 C 
ATOM     15  C2  <0> d          -0.820  -4.371   5.565  0.00  0.00     0.149 C 
ENDBRANCH  10  13
ENDBRANCH   6   7
BRANCH   6  16
ATOM     16  N3  <0> d          -0.944  -2.039  -0.976  0.00  0.00    -0.065 N 
ATOM     17  H20 <0> d          -0.889  -1.648  -1.915  0.00  0.00     0.275 HD
ATOM     18  H21 <0> d          -0.080  -2.537  -0.765  0.00  0.00     0.275 HD
ATOM     19  H22 <0> d          -1.729  -2.699  -0.933  0.00  0.00     0.275 HD
ENDBRANCH   6  16
ENDBRANCH   1   6
BRANCH   3  20
ATOM     20  C13 <0> d           1.073   3.496   0.011  0.00  0.00    -0.006 A 
ATOM     21  C22 <0> d           2.259   4.206   0.009  0.00  0.00     0.026 A 
ATOM     22  C21 <0> d           2.224   5.609   0.012  0.00  0.00    -0.025 A 
ATOM     23  C16 <0> d           0.972   6.275   0.028  0.00  0.00    -0.026 A 
ATOM     24  C20 <0> d           3.409   6.366   0.006  0.00  0.00     0.012 A 
ATOM     25  C15 <0> d          -0.216   5.523   0.034  0.00  0.00     0.013 A 
ATOM     26  C17 <0> d           0.942   7.680   0.036  0.00  0.00     0.012 A 
ATOM     27  C14 <0> d          -0.161   4.166   0.026  0.00  0.00     0.014 A 
ATOM     28  C18 <0> d           2.109   8.380   0.030  0.00  0.00     0.001 A 
ATOM     29  C19 <0> d           3.339   7.725   0.015  0.00  0.00     0.001 A 
ENDBRANCH   3  20
TORSDOF 5
