REMARK  3 active torsions:
REMARK  status: ('A' for Active; 'I' for Inactive)
REMARK    1  A    between atoms: C6_6  and  S1_7 
REMARK    2  A    between atoms: S1_7  and  N1_10 
REMARK    3  A    between atoms: C9_13  and  O3_16 
ROOT
ATOM      1  C1  <0> d          -0.017   1.378   0.010  0.00  0.00     0.028 A 
ATOM      2  C2  <0> d           1.169   2.091   0.002  0.00  0.00     0.040 A 
ATOM      3  C3  <0> d           2.378   1.419  -0.013  0.00  0.00     0.096 A 
ATOM      4  C4  <0> d           2.397   0.025  -0.021  0.00  0.00     0.070 A 
ATOM      5  C5  <0> d           1.207  -0.684  -0.013  0.00  0.00     0.057 A 
ATOM      6  C6  <0> d           0.002  -0.004   0.002  0.00  0.00     0.082 A 
ATOM      7  N2  <0> d           3.629  -0.644  -0.038  0.00  0.00    -0.323 N 
ATOM      8  C12 <0> d           4.751   0.043   0.269  0.00  0.00     0.246 C 
ATOM      9  O4  <0> d           5.831  -0.507   0.231  0.00  0.00    -0.271 OA
ATOM     10  C13 <0> d           4.655   1.496   0.659  0.00  0.00     0.278 C 
ATOM     11  O5  <0> d           3.552   2.104  -0.020  0.00  0.00    -0.340 OA
ATOM     12  H14 <0> d           3.675  -1.586  -0.267  0.00  0.00     0.169 HD
ENDROOT
BRANCH   6  13
ATOM     13  S1  <0> d          -1.513  -0.903   0.013  0.00  0.00     0.260 S 
ATOM     14  O1  <0> d          -1.222  -2.184   0.554  0.00  0.00    -0.200 OA
ATOM     15  O2  <0> d          -2.492  -0.042   0.578  0.00  0.00    -0.200 OA
BRANCH  13  16
ATOM     16  N1  <0> d          -1.950  -1.144  -1.566  0.00  0.00    -0.307 N 
ATOM     17  C11 <0> d          -1.503  -2.341  -2.292  0.00  0.00     0.138 C 
ATOM     18  C10 <0> d          -2.735  -3.042  -2.885  0.00  0.00     0.052 C 
ATOM     19  C9  <0> d          -3.520  -2.045  -3.740  0.00  0.00     0.121 C 
ATOM     20  C8  <0> d          -4.001  -0.886  -2.864  0.00  0.00     0.052 C 
ATOM     21  C7  <0> d          -2.788  -0.163  -2.270  0.00  0.00     0.138 C 
BRANCH  19  22
ATOM     22  O3  <0> d          -4.648  -2.702  -4.322  0.00  0.00    -0.395 OA
ATOM     23  H13 <0> d          -4.418  -3.449  -4.891  0.00  0.00     0.210 HD
ENDBRANCH  19  22
ENDBRANCH  13  16
ENDBRANCH   6  13
TORSDOF 3
