REMARK  6 active torsions:
REMARK  status: ('A' for Active; 'I' for Inactive)
REMARK    1  A    between atoms: C2_2  and  O1_3 
REMARK    2  A    between atoms: O1_3  and  C3_4 
REMARK    3  A    between atoms: C3_4  and  C4_6 
REMARK    4  A    between atoms: C7_10  and  N1_11 
REMARK    5  A    between atoms: N1_11  and  C8_12 
REMARK    6  A    between atoms: N2_14  and  C9_15 
ROOT
ATOM      1  C4  <0> d           2.049   5.698  -0.732  0.00  0.00     0.080 A 
ATOM      2  C5  <0> d           3.277   6.288  -1.221  0.00  0.00    -0.021 A 
ATOM      3  C6  <0> d           4.218   5.413  -1.643  0.00  0.00     0.027 A 
ATOM      4  S1  <0> d           3.492   3.820  -1.388  0.00  0.00    -0.073 SA
ATOM      5  C7  <0> d           1.964   4.309  -0.735  0.00  0.00     0.093 A 
ATOM      6  C15 <0> d           5.561   5.752  -2.204  0.00  0.00     0.153 C 
ATOM      7  C16 <0> d           5.100   7.942  -1.097  0.00  0.00     0.124 C 
ATOM      8  C17 <0> d           3.587   7.778  -1.288  0.00  0.00     0.079 C 
ATOM      9  C18 <0> d           5.476   7.541   0.332  0.00  0.00     0.046 C 
ATOM     10  C19 <0> d           5.439   9.434  -1.275  0.00  0.00     0.046 C 
ATOM     11  C20 <0> d           6.635   4.914  -1.496  0.00  0.00     0.052 C 
ATOM     12  C21 <0> d           5.572   5.374  -3.698  0.00  0.00     0.052 C 
ATOM     13  N3  <0> d           5.900   7.200  -2.106  0.00  0.00    -0.054 N 
ATOM     14  H26 <0> d           5.742   7.632  -3.024  0.00  0.00     0.279 HD
ATOM     15  H27 <0> d           6.893   7.283  -1.855  0.00  0.00     0.279 HD
ENDROOT
BRANCH   5  16
ATOM     16  N1  <0> d           0.910   3.512  -0.318  0.00  0.00    -0.326 N 
ATOM     17  H6  <0> d           0.102   3.920   0.030  0.00  0.00     0.169 HD
BRANCH  16  18
ATOM     18  C8  <0> d           1.008   2.170  -0.396  0.00  0.00     0.177 C 
ATOM     19  S2  <0> d           2.435   1.450  -1.011  0.00  0.00    -0.040 SA
ATOM     20  N2  <0> d          -0.017   1.395   0.010  0.00  0.00    -0.332 N 
ATOM     21  H7  <0> d          -0.855   1.802   0.279  0.00  0.00     0.168 HD
BRANCH  20  22
ATOM     22  C9  <0> d           0.126   0.003   0.036  0.00  0.00     0.056 A 
ATOM     23  C14 <0> d          -0.886  -0.810  -0.458  0.00  0.00     0.060 A 
ATOM     24  C13 <0> d          -0.741  -2.185  -0.430  0.00  0.00     0.026 A 
ATOM     25 Cl1  <0> d          -2.331  -0.102  -1.109  0.00  0.00    -0.082 Cl
ATOM     26  C12 <0> d           0.410  -2.749   0.089  0.00  0.00     0.002 A 
ATOM     27  C11 <0> d           1.419  -1.942   0.581  0.00  0.00     0.002 A 
ATOM     28  C10 <0> d           1.282  -0.568   0.551  0.00  0.00     0.031 A 
ENDBRANCH  20  22
ENDBRANCH  16  18
ENDBRANCH   5  16
BRANCH   1  29
ATOM     29  C3  <0> d           0.933   6.517  -0.254  0.00  0.00     0.296 C 
ATOM     30  O2  <0> d           0.868   6.832   0.919  0.00  0.00    -0.259 OA
BRANCH  29  31
ATOM     31  O1  <0> d          -0.022   6.924  -1.115  0.00  0.00    -0.318 OA
BRANCH  31  32
ATOM     32  C2  <0> d          -1.098   7.734  -0.572  0.00  0.00     0.174 C 
ATOM     33  C1  <0> d          -2.078   8.096  -1.690  0.00  0.00     0.034 C 
ENDBRANCH  31  32
ENDBRANCH  29  31
ENDBRANCH   1  29
TORSDOF 6
