REMARK  4 active torsions:
REMARK  status: ('A' for Active; 'I' for Inactive)
REMARK    1  A    between atoms: C6_7  and  C7_8 
REMARK    2  A    between atoms: C7_8  and  N2_10 
REMARK    3  A    between atoms: N2_10  and  C9_11 
REMARK    4  A    between atoms: C9_11  and  C11_13 
ROOT
ATOM      1  C7  <0> d           0.253   0.157   2.456  0.00  0.00     0.218 C 
ATOM      2  C8  <0> d          -1.112   0.678   2.909  0.00  0.00     0.045 C 
ENDROOT
BRANCH   1   3
ATOM      3  C6  <0> d           0.145  -0.380   1.052  0.00  0.00     0.002 A 
ATOM      4  C2  <0> d          -0.020   0.484  -0.019  0.00  0.00    -0.050 A 
ATOM      5  C1  <0> d          -0.094   1.974   0.196  0.00  0.00     0.049 C 
ATOM      6  C3  <0> d          -0.109  -0.054  -1.294  0.00  0.00     0.034 A 
ATOM      7  C4  <0> d          -0.036  -1.425  -1.452  0.00  0.00     0.031 A 
ATOM      8  N1  <0> d           0.115  -2.218  -0.409  0.00  0.00    -0.258 NA
ATOM      9  C13 <0> d          -0.132  -2.021  -2.833  0.00  0.00     0.070 C 
ATOM     10  C5  <0> d           0.203  -1.741   0.817  0.00  0.00     0.040 A 
ATOM     11  C12 <0> d           0.375  -2.690   1.975  0.00  0.00     0.071 C 
ENDBRANCH   1   3
BRANCH   1  12
ATOM     12  N2  <0> d           1.231   1.253   2.487  0.00  0.00    -0.053 N 
ATOM     13  H10 <0> d           0.953   1.970   1.834  0.00  0.00     0.279 HD
ATOM     14  H20 <0> d           1.270   1.642   3.418  0.00  0.00     0.279 HD
BRANCH  12  15
ATOM     15  C9  <0> d           2.555   0.739   2.115  0.00  0.00     0.282 C 
ATOM     16  C10 <0> d           3.045  -0.234   3.189  0.00  0.00     0.052 C 
BRANCH  15  17
ATOM     17  C11 <0> d           3.525   1.887   1.997  0.00  0.00     0.204 C 
ATOM     18  O1  <0> d           3.202   2.999   2.377  0.00  0.00    -0.646 OA
ATOM     19  O2  <0> d           4.632   1.703   1.521  0.00  0.00    -0.646 OA
ENDBRANCH  15  17
ENDBRANCH  12  15
ENDBRANCH   1  12
TORSDOF 4
