REMARK  5 active torsions:
REMARK  status: ('A' for Active; 'I' for Inactive)
REMARK    1  A    between atoms: N1_2  and  C2_3 
REMARK       I    between atoms: N1_2  and  C7_10 
REMARK    2  A    between atoms: C2_3  and  C3_4 
REMARK    3  A    between atoms: C7_10  and  C8_12 
REMARK    4  A    between atoms: C11_15  and  S2_17 
REMARK    5  A    between atoms: S2_17  and  N2_20 
ROOT
ATOM      1  C8  <0> d          -0.124   0.063  -2.432  0.00  0.00     0.144 A 
ATOM      2  C9  <0> d          -0.326  -0.477  -3.670  0.00  0.00     0.046 A 
ATOM      3  C10 <0> d          -0.267   0.583  -4.587  0.00  0.00     0.054 A 
ATOM      4  C11 <0> d          -0.035   1.710  -3.878  0.00  0.00     0.190 A 
ATOM      5  O2  <0> d           0.046   1.393  -2.580  0.00  0.00    -0.292 OA
ENDROOT
BRANCH   1   6
ATOM      6  C7  <0> d          -0.102  -0.673  -1.163  0.00  0.00     0.277 C 
ATOM      7  N1  <0> d          -0.018  -0.003   0.003  0.00  0.00    -0.346 N 
ATOM      8  C1  <0> d          -0.067   1.461   0.012  0.00  0.00     0.153 C 
ATOM      9  O1  <0> d          -0.158  -1.889  -1.164  0.00  0.00    -0.265 OA
BRANCH   7  10
ATOM     10  C2  <0> d           0.121  -0.739   1.262  0.00  0.00     0.171 C 
BRANCH  10  11
ATOM     11  C3  <0> d          -1.246  -1.039   1.822  0.00  0.00     0.002 A 
ATOM     12  S1  <0> d          -2.242  -0.065   2.938  0.00  0.00    -0.103 SA
ATOM     13  C6  <0> d          -3.647  -1.161   3.044  0.00  0.00     0.069 A 
ATOM     14  C5  <0> d          -3.266  -2.184   2.240  0.00  0.00     0.018 A 
ATOM     15  C4  <0> d          -2.034  -2.121   1.614  0.00  0.00     0.035 A 
ATOM     16 Br1  <0> d          -4.401  -3.674   1.979  0.00  0.00    -0.051 Br
ENDBRANCH  10  11
ENDBRANCH   7  10
ENDBRANCH   1   6
BRANCH   4  17
ATOM     17  S2  <0> d           0.129   3.330  -4.552  0.00  0.00     0.279 S 
ATOM     18  O3  <0> d           0.889   4.083  -3.617  0.00  0.00    -0.199 OA
ATOM     19  O4  <0> d           0.529   3.168  -5.905  0.00  0.00    -0.199 OA
BRANCH  17  20
ATOM     20  N2  <0> d          -1.384   4.003  -4.583  0.00  0.00    -0.323 N 
ATOM     21  H10 <0> d          -1.490   4.963  -4.492  0.00  0.00     0.169 HD
ATOM     22  H11 <0> d          -2.164   3.437  -4.691  0.00  0.00     0.169 HD
ENDBRANCH  17  20
ENDBRANCH   4  17
TORSDOF 5
