REMARK  2 active torsions:
REMARK  status: ('A' for Active; 'I' for Inactive)
REMARK    1  A    between atoms: C6_6  and  N1_7 
REMARK    2  A    between atoms: C10_16  and  C12_18 
ROOT
ATOM      1  C1  <0> d          -0.017   1.389   0.010  0.00  0.00     0.032 A 
ATOM      2  C2  <0> d           1.159   2.108   0.002  0.00  0.00     0.040 A 
ATOM      3  C3  <0> d           2.380   1.443  -0.013  0.00  0.00     0.090 A 
ATOM      4  C4  <0> d           2.404   0.041  -0.017  0.00  0.00     0.008 A 
ATOM      5  C5  <0> d           1.207  -0.683  -0.011  0.00  0.00     0.043 A 
ATOM      6  C6  <0> d           0.002  -0.004   0.002  0.00  0.00     0.026 A 
ATOM      7  C7  <0> d           3.699  -0.675  -0.024  0.00  0.00    -0.016 A 
ATOM      8  C8  <0> d           4.808   0.109  -0.010  0.00  0.00     0.142 A 
ATOM      9  C9  <0> d           4.720   1.512  -0.021  0.00  0.00     0.310 A 
ATOM     10  O1  <0> d           5.744   2.170  -0.028  0.00  0.00    -0.258 OA
ATOM     11  O2  <0> d           3.536   2.144  -0.024  0.00  0.00    -0.274 OA
ATOM     12  S1  <0> d           6.211  -0.985   0.039  0.00  0.00     0.195 S 
ATOM     13  O3  <0> d           6.725  -1.017  -1.286  0.00  0.00    -0.222 OA
ATOM     14  O4  <0> d           7.006  -0.549   1.133  0.00  0.00    -0.222 OA
ATOM     15  C10 <0> d           5.327  -2.549   0.443  0.00  0.00     0.225 C 
ATOM     16  C11 <0> d           3.914  -2.168  -0.058  0.00  0.00     0.071 C 
ENDROOT
BRANCH  15  17
ATOM     17  C12 <0> d           5.334  -2.822   1.949  0.00  0.00     0.405 C 
ATOM     18  F1  <0> d           4.625  -3.999   2.212  0.00  0.00    -0.170 F 
ATOM     19  F2  <0> d           6.654  -2.964   2.391  0.00  0.00    -0.170 F 
ATOM     20  F3  <0> d           4.729  -1.754   2.619  0.00  0.00    -0.170 F 
ENDBRANCH  15  17
BRANCH   6  21
ATOM     21  N1  <0> d          -1.200  -0.718   0.008  0.00  0.00    -0.399 N 
ATOM     22  H5  <0> d          -2.046  -0.243   0.018  0.00  0.00     0.156 HD
ATOM     23  H6  <0> d          -1.189  -1.688   0.003  0.00  0.00     0.156 HD
ENDBRANCH   6  21
TORSDOF 2
