REMARK  7 active torsions:
REMARK  status: ('A' for Active; 'I' for Inactive)
REMARK    1  A    between atoms: C2_2  and  C4_4 
REMARK    2  A    between atoms: C4_4  and  N1_5 
REMARK    3  A    between atoms: C5_6  and  N4_28 
REMARK    4  A    between atoms: C6_7  and  N3_14 
REMARK    5  A    between atoms: N3_14  and  C9_15 
REMARK       I    between atoms: N3_14  and  C13_19 
REMARK    6  A    between atoms: C9_15  and  C10_16 
REMARK    7  A    between atoms: C13_19  and  C14_21 
ROOT
ATOM      1  N1  <0> d           1.916  -0.054   0.500  0.00  0.00    -0.283 N 
ATOM      2  C5  <0> d           1.673  -0.907   1.551  0.00  0.00     0.138 A 
ATOM      3  C6  <0> d           0.736  -1.909   1.403  0.00  0.00     0.150 A 
ATOM      4  C7  <0> d           0.055  -2.026   0.176  0.00  0.00     0.280 A 
ATOM      5  O1  <0> d          -0.778  -2.903   0.018  0.00  0.00    -0.265 OA
ATOM      6  N2  <0> d           0.330  -1.165  -0.822  0.00  0.00    -0.273 N 
ATOM      7  H1  <0> d          -0.194  -1.252  -1.785  0.00  0.00     0.173 HD
ATOM      8  C8  <0> d           1.244  -0.191  -0.658  0.00  0.00     0.331 A 
ATOM      9  O2  <0> d           1.469   0.576  -1.573  0.00  0.00    -0.246 OA
ENDROOT
BRANCH   3  10
ATOM     10  N3  <0> d           0.465  -2.800   2.462  0.00  0.00    -0.305 N 
ATOM     11  C13 <0> d           0.028  -2.327   3.646  0.00  0.00     0.258 C 
ATOM     12  O3  <0> d          -0.143  -3.087   4.579  0.00  0.00    -0.267 OA
BRANCH  10  13
ATOM     13  C9  <0> d           0.658  -4.240   2.275  0.00  0.00     0.136 C 
BRANCH  13  14
ATOM     14  C10 <0> d           2.104  -4.609   2.614  0.00  0.00    -0.004 C 
ATOM     15  C11 <0> d           2.267  -6.129   2.565  0.00  0.00     0.011 C 
ATOM     16  C12 <0> d           3.047  -3.961   1.598  0.00  0.00     0.011 C 
ENDBRANCH  13  14
ENDBRANCH  10  13
BRANCH  11  17
ATOM     17  C14 <0> d          -0.244  -0.883   3.809  0.00  0.00     0.032 A 
ATOM     18  C19 <0> d          -0.201  -0.301   5.078  0.00  0.00     0.018 A 
ATOM     19  C18 <0> d          -0.455   1.047   5.224  0.00  0.00     0.019 A 
ATOM     20  C17 <0> d          -0.753   1.822   4.116  0.00  0.00     0.006 A 
ATOM     21  C16 <0> d          -0.797   1.251   2.856  0.00  0.00     0.019 A 
ATOM     22  I1  <0> d          -1.138   3.868   4.348  0.00  0.00    -0.045 I 
ATOM     23  C15 <0> d          -0.539  -0.095   2.696  0.00  0.00     0.018 A 
ENDBRANCH  11  17
ENDBRANCH   3  10
BRANCH   2  24
ATOM     24  N4  <0> d           2.357  -0.764   2.735  0.00  0.00    -0.383 N 
ATOM     25  H24 <0> d           2.158  -1.450   3.571  0.00  0.00     0.157 HD
ATOM     26  H25 <0> d           3.103   0.036   2.845  0.00  0.00     0.157 HD
ENDBRANCH   2  24
BRANCH   1  27
ATOM     27  C4  <0> d           2.909   1.014   0.643  0.00  0.00     0.139 C 
BRANCH  27  28
ATOM     28  C2  <0> d           4.281   0.496   0.208  0.00  0.00    -0.004 C 
ATOM     29  C1  <0> d           4.253   0.168  -1.286  0.00  0.00     0.011 C 
ATOM     30  C3  <0> d           5.339   1.569   0.475  0.00  0.00     0.011 C 
ENDBRANCH  27  28
ENDBRANCH   1  27
TORSDOF 7
