REMARK  4 active torsions:
REMARK  status: ('A' for Active; 'I' for Inactive)
REMARK    1  A    between atoms: C7_7  and  C8_8 
REMARK    2  A    between atoms: C7_7  and  N3_27 
REMARK       I    between atoms: C8_8  and  N1_10 
REMARK    3  A    between atoms: N1_10  and  C9_11 
REMARK    4  A    between atoms: C10_12  and  C17_20 
REMARK       I    between atoms: C17_20  and  N2_22 
ROOT
ATOM      1  C9  <0> d           0.002  -0.004   0.002  0.00  0.00     0.093 A 
ATOM      2  C10 <0> d           1.357  -0.302  -0.013  0.00  0.00     0.072 A 
ATOM      3  C11 <0> d           2.290   0.813  -0.016  0.00  0.00    -0.026 A 
ATOM      4  C12 <0> d           1.722   2.038  -0.003  0.00  0.00    -0.008 A 
ATOM      5  S1  <0> d          -0.021   1.728   0.011  0.00  0.00    -0.075 SA
ATOM      6  C13 <0> d           2.425   3.360  -0.002  0.00  0.00     0.047 C 
ATOM      7  C14 <0> d           3.899   3.123   0.361  0.00  0.00     0.005 C 
ATOM      8  C15 <0> d           4.436   1.967  -0.488  0.00  0.00     0.005 C 
ATOM      9  C16 <0> d           3.805   0.650  -0.032  0.00  0.00     0.041 C 
ENDROOT
BRANCH   1  10
ATOM     10  N1  <0> d          -1.073  -0.880   0.007  0.00  0.00    -0.319 N 
ATOM     11  C8  <0> d          -2.332  -0.402   0.022  0.00  0.00     0.248 C 
ATOM     12  O1  <0> d          -2.526   0.795   0.031  0.00  0.00    -0.271 OA
ATOM     13  H14 <0> d          -0.918  -1.838   0.000  0.00  0.00     0.169 HD
BRANCH  11  14
ATOM     14  C7  <0> d          -3.500  -1.354   0.028  0.00  0.00     0.337 C 
BRANCH  14  15
ATOM     15  N3  <0> d          -4.753  -0.571   0.022  0.00  0.00    -0.062 N 
ATOM     16  C5  <0> d          -4.900   0.157   1.300  0.00  0.00     0.239 C 
ATOM     17  C4  <0> d          -6.140   1.050   1.224  0.00  0.00     0.008 C 
ATOM     18  C3  <0> d          -7.376   0.180   0.980  0.00  0.00     0.011 C 
ATOM     19  C18 <0> d          -6.303   1.812   2.541  0.00  0.00     0.011 C 
ATOM     20  C2  <0> d          -7.179  -0.623  -0.309  0.00  0.00     0.008 C 
ATOM     21  C1  <0> d          -8.383  -1.540  -0.530  0.00  0.00     0.011 C 
ATOM     22  C6  <0> d          -5.909  -1.468  -0.188  0.00  0.00     0.239 C 
ATOM     23  H28 <0> d          -4.717   0.110  -0.746  0.00  0.00     0.280 HD
ENDBRANCH  14  15
ENDBRANCH  11  14
ENDBRANCH   1  10
BRANCH   2  24
ATOM     24  C17 <0> d           1.831  -1.689  -0.024  0.00  0.00     0.252 C 
ATOM     25  O2  <0> d           2.018  -2.260  -1.083  0.00  0.00    -0.268 OA
ATOM     26  N2  <0> d           2.059  -2.333   1.138  0.00  0.00    -0.366 N 
ATOM     27  H23 <0> d           1.911  -1.878   1.981  0.00  0.00     0.159 HD
ATOM     28  H24 <0> d           2.373  -3.251   1.130  0.00  0.00     0.159 HD
ENDBRANCH   2  24
TORSDOF 4
