REMARK  5 active torsions:
REMARK  status: ('A' for Active; 'I' for Inactive)
REMARK    1  A    between atoms: C3_3  and  C11_15 
REMARK    2  A    between atoms: N2_6  and  C5_7 
REMARK    3  A    between atoms: C11_15  and  N3_17 
REMARK    4  A    between atoms: N3_17  and  C13_18 
REMARK    5  A    between atoms: C13_18  and  C14_19 
ROOT
ATOM      1  C11 <0> d          -2.352  -0.506  -1.013  0.00  0.00     0.249 C 
ATOM      2  C12 <0> d          -2.677   0.973  -1.234  0.00  0.00     0.047 C 
ENDROOT
BRANCH   1   3
ATOM      3  C3  <0> d          -1.317  -0.636   0.074  0.00  0.00    -0.006 A 
ATOM      4  C2  <0> d          -1.491  -0.247   1.526  0.00  0.00     0.137 A 
ATOM      5  C1  <0> d          -2.617  -1.062   2.165  0.00  0.00     0.039 C 
ATOM      6  N2  <0> d          -0.200  -0.572   2.155  0.00  0.00    -0.281 N 
ATOM      7  N1  <0> d           0.601  -1.095   1.127  0.00  0.00    -0.308 N 
ATOM      8  C4  <0> d          -0.097  -1.109  -0.066  0.00  0.00     0.114 A 
ATOM      9  H7  <0> d           1.515  -1.401   1.238  0.00  0.00     0.186 HD
BRANCH   6  10
ATOM     10  C5  <0> d           0.153  -0.396   3.499  0.00  0.00     0.090 A 
ATOM     11  C10 <0> d           1.284   0.341   3.831  0.00  0.00     0.147 A 
ATOM     12  C9  <0> d           1.627   0.517   5.159  0.00  0.00     0.086 A 
ATOM     13  F1  <0> d           2.043   0.890   2.857  0.00  0.00    -0.204 F 
ATOM     14  C8  <0> d           0.851  -0.050   6.156  0.00  0.00     0.119 A 
ATOM     15  C7  <0> d          -0.272  -0.789   5.826  0.00  0.00     0.045 A 
ATOM     16  F2  <0> d           1.191   0.118   7.452  0.00  0.00    -0.206 F 
ATOM     17  C6  <0> d          -0.622  -0.963   4.501  0.00  0.00     0.037 A 
ENDBRANCH   6  10
ENDBRANCH   1   3
BRANCH   1  18
ATOM     18  N3  <0> d          -1.829  -1.084  -2.258  0.00  0.00     0.095 N 
ATOM     19  H14 <0> d          -1.223  -0.432  -2.733  0.00  0.00     0.316 HD
BRANCH  18  20
ATOM     20  C13 <0> d          -2.924  -1.520  -3.136  0.00  0.00     0.316 C 
BRANCH  20  21
ATOM     21  C14 <0> d          -2.341  -2.115  -4.420  0.00  0.00     0.210 A 
ATOM     22  N5  <0> d          -1.533  -1.109  -5.120  0.00  0.00    -0.365 N 
ATOM     23  C20 <0> d          -0.317  -1.567  -5.195  0.00  0.00     0.056 A 
ATOM     24  H23 <0> d          -1.848  -0.258  -5.465  0.00  0.00     0.162 HD
ATOM     25  C15 <0> d          -0.254  -2.905  -4.546  0.00  0.00     0.056 A 
ATOM     26  C19 <0> d           0.921  -1.025  -5.770  0.00  0.00     0.031 A 
ATOM     27  N4  <0> d          -1.433  -3.222  -4.096  0.00  0.00    -0.365 N 
ATOM     28  C16 <0> d           1.042  -3.597  -4.525  0.00  0.00     0.031 A 
ATOM     29  H22 <0> d          -1.669  -4.040  -3.630  0.00  0.00     0.162 HD
ATOM     30  C17 <0> d           2.119  -3.009  -5.084  0.00  0.00     0.002 A 
ATOM     31  C18 <0> d           2.059  -1.744  -5.697  0.00  0.00     0.002 A 
ENDBRANCH  20  21
ENDBRANCH  18  20
ENDBRANCH   1  18
TORSDOF 5
