REMARK  5 active torsions:
REMARK  status: ('A' for Active; 'I' for Inactive)
REMARK    1  A    between atoms: C2_2  and  C3_3 
REMARK    2  A    between atoms: C6_6  and  N3_21 
REMARK    3  A    between atoms: C8_8  and  S1_9 
REMARK    4  A    between atoms: S1_9  and  N1_12 
REMARK    5  A    between atoms: N2_15  and  C13_18 
ROOT
ATOM      1  S1  <0> d          -1.524  -0.101  -2.509  0.00  0.00     0.261 S 
ATOM      2  O1  <0> d          -0.271  -0.758  -2.383  0.00  0.00    -0.200 OA
ATOM      3  O2  <0> d          -2.332  -0.218  -3.673  0.00  0.00    -0.200 OA
ENDROOT
BRANCH   1   4
ATOM      4  C8  <0> d          -2.514  -0.636  -1.153  0.00  0.00     0.088 A 
ATOM      5  C3  <0> d          -3.156  -1.859  -1.208  0.00  0.00    -0.035 A 
ATOM      6  C4  <0> d          -3.929  -2.286  -0.143  0.00  0.00     0.011 A 
ATOM      7  C5  <0> d          -4.066  -1.489   0.975  0.00  0.00     0.029 A 
ATOM      8  C6  <0> d          -3.427  -0.256   1.031  0.00  0.00     0.027 A 
ATOM      9  C7  <0> d          -2.652   0.169  -0.040  0.00  0.00     0.054 A 
BRANCH   5  10
ATOM     10  C2  <0> d          -3.008  -2.732  -2.427  0.00  0.00     0.035 C 
ATOM     11  C1  <0> d          -1.746  -3.587  -2.293  0.00  0.00     0.010 C 
ENDBRANCH   5  10
BRANCH   8  12
ATOM     12  N3  <0> d          -3.565   0.553   2.161  0.00  0.00    -0.399 N 
ATOM     13  H22 <0> d          -4.107   0.255   2.908  0.00  0.00     0.156 HD
ATOM     14  H23 <0> d          -3.118   1.413   2.199  0.00  0.00     0.156 HD
ENDBRANCH   8  12
ENDBRANCH   1   4
BRANCH   1  15
ATOM     15  N1  <0> d          -1.234   1.516  -2.296  0.00  0.00    -0.303 N 
ATOM     16  C12 <0> d           0.001   1.983  -1.647  0.00  0.00     0.163 C 
ATOM     17  C11 <0> d           0.638   3.057  -2.542  0.00  0.00     0.256 C 
ATOM     18  N2  <0> d          -0.345   4.116  -2.807  0.00  0.00    -0.064 N 
ATOM     19  C10 <0> d          -1.468   3.573  -3.582  0.00  0.00     0.256 C 
ATOM     20  H24 <0> d          -0.688   4.481  -1.931  0.00  0.00     0.280 HD
ATOM     21  C9  <0> d          -2.207   2.525  -2.744  0.00  0.00     0.163 C 
BRANCH  18  22
ATOM     22  C13 <0> d           0.296   5.197  -3.567  0.00  0.00     0.188 A 
ATOM     23  C15 <0> d          -0.565   6.407  -3.936  0.00  0.00     0.035 A 
ATOM     24  C14 <0> d           0.508   6.533  -2.852  0.00  0.00     0.035 A 
ENDBRANCH  18  22
ENDBRANCH   1  15
TORSDOF 5
