REMARK  3 active torsions:
REMARK  status: ('A' for Active; 'I' for Inactive)
REMARK    1  A    between atoms: C5_5  and  N1_7 
REMARK       I    between atoms: N1_7  and  C7_8 
REMARK    2  A    between atoms: C7_8  and  C8_10 
REMARK    3  A    between atoms: C14_18  and  N3_20 
ROOT
ATOM      1  C8  <0> d           0.118  -4.237   0.188  0.00  0.00     0.060 A 
ATOM      2  C9  <0> d           1.227  -5.031   0.192  0.00  0.00     0.106 A 
ATOM      3  N2  <0> d           0.859  -6.332   0.301  0.00  0.00    -0.364 N 
ATOM      4  H1  <0> d           1.475  -7.081   0.325  0.00  0.00     0.165 HD
ATOM      5  C10 <0> d          -0.514  -6.439   0.373  0.00  0.00     0.045 A 
ATOM      6  C11 <0> d          -1.043  -5.139   0.313  0.00  0.00     0.008 A 
ATOM      7  C12 <0> d          -2.420  -4.939   0.371  0.00  0.00     0.017 A 
ATOM      8  C13 <0> d          -3.259  -6.011   0.490  0.00  0.00     0.030 A 
ATOM      9  C14 <0> d          -2.745  -7.304   0.554  0.00  0.00     0.027 A 
ATOM     10  C15 <0> d          -1.379  -7.521   0.489  0.00  0.00     0.059 A 
ENDROOT
BRANCH   1  11
ATOM     11  C7  <0> d           0.086  -2.772   0.087  0.00  0.00     0.258 C 
ATOM     12  N1  <0> d           1.237  -2.079  -0.022  0.00  0.00    -0.322 N 
ATOM     13  H6  <0> d           2.082  -2.550  -0.100  0.00  0.00     0.169 HD
ATOM     14  O1  <0> d          -0.979  -2.184   0.101  0.00  0.00    -0.267 OA
BRANCH  12  15
ATOM     15  C5  <0> d           1.214  -0.681  -0.024  0.00  0.00     0.051 A 
ATOM     16  C4  <0> d           2.249   0.034   0.566  0.00  0.00     0.033 A 
ATOM     17  C3  <0> d           2.223   1.415   0.562  0.00  0.00     0.020 A 
ATOM     18  I1  <0> d           3.849  -0.983   1.459  0.00  0.00    -0.042 I 
ATOM     19  C2  <0> d           1.168   2.086  -0.028  0.00  0.00     0.001 A 
ATOM     20  C1  <0> d           0.136   1.378  -0.615  0.00  0.00     0.002 A 
ATOM     21  C6  <0> d           0.156  -0.003  -0.615  0.00  0.00     0.031 A 
ENDBRANCH  12  15
ENDBRANCH   1  11
BRANCH   9  22
ATOM     22  N3  <0> d          -3.616  -8.392   0.677  0.00  0.00    -0.399 N 
ATOM     23  H11 <0> d          -4.574  -8.244   0.717  0.00  0.00     0.156 HD
ATOM     24  H12 <0> d          -3.262  -9.293   0.722  0.00  0.00     0.156 HD
ENDBRANCH   9  22
TORSDOF 3
