REMARK  3 active torsions:
REMARK  status: ('A' for Active; 'I' for Inactive)
REMARK    1  A    between atoms: N2_9  and  C8_12 
REMARK    2  A    between atoms: C8_12  and  C9_13 
REMARK    3  A    between atoms: C9_13  and  C11_15 
ROOT
ATOM      1  C1  <0> d          -0.018   1.503   0.010  0.00  0.00     0.056 C 
ATOM      2  C2  <0> d           0.002  -0.004   0.002  0.00  0.00    -0.018 A 
ATOM      3  C3  <0> d          -1.040  -0.851   0.002  0.00  0.00     0.034 A 
ATOM      4  C4  <0> d          -0.791  -2.280  -0.008  0.00  0.00     0.069 A 
ATOM      5  C5  <0> d           0.566  -2.648  -0.016  0.00  0.00     0.115 A 
ATOM      6  S1  <0> d           1.416  -1.090  -0.018  0.00  0.00    -0.074 SA
ATOM      7  N1  <0> d           0.950  -3.921  -0.026  0.00  0.00    -0.235 NA
ATOM      8  C6  <0> d           0.072  -4.888  -0.029  0.00  0.00     0.213 A 
ATOM      9  N2  <0> d          -1.260  -4.628  -0.021  0.00  0.00    -0.307 N 
ATOM     10  C7  <0> d          -1.727  -3.366  -0.010  0.00  0.00     0.261 A 
ATOM     11  O1  <0> d          -2.926  -3.149  -0.003  0.00  0.00    -0.267 OA
ENDROOT
BRANCH   9  12
ATOM     12  C8  <0> d          -2.209  -5.744  -0.024  0.00  0.00     0.144 C 
BRANCH  12  13
ATOM     13  C9  <0> d          -2.533  -6.142   1.417  0.00  0.00     0.061 C 
ATOM     14  C10 <0> d          -3.264  -4.992   2.112  0.00  0.00     0.019 C 
BRANCH  13  15
ATOM     15  C11 <0> d          -3.412  -7.367   1.415  0.00  0.00     0.076 C 
ATOM     16  S2  <0> d          -3.852  -8.032   0.029  0.00  0.00    -0.065 SA
ATOM     17  N3  <0> d          -3.826  -7.901   2.580  0.00  0.00    -0.393 N 
ATOM     18  H12 <0> d          -3.559  -7.498   3.421  0.00  0.00     0.156 HD
ATOM     19  H13 <0> d          -4.391  -8.690   2.579  0.00  0.00     0.156 HD
ENDBRANCH  13  15
ENDBRANCH  12  13
ENDBRANCH   9  12
TORSDOF 3
