REMARK  4 active torsions:
REMARK  status: ('A' for Active; 'I' for Inactive)
REMARK    1  A    between atoms: C2_2  and  N1_3 
REMARK    2  A    between atoms: N1_3  and  C3_4 
REMARK    3  A    between atoms: N1_3  and  S1_10 
REMARK    4  A    between atoms: S1_10  and  C8_13 
ROOT
ATOM      1  N1  <0> d           0.792  -0.452  -1.147  0.00  0.00    -0.302 N 
ENDROOT
BRANCH   1   2
ATOM      2  C2  <0> d          -0.025  -0.240   0.050  0.00  0.00     0.131 C 
ATOM      3  C1  <0> d          -0.404  -1.592   0.656  0.00  0.00     0.027 C 
ENDBRANCH   1   2
BRANCH   1   4
ATOM      4  C3  <0> d           2.245  -0.598  -1.026  0.00  0.00     0.099 C 
ATOM      5  C7  <0> d           2.852   0.720  -0.536  0.00  0.00     0.053 C 
ATOM      6  C6  <0> d           4.358   0.537  -0.335  0.00  0.00     0.234 C 
ATOM      7  N2  <0> d           4.599  -0.514   0.659  0.00  0.00    -0.075 N 
ATOM      8  C5  <0> d           4.083  -1.796   0.164  0.00  0.00     0.234 C 
ATOM      9  H11 <0> d           4.131  -0.275   1.521  0.00  0.00     0.277 HD
ATOM     10  H18 <0> d           5.590  -0.595   0.829  0.00  0.00     0.277 HD
ATOM     11  C4  <0> d           2.566  -1.704  -0.017  0.00  0.00     0.053 C 
ENDBRANCH   1   4
BRANCH   1  12
ATOM     12  S1  <0> d           0.074  -0.529  -2.638  0.00  0.00     0.267 S 
ATOM     13  O1  <0> d           0.952  -1.268  -3.475  0.00  0.00    -0.200 OA
ATOM     14  O2  <0> d          -1.276  -0.916  -2.419  0.00  0.00    -0.200 OA
BRANCH  12  15
ATOM     15  C8  <0> d           0.029   1.112  -3.279  0.00  0.00     0.121 A 
ATOM     16  S2  <0> d          -1.241   2.354  -3.100  0.00  0.00    -0.064 SA
ATOM     17  C11 <0> d          -0.459   3.652  -4.044  0.00  0.00     0.075 A 
ATOM     18  C10 <0> d           0.697   3.058  -4.433  0.00  0.00     0.033 A 
ATOM     19 Cl1  <0> d          -1.032   5.255  -4.382  0.00  0.00    -0.076 Cl
ATOM     20  C9  <0> d           0.946   1.756  -4.040  0.00  0.00     0.035 A 
ENDBRANCH  12  15
ENDBRANCH   1  12
TORSDOF 4
