REMARK  3 active torsions:
REMARK  status: ('A' for Active; 'I' for Inactive)
REMARK    1  A    between atoms: C3_3  and  C6_8 
REMARK    2  A    between atoms: C8_10  and  N4_28 
REMARK    3  A    between atoms: N3_11  and  C17_21 
ROOT
ATOM      1  C6  <0> d          -0.405  -4.209  -0.758  0.00  0.00     0.108 C 
ATOM      2  C7  <0> d          -1.308  -4.806   0.281  0.00  0.00     0.079 C 
ATOM      3  C8  <0> d          -2.270  -4.062   0.886  0.00  0.00     0.124 C 
ATOM      4  N3  <0> d          -2.426  -2.735   0.556  0.00  0.00    -0.299 N 
ATOM      5  C9  <0> d          -1.411  -2.046  -0.055  0.00  0.00     0.030 C 
ATOM      6  C10 <0> d          -0.418  -2.703  -0.690  0.00  0.00     0.025 C 
ATOM      7  C11 <0> d           0.637  -2.005  -1.304  0.00  0.00     0.159 C 
ATOM      8  O1  <0> d           1.509  -2.626  -1.877  0.00  0.00    -0.293 OA
ATOM      9  C12 <0> d           0.710  -0.502  -1.262  0.00  0.00     0.092 C 
ATOM     10  C13 <0> d           0.002  -0.004   0.002  0.00  0.00    -0.036 C 
ATOM     11  C14 <0> d          -1.432  -0.538   0.003  0.00  0.00     0.067 C 
ATOM     12  C15 <0> d          -0.019   1.526   0.010  0.00  0.00     0.015 C 
ATOM     13  C16 <0> d           0.741  -0.515   1.240  0.00  0.00     0.015 C 
ATOM     14  C23 <0> d          -1.153  -6.183   0.641  0.00  0.00     0.100 C 
ATOM     15  N5  <0> d          -1.030  -7.276   0.926  0.00  0.00    -0.191 NA
ENDROOT
BRANCH   1  16
ATOM     16  C3  <0> d          -0.868  -4.645  -2.124  0.00  0.00    -0.001 A 
ATOM     17  C2  <0> d          -0.141  -5.346  -3.025  0.00  0.00     0.035 A 
ATOM     18  C1  <0> d           1.274  -5.830  -2.841  0.00  0.00     0.070 C 
ATOM     19  N2  <0> d          -0.912  -5.537  -4.116  0.00  0.00    -0.278 N 
ATOM     20  N1  <0> d          -2.150  -4.926  -3.882  0.00  0.00    -0.185 NA
ATOM     21  C5  <0> d          -0.520  -6.253  -5.333  0.00  0.00     0.179 C 
ATOM     22  C4  <0> d          -2.123  -4.392  -2.688  0.00  0.00     0.149 A 
ENDBRANCH   1  16
BRANCH   3  23
ATOM     23  N4  <0> d          -3.089  -4.635   1.829  0.00  0.00    -0.384 N 
ATOM     24  H23 <0> d          -3.776  -4.104   2.261  0.00  0.00     0.157 HD
ATOM     25  H24 <0> d          -2.980  -5.570   2.062  0.00  0.00     0.157 HD
ENDBRANCH   3  23
BRANCH   4  26
ATOM     26  C17 <0> d          -3.631  -2.084   0.846  0.00  0.00     0.062 A 
ATOM     27  C22 <0> d          -3.800  -1.446   2.070  0.00  0.00     0.061 A 
ATOM     28  C21 <0> d          -4.990  -0.801   2.351  0.00  0.00     0.026 A 
ATOM     29 Cl1  <0> d          -2.518  -1.455   3.240  0.00  0.00    -0.082 Cl
ATOM     30  C20 <0> d          -6.013  -0.798   1.421  0.00  0.00     0.002 A 
ATOM     31  C19 <0> d          -5.849  -1.436   0.205  0.00  0.00     0.002 A 
ATOM     32  C18 <0> d          -4.661  -2.079  -0.085  0.00  0.00     0.032 A 
ENDBRANCH   4  26
TORSDOF 3
