REMARK  3 active torsions:
REMARK  status: ('A' for Active; 'I' for Inactive)
REMARK    1  A    between atoms: C3_3  and  N3_18 
REMARK    2  A    between atoms: C5_6  and  C6_7 
REMARK    3  A    between atoms: C6_7  and  N2_8 
ROOT
ATOM      1  C6  <0> d          -1.288  -0.783   0.011  0.00  0.00     0.313 C 
ENDROOT
BRANCH   1   2
ATOM      2  C5  <0> d           0.002  -0.004   0.002  0.00  0.00    -0.015 A 
ATOM      3  C1  <0> d          -0.017   1.384   0.010  0.00  0.00     0.014 A 
ATOM      4  C2  <0> d           1.190   2.061   0.002  0.00  0.00     0.048 A 
ATOM      5  C3  <0> d           2.374   1.332  -0.013  0.00  0.00     0.098 A 
ATOM      6  N1  <0> d           2.350   0.008  -0.020  0.00  0.00    -0.352 N 
ATOM      7  C4  <0> d           1.215  -0.664  -0.013  0.00  0.00     0.098 A 
ATOM      8  H22 <0> d           3.189  -0.480  -0.031  0.00  0.00     0.166 HD
BRANCH   5   9
ATOM      9  N3  <0> d           3.594   1.999  -0.022  0.00  0.00    -0.385 N 
ATOM     10  H20 <0> d           3.616   2.969  -0.017  0.00  0.00     0.157 HD
ATOM     11  H21 <0> d           4.422   1.495  -0.033  0.00  0.00     0.157 HD
ENDBRANCH   5   9
ENDBRANCH   1   2
BRANCH   1  12
ATOM     12  N2  <0> d          -1.721  -1.028  -1.371  0.00  0.00     0.102 N 
ATOM     13  C10 <0> d          -3.085  -1.573  -1.407  0.00  0.00     0.252 C 
ATOM     14  C9  <0> d          -3.517  -1.750  -2.865  0.00  0.00     0.154 C 
ATOM     15  C11 <0> d          -4.051  -0.617  -0.707  0.00  0.00     0.038 C 
ATOM     16  O1  <0> d          -2.590  -2.614  -3.526  0.00  0.00    -0.382 OA
ATOM     17  C14 <0> d          -4.920  -2.354  -2.904  0.00  0.00     0.034 C 
ATOM     18  C8  <0> d          -1.245  -2.125  -3.511  0.00  0.00     0.198 C 
ATOM     19  C7  <0> d          -0.788  -1.931  -2.064  0.00  0.00     0.299 C 
ATOM     20  C13 <0> d          -5.896  -1.407  -2.201  0.00  0.00     0.003 C 
ATOM     21  C12 <0> d          -5.463  -1.209  -0.747  0.00  0.00     0.002 C 
ENDBRANCH   1  12
TORSDOF 3
