REMARK  3 active torsions:
REMARK  status: ('A' for Active; 'I' for Inactive)
REMARK    1  A    between atoms: C4_5  and  C11_20 
REMARK    2  A    between atoms: C5_7  and  N1_10 
REMARK    3  A    between atoms: C11_20  and  O6_21 
ROOT
ATOM      1  C1  <0> d           0.332   1.651  -0.420  0.00  0.00     0.078 C 
ATOM      2  C2  <0> d           0.249   0.125  -0.360  0.00  0.00     0.158 C 
ATOM      3  O1  <0> d           1.040  -0.457  -1.441  0.00  0.00    -0.345 OA
ATOM      4  C3  <0> d           2.285  -0.670  -0.812  0.00  0.00     0.189 C 
ATOM      5  C4  <0> d           3.263  -1.764  -1.192  0.00  0.00     0.179 C 
ATOM      6  O2  <0> d           3.920  -2.074   0.072  0.00  0.00    -0.353 OA
ATOM      7  C5  <0> d           3.025  -1.732   1.166  0.00  0.00     0.264 C 
ATOM      8  C6  <0> d           1.735  -1.312   0.524  0.00  0.00     0.206 C 
ATOM      9  O3  <0> d           0.804  -0.351   0.902  0.00  0.00    -0.344 OA
ATOM     10  C12 <0> d          -1.209  -0.320  -0.485  0.00  0.00     0.078 C 
ENDROOT
BRANCH   7  11
ATOM     11  N1  <0> d           3.573  -0.614   1.938  0.00  0.00    -0.278 N 
ATOM     12  C10 <0> d           3.175  -0.424   3.209  0.00  0.00     0.331 A 
ATOM     13  N2  <0> d           3.665   0.592   3.944  0.00  0.00    -0.274 N 
ATOM     14  O5  <0> d           2.363  -1.183   3.703  0.00  0.00    -0.246 OA
ATOM     15  C9  <0> d           4.562   1.446   3.410  0.00  0.00     0.272 A 
ATOM     16  H5  <0> d           3.370   0.712   4.860  0.00  0.00     0.173 HD
ATOM     17  C8  <0> d           4.986   1.261   2.071  0.00  0.00     0.117 A 
ATOM     18  O4  <0> d           5.002   2.368   4.073  0.00  0.00    -0.266 OA
ATOM     19  C7  <0> d           4.481   0.231   1.359  0.00  0.00     0.128 A 
ATOM     20 Cl1  <0> d           6.139   2.344   1.356  0.00  0.00    -0.077 Cl
ENDBRANCH   7  11
BRANCH   5  21
ATOM     21  C11 <0> d           4.274  -1.252  -2.220  0.00  0.00     0.198 C 
BRANCH  21  22
ATOM     22  O6  <0> d           5.109  -2.331  -2.646  0.00  0.00    -0.398 OA
ATOM     23  H12 <0> d           5.775  -2.078  -3.299  0.00  0.00     0.209 HD
ENDBRANCH  21  22
ENDBRANCH   5  21
TORSDOF 3
