REMARK  3 active torsions:
REMARK  status: ('A' for Active; 'I' for Inactive)
REMARK    1  A    between atoms: O1_2  and  C2_3 
REMARK    2  A    between atoms: C5_6  and  N1_9 
REMARK    3  A    between atoms: C8_10  and  C9_14 
ROOT
ATOM      1  N1  <0> d          -4.875  -2.614   0.079  0.00  0.00    -0.193 N 
ATOM      2  C8  <0> d          -5.242  -3.705  -0.655  0.00  0.00     0.189 A 
ATOM      3  N2  <0> d          -6.514  -3.933  -0.389  0.00  0.00    -0.108 NA
ATOM      4  N3  <0> d          -6.960  -3.070   0.450  0.00  0.00    -0.022 NA
ATOM      5  N4  <0> d          -6.031  -2.242   0.786  0.00  0.00    -0.039 NA
ENDROOT
BRANCH   2   6
ATOM      6  C9  <0> d          -4.382  -4.480  -1.570  0.00  0.00     0.042 A 
ATOM      7  C12 <0> d          -4.717  -4.912  -2.938  0.00  0.00     0.012 A 
ATOM      8  C11 <0> d          -3.594  -5.612  -3.408  0.00  0.00     0.082 A 
ATOM      9  C13 <0> d          -5.837  -4.758  -3.753  0.00  0.00     0.057 A 
ATOM     10  N5  <0> d          -2.654  -5.611  -2.398  0.00  0.00    -0.362 N 
ATOM     11  C16 <0> d          -3.611  -6.145  -4.695  0.00  0.00     0.146 A 
ATOM     12  C10 <0> d          -3.129  -4.939  -1.313  0.00  0.00     0.104 A 
ATOM     13  H1  <0> d          -1.781  -6.030  -2.452  0.00  0.00     0.165 HD
ATOM     14  C15 <0> d          -4.729  -5.994  -5.489  0.00  0.00     0.086 A 
ATOM     15  F1  <0> d          -2.539  -6.825  -5.158  0.00  0.00    -0.204 F 
ATOM     16  C14 <0> d          -5.838  -5.298  -5.022  0.00  0.00     0.120 A 
ATOM     17  F2  <0> d          -6.921  -5.151  -5.816  0.00  0.00    -0.206 F 
ENDBRANCH   2   6
BRANCH   1  18
ATOM     18  C5  <0> d          -3.614  -2.001   0.123  0.00  0.00     0.062 A 
ATOM     19  C4  <0> d          -2.892  -1.813  -1.048  0.00  0.00     0.034 A 
ATOM     20  C3  <0> d          -1.652  -1.209  -1.005  0.00  0.00     0.039 A 
ATOM     21  C2  <0> d          -1.126  -0.790   0.209  0.00  0.00     0.068 A 
ATOM     22  C7  <0> d          -1.845  -0.982   1.380  0.00  0.00     0.039 A 
ATOM     23  C6  <0> d          -3.088  -1.582   1.337  0.00  0.00     0.034 A 
BRANCH  21  24
ATOM     24  O1  <0> d           0.095  -0.195   0.251  0.00  0.00    -0.356 OA
ATOM     25  C1  <0> d           0.779  -0.028  -0.993  0.00  0.00     0.210 C 
ENDBRANCH  21  24
ENDBRANCH   1  18
TORSDOF 3
