REMARK  10 active torsions:
REMARK  status: ('A' for Active; 'I' for Inactive)
REMARK    1  A    between atoms: C2_2  and  C3_3 
REMARK    2  A    between atoms: C3_3  and  C4_4 
REMARK    3  A    between atoms: C4_4  and  N1_5 
REMARK    4  A    between atoms: N1_5  and  C5_6 
REMARK       I    between atoms: N1_5  and  C12_19 
REMARK    5  A    between atoms: C6_7  and  N4_18 
REMARK    6  A    between atoms: N2_8  and  C9_15 
REMARK    7  A    between atoms: C9_15  and  C10_16 
REMARK    8  A    between atoms: C12_19  and  C13_21 
REMARK    9  A    between atoms: C13_21  and  N5_22 
REMARK   10  A    between atoms: C21_30  and  C23_32 
ROOT
ATOM      1  N1  <0> d           0.048  -2.816   2.371  0.00  0.00    -0.309 N 
ATOM      2  C12 <0> d          -0.061  -2.179   3.556  0.00  0.00     0.250 C 
ATOM      3  O3  <0> d          -0.075  -0.967   3.594  0.00  0.00    -0.271 OA
ENDROOT
BRANCH   1   4
ATOM      4  C4  <0> d           0.175  -4.275   2.333  0.00  0.00     0.132 C 
BRANCH   4   5
ATOM      5  C3  <0> d           1.645  -4.663   2.503  0.00  0.00     0.020 C 
BRANCH   5   6
ATOM      6  C2  <0> d           1.779  -6.186   2.463  0.00  0.00    -0.003 C 
ATOM      7  C1  <0> d           3.249  -6.574   2.634  0.00  0.00     0.005 C 
ENDBRANCH   5   6
ENDBRANCH   4   5
ENDBRANCH   1   4
BRANCH   1   8
ATOM      8  C5  <0> d           0.038  -2.077   1.170  0.00  0.00     0.150 A 
ATOM      9  C8  <0> d           1.092  -1.196   0.862  0.00  0.00     0.280 A 
ATOM     10  N3  <0> d           1.062  -0.500  -0.291  0.00  0.00    -0.273 N 
ATOM     11  O2  <0> d           2.026  -1.064   1.635  0.00  0.00    -0.265 OA
ATOM     12  C7  <0> d           0.039  -0.641  -1.153  0.00  0.00     0.331 A 
ATOM     13  H1  <0> d           1.886   0.190  -0.524  0.00  0.00     0.173 HD
ATOM     14  N2  <0> d          -0.987  -1.470  -0.887  0.00  0.00    -0.284 N 
ATOM     15  O1  <0> d           0.039  -0.004  -2.188  0.00  0.00    -0.246 OA
ATOM     16  C6  <0> d          -1.006  -2.204   0.276  0.00  0.00     0.138 A 
BRANCH  14  17
ATOM     17  C9  <0> d          -2.088  -1.595  -1.845  0.00  0.00     0.135 C 
BRANCH  17  18
ATOM     18  C10 <0> d          -3.173  -0.568  -1.514  0.00  0.00     0.016 C 
ATOM     19  C11 <0> d          -4.323  -0.700  -2.514  0.00  0.00     0.006 C 
ENDBRANCH  17  18
ENDBRANCH  14  17
BRANCH  16  20
ATOM     20  N4  <0> d          -2.051  -3.054   0.544  0.00  0.00    -0.383 N 
ATOM     21  H19 <0> d          -2.880  -3.151  -0.173  0.00  0.00     0.157 HD
ATOM     22  H20 <0> d          -2.060  -3.638   1.477  0.00  0.00     0.157 HD
ENDBRANCH  16  20
ENDBRANCH   1   8
BRANCH   2  23
ATOM     23  C13 <0> d          -0.165  -2.974   4.832  0.00  0.00     0.338 C 
BRANCH  23  24
ATOM     24  N5  <0> d          -0.272  -2.056   5.974  0.00  0.00    -0.058 N 
ATOM     25  C22 <0> d          -0.612  -2.785   7.206  0.00  0.00     0.249 C 
ATOM     26  C21 <0> d          -1.066  -1.773   8.259  0.00  0.00     0.078 C 
ATOM     27  C20 <0> d          -0.059  -0.657   8.368  0.00  0.00    -0.040 A 
ATOM     28  C15 <0> d           0.885  -0.435   7.388  0.00  0.00    -0.025 A 
ATOM     29  C19 <0> d          -0.095   0.159   9.489  0.00  0.00     0.008 A 
ATOM     30  C14 <0> d           0.971  -1.300   6.158  0.00  0.00     0.274 C 
ATOM     31  C16 <0> d           1.789   0.607   7.528  0.00  0.00     0.009 A 
ATOM     32  C17 <0> d           1.752   1.420   8.643  0.00  0.00     0.001 A 
ATOM     33  C18 <0> d           0.807   1.194   9.627  0.00  0.00     0.001 A 
ATOM     34  H36 <0> d          -1.080  -1.343   5.754  0.00  0.00     0.280 HD
BRANCH  26  35
ATOM     35  C23 <0> d          -1.196  -2.462   9.592  0.00  0.00    -0.048 A 
ATOM     36  C28 <0> d          -2.416  -2.486  10.242  0.00  0.00     0.008 A 
ATOM     37  C27 <0> d          -2.536  -3.119  11.465  0.00  0.00     0.001 A 
ATOM     38  C26 <0> d          -1.435  -3.728  12.039  0.00  0.00     0.000 A 
ATOM     39  C25 <0> d          -0.215  -3.704  11.389  0.00  0.00     0.001 A 
ATOM     40  C24 <0> d          -0.097  -3.076  10.163  0.00  0.00     0.008 A 
ENDBRANCH  26  35
ENDBRANCH  23  24
ENDBRANCH   2  23
TORSDOF 10
