REMARK  4 active torsions:
REMARK  status: ('A' for Active; 'I' for Inactive)
REMARK    1  A    between atoms: C5_5  and  N1_8 
REMARK    2  A    between atoms: C10_12  and  C21_28 
REMARK    3  A    between atoms: C21_28  and  C22_29 
REMARK    4  A    between atoms: C25_32  and  O4_35 
ROOT
ATOM      1  N1  <0> d           0.059  -4.172  -0.021  0.00  0.00    -0.252 N 
ATOM      2  C8  <0> d          -0.030  -4.891  -1.146  0.00  0.00     0.238 A 
ATOM      3  O1  <0> d          -0.139  -4.433  -2.263  0.00  0.00    -0.272 OA
ATOM      4  C9  <0> d           0.026  -6.363  -0.808  0.00  0.00     0.129 A 
ATOM      5  C10 <0> d          -1.340  -7.011  -1.115  0.00  0.00     0.240 C 
ATOM      6  N2  <0> d          -2.145  -6.809   0.119  0.00  0.00     0.114 N 
ATOM      7  C11 <0> d          -1.180  -7.007   1.216  0.00  0.00     0.279 A 
ATOM      8  C12 <0> d           0.150  -6.371   0.742  0.00  0.00     0.147 A 
ATOM      9  C13 <0> d           0.172  -4.901   1.096  0.00  0.00     0.239 A 
ATOM     10  O2  <0> d           0.274  -4.452   2.217  0.00  0.00    -0.272 OA
ATOM     11  C14 <0> d          -1.666  -6.386   2.495  0.00  0.00     0.020 A 
ATOM     12  C15 <0> d          -2.007  -5.101   2.854  0.00  0.00     0.054 A 
ATOM     13  C16 <0> d          -2.432  -4.833   4.145  0.00  0.00     0.117 A 
ATOM     14  C17 <0> d          -2.513  -5.860   5.071  0.00  0.00     0.044 A 
ATOM     15  C18 <0> d          -2.171  -7.147   4.713  0.00  0.00     0.033 A 
ATOM     16  C19 <0> d          -1.742  -7.425   3.417  0.00  0.00     0.044 A 
ATOM     17  N3  <0> d          -1.346  -8.627   2.825  0.00  0.00    -0.324 N 
ATOM     18  C20 <0> d          -1.001  -8.467   1.533  0.00  0.00     0.267 A 
ATOM     19  O3  <0> d          -0.619  -9.331   0.772  0.00  0.00    -0.270 OA
ATOM     20  F1  <0> d          -2.768  -3.573   4.500  0.00  0.00    -0.206 F 
ATOM     21  H11 <0> d          -2.538  -5.880   0.146  0.00  0.00     0.318 HD
ATOM     22  H15 <0> d          -1.323  -9.478   3.290  0.00  0.00     0.169 HD
ENDROOT
BRANCH   5  23
ATOM     23  C21 <0> d          -2.003  -6.315  -2.306  0.00  0.00     0.075 C 
BRANCH  23  24
ATOM     24  C22 <0> d          -3.275  -7.039  -2.666  0.00  0.00    -0.056 A 
ATOM     25  C27 <0> d          -4.470  -6.668  -2.079  0.00  0.00     0.010 A 
ATOM     26  C26 <0> d          -5.638  -7.326  -2.412  0.00  0.00     0.037 A 
ATOM     27  C25 <0> d          -5.609  -8.367  -3.328  0.00  0.00     0.065 A 
ATOM     28  C24 <0> d          -4.408  -8.742  -3.911  0.00  0.00     0.037 A 
ATOM     29  C23 <0> d          -3.243  -8.077  -3.579  0.00  0.00     0.010 A 
BRANCH  27  30
ATOM     30  O4  <0> d          -6.756  -9.019  -3.653  0.00  0.00    -0.361 OA
ATOM     31  H22 <0> d          -6.949  -9.782  -3.091  0.00  0.00     0.217 HD
ENDBRANCH  27  30
ENDBRANCH  23  24
ENDBRANCH   5  23
BRANCH   1  32
ATOM     32  C5  <0> d           0.040  -2.771  -0.013  0.00  0.00     0.045 A 
ATOM     33  C4  <0> d          -1.115  -2.088  -0.369  0.00  0.00     0.031 A 
ATOM     34  C3  <0> d          -1.131  -0.707  -0.360  0.00  0.00     0.009 A 
ATOM     35  C2  <0> d           0.003  -0.004   0.003  0.00  0.00    -0.062 A 
ATOM     36  C1  <0> d          -0.017   1.503   0.012  0.00  0.00     0.048 C 
ATOM     37  C7  <0> d           1.157  -0.681   0.353  0.00  0.00     0.009 A 
ATOM     38  C6  <0> d           1.177  -2.062   0.351  0.00  0.00     0.031 A 
ENDBRANCH   1  32
TORSDOF 4
