REMARK  8 active torsions:
REMARK  status: ('A' for Active; 'I' for Inactive)
REMARK    1  A    between atoms: C10_10  and  N1_11 
REMARK       I    between atoms: N1_11  and  C11_12 
REMARK    2  A    between atoms: C11_12  and  C12_14 
REMARK    3  A    between atoms: C12_14  and  O2_15 
REMARK    4  A    between atoms: O2_15  and  N2_16 
REMARK    5  A    between atoms: C13_17  and  C14_18 
REMARK    6  A    between atoms: C13_17  and  N4_31 
REMARK    7  A    between atoms: C18_22  and  C20_24 
REMARK    8  A    between atoms: C20_24  and  N3_25 
ROOT
ATOM      1  N2  <0> d           7.872   3.587  -1.547  0.00  0.00    -0.115 NA
ATOM      2  C13 <0> d           8.364   4.709  -1.108  0.00  0.00     0.158 C 
ENDROOT
BRANCH   2   3
ATOM      3  C14 <0> d           8.061   5.161   0.268  0.00  0.00     0.012 A 
ATOM      4  C19 <0> d           8.086   6.520   0.580  0.00  0.00     0.024 A 
ATOM      5  C18 <0> d           7.796   6.936   1.863  0.00  0.00    -0.032 A 
ATOM      6  C17 <0> d           7.494   6.008   2.843  0.00  0.00     0.009 A 
ATOM      7  C16 <0> d           7.473   4.658   2.541  0.00  0.00     0.002 A 
ATOM      8  C15 <0> d           7.754   4.230   1.260  0.00  0.00     0.015 A 
BRANCH   5   9
ATOM      9  C20 <0> d           7.816   8.405   2.200  0.00  0.00     0.273 C 
BRANCH   9  10
ATOM     10  N3  <0> d           9.166   8.789   2.636  0.00  0.00    -0.067 N 
ATOM     11  C25 <0> d           9.215  10.241   2.849  0.00  0.00     0.235 C 
ATOM     12  C24 <0> d          10.639  10.657   3.225  0.00  0.00     0.028 C 
ATOM     13  C23 <0> d          11.052   9.936   4.512  0.00  0.00     0.003 C 
ATOM     14  C22 <0> d          10.926   8.425   4.302  0.00  0.00     0.028 C 
ATOM     15  C21 <0> d           9.492   8.091   3.886  0.00  0.00     0.235 C 
ATOM     16  H33 <0> d           9.834   8.532   1.926  0.00  0.00     0.280 HD
ENDBRANCH   9  10
ENDBRANCH   5   9
ENDBRANCH   2   3
BRANCH   2  17
ATOM     17  N4  <0> d           9.170   5.479  -1.929  0.00  0.00    -0.382 N 
ATOM     18  H31 <0> d           9.369   5.183  -2.831  0.00  0.00     0.157 HD
ATOM     19  H32 <0> d           9.537   6.316  -1.602  0.00  0.00     0.157 HD
ENDBRANCH   2  17
BRANCH   1  20
ATOM     20  O2  <0> d           6.935   2.871  -0.765  0.00  0.00    -0.245 OA
BRANCH  20  21
ATOM     21  C12 <0> d           6.479   1.658  -1.369  0.00  0.00     0.306 C 
BRANCH  21  22
ATOM     22  C11 <0> d           5.491   0.982  -0.454  0.00  0.00     0.244 C 
ATOM     23  N1  <0> d           4.926  -0.186  -0.818  0.00  0.00    -0.350 N 
ATOM     24  H12 <0> d           5.154  -0.591  -1.670  0.00  0.00     0.163 HD
ATOM     25  O1  <0> d           5.205   1.488   0.611  0.00  0.00    -0.271 OA
BRANCH  23  26
ATOM     26  C10 <0> d           3.965  -0.844   0.071  0.00  0.00     0.118 C 
ATOM     27  C4  <0> d           2.593  -0.268  -0.167  0.00  0.00    -0.029 A 
ATOM     28  C3  <0> d           2.489   1.107  -0.333  0.00  0.00     0.010 A 
ATOM     29  C5  <0> d           1.461  -1.049  -0.219  0.00  0.00    -0.050 A 
ATOM     30  C2  <0> d           1.260   1.696  -0.547  0.00  0.00     0.001 A 
ATOM     31  C1  <0> d           0.122   0.913  -0.595  0.00  0.00     0.001 A 
ATOM     32  C6  <0> d           0.224  -0.453  -0.431  0.00  0.00     0.007 A 
ATOM     33  C7  <0> d           1.501  -2.546  -0.064  0.00  0.00     0.039 C 
ATOM     34  C8  <0> d           2.816  -2.985   0.576  0.00  0.00     0.007 C 
ATOM     35  C9  <0> d           3.971  -2.346  -0.204  0.00  0.00     0.030 C 
ENDBRANCH  23  26
ENDBRANCH  21  22
ENDBRANCH  20  21
ENDBRANCH   1  20
TORSDOF 8
