REMARK  0 active torsions:
REMARK  status: ('A' for Active; 'I' for Inactive)
ROOT
ATOM      1  C1  <0> d          -0.017   1.379   0.010  0.00  0.00     0.002 A 
ATOM      2  C2  <0> d           1.167   2.094   0.002  0.00  0.00     0.002 A 
ATOM      3  C3  <0> d           2.380   1.430  -0.015  0.00  0.00     0.031 A 
ATOM      4  C4  <0> d           2.406   0.047  -0.024  0.00  0.00     0.056 A 
ATOM      5  C5  <0> d           1.212  -0.678  -0.015  0.00  0.00     0.061 A 
ATOM      6  C6  <0> d           0.002  -0.004   0.002  0.00  0.00     0.032 A 
ATOM      7  N1  <0> d           1.253  -2.077  -0.028  0.00  0.00    -0.323 N 
ATOM      8  C7  <0> d           2.401  -2.735   0.225  0.00  0.00     0.250 C 
ATOM      9  O1  <0> d           2.424  -3.946   0.163  0.00  0.00    -0.270 OA
ATOM     10  C8  <0> d           3.656  -1.983   0.583  0.00  0.00     0.116 C 
ATOM     11  N2  <0> d           3.620  -0.654  -0.041  0.00  0.00    -0.370 N 
ATOM     12  C9  <0> d           3.748  -1.828   2.103  0.00  0.00     0.067 C 
ATOM     13  C10 <0> d           5.063  -1.130   2.459  0.00  0.00     0.170 C 
ATOM     14  O2  <0> d           6.157  -1.886   1.937  0.00  0.00    -0.391 OA
ATOM     15  C11 <0> d           6.150  -2.016   0.514  0.00  0.00     0.170 C 
ATOM     16  C12 <0> d           4.880  -2.751   0.077  0.00  0.00     0.067 C 
ATOM     17  H5  <0> d           0.445  -2.579  -0.220  0.00  0.00     0.169 HD
ATOM     18  H6  <0> d           4.411  -0.273  -0.453  0.00  0.00     0.161 HD
ENDROOT
TORSDOF 0
