REMARK  3 active torsions:
REMARK  status: ('A' for Active; 'I' for Inactive)
REMARK    1  A    between atoms: C8_9  and  C9_11 
REMARK       I    between atoms: C9_11  and  N1_13 
REMARK    2  A    between atoms: N1_13  and  C10_14 
REMARK    3  A    between atoms: C10_14  and  C11_15 
ROOT
ATOM      1  C9  <0> d           4.898  -2.639  -0.050  0.00  0.00     0.249 C 
ATOM      2  O3  <0> d           5.739  -2.006   0.552  0.00  0.00    -0.271 OA
ATOM      3  N1  <0> d           5.136  -3.921  -0.391  0.00  0.00    -0.356 N 
ATOM      4  H9  <0> d           4.464  -4.428  -0.873  0.00  0.00     0.162 HD
ENDROOT
BRANCH   1   5
ATOM      5  C8  <0> d           3.587  -1.993  -0.416  0.00  0.00     0.244 C 
ATOM      6  C7  <0> d           2.441  -2.689   0.331  0.00  0.00     0.218 C 
ATOM      7  O1  <0> d           1.214  -2.043  -0.029  0.00  0.00    -0.345 OA
ATOM      8  C5  <0> d           1.212  -0.683  -0.014  0.00  0.00     0.102 A 
ATOM      9  C4  <0> d           2.404   0.031  -0.019  0.00  0.00     0.103 A 
ATOM     10  C6  <0> d           0.002  -0.004   0.002  0.00  0.00     0.039 A 
ATOM     11  C3  <0> d           2.378   1.418  -0.012  0.00  0.00     0.040 A 
ATOM     12  O2  <0> d           3.602  -0.615  -0.029  0.00  0.00    -0.331 OA
ATOM     13  C2  <0> d           1.170   2.088   0.002  0.00  0.00     0.003 A 
ATOM     14  C1  <0> d          -0.017   1.378   0.010  0.00  0.00     0.003 A 
ENDBRANCH   1   5
BRANCH   3  15
ATOM     15  C10 <0> d           6.411  -4.550  -0.035  0.00  0.00     0.156 C 
BRANCH  15  16
ATOM     16  C11 <0> d           6.424  -5.995  -0.536  0.00  0.00     0.179 A 
ATOM     17  N3  <0> d           6.237  -6.044  -1.996  0.00  0.00    -0.181 NA
ATOM     18  N2  <0> d           7.250  -6.557  -2.483  0.00  0.00    -0.159 NA
ATOM     19  C13 <0> d           8.201  -6.918  -1.579  0.00  0.00     0.061 A 
ATOM     20  C12 <0> d           7.793  -6.616  -0.348  0.00  0.00    -0.026 A 
ATOM     21  C14 <0> d           9.578  -7.556  -1.523  0.00  0.00     0.062 C 
ATOM     22  C16 <0> d           8.824  -7.000   0.682  0.00  0.00     0.039 C 
ATOM     23  C15 <0> d          10.127  -7.205  -0.124  0.00  0.00     0.011 C 
ENDBRANCH  15  16
ENDBRANCH   3  15
TORSDOF 3
