REMARK  4 active torsions:
REMARK  status: ('A' for Active; 'I' for Inactive)
REMARK    1  A    between atoms: C4_4  and  N1_7 
REMARK       I    between atoms: N1_7  and  C7_8 
REMARK    2  A    between atoms: C7_8  and  C8_10 
REMARK       I    between atoms: C8_10  and  N2_12 
REMARK    3  A    between atoms: N2_12  and  N3_13 
REMARK    4  A    between atoms: C12_17  and  N5_24 
ROOT
ATOM      1  N3  <0> d           6.195  -4.731   0.337  0.00  0.00    -0.165 NA
ATOM      2  C9  <0> d           6.218  -6.039   0.429  0.00  0.00     0.157 A 
ATOM      3  C10 <0> d           7.407  -6.915   0.538  0.00  0.00     0.029 A 
ATOM      4  C11 <0> d           8.774  -6.665   0.574  0.00  0.00     0.052 A 
ATOM      5  C12 <0> d           9.661  -7.717   0.683  0.00  0.00     0.103 A 
ATOM      6  C13 <0> d           9.189  -9.017   0.755  0.00  0.00     0.038 A 
ATOM      7  C14 <0> d           7.833  -9.276   0.720  0.00  0.00     0.033 A 
ATOM      8  C15 <0> d           6.925  -8.229   0.610  0.00  0.00     0.048 A 
ATOM      9  N4  <0> d           5.536  -8.213   0.554  0.00  0.00    -0.321 N 
ATOM     10  C16 <0> d           5.062  -6.960   0.453  0.00  0.00     0.277 A 
ATOM     11  O3  <0> d           3.890  -6.640   0.390  0.00  0.00    -0.266 OA
ATOM     12  H11 <0> d           4.979  -9.007   0.587  0.00  0.00     0.169 HD
ENDROOT
BRANCH   1  13
ATOM     13  N2  <0> d           4.970  -4.056   0.248  0.00  0.00    -0.238 N 
ATOM     14  C8  <0> d           4.947  -2.712   0.153  0.00  0.00     0.329 C 
ATOM     15  O2  <0> d           5.987  -2.086   0.146  0.00  0.00    -0.261 OA
ATOM     16  H7  <0> d           4.139  -4.557   0.253  0.00  0.00     0.192 HD
BRANCH  14  17
ATOM     17  C7  <0> d           3.643  -1.994   0.058  0.00  0.00     0.315 C 
ATOM     18  N1  <0> d           3.620  -0.649  -0.036  0.00  0.00    -0.319 N 
ATOM     19  H6  <0> d           4.450  -0.154  -0.119  0.00  0.00     0.169 HD
ATOM     20  O1  <0> d           2.603  -2.619   0.065  0.00  0.00    -0.262 OA
BRANCH  18  21
ATOM     21  C4  <0> d           2.400   0.032  -0.015  0.00  0.00     0.035 A 
ATOM     22  C3  <0> d           1.344  -0.457   0.744  0.00  0.00     0.029 A 
ATOM     23  C2  <0> d           0.140   0.219   0.763  0.00  0.00     0.002 A 
ATOM     24  C1  <0> d          -0.015   1.380   0.029  0.00  0.00     0.000 A 
ATOM     25  C6  <0> d           1.034   1.869  -0.728  0.00  0.00     0.002 A 
ATOM     26  C5  <0> d           2.241   1.198  -0.752  0.00  0.00     0.029 A 
ENDBRANCH  18  21
ENDBRANCH  14  17
ENDBRANCH   1  13
BRANCH   5  27
ATOM     27  N5  <0> d          11.117  -7.456   0.723  0.00  0.00    -0.116 N 
ATOM     28  O4  <0> d          11.530  -6.322   0.659  0.00  0.00    -0.532 OA
ATOM     29  O5  <0> d          11.894  -8.378   0.818  0.00  0.00    -0.532 OA
ENDBRANCH   5  27
TORSDOF 4
