REMARK  7 active torsions:
REMARK  status: ('A' for Active; 'I' for Inactive)
REMARK    1  A    between atoms: C2_2  and  C4_4 
REMARK    2  A    between atoms: C5_7  and  N3_9 
REMARK       I    between atoms: N3_9  and  C6_10 
REMARK    3  A    between atoms: C6_10  and  C7_12 
REMARK    4  A    between atoms: N4_16  and  C11_18 
REMARK    5  A    between atoms: C11_18  and  C12_19 
REMARK    6  A    between atoms: C12_19  and  C13_20 
REMARK    7  A    between atoms: C16_23  and  O3_29 
ROOT
ATOM      1  C7  <0> d          -5.854  -3.335  -3.665  0.00  0.00     0.104 C 
ATOM      2  C8  <0> d          -6.921  -3.118  -2.567  0.00  0.00     0.118 C 
ATOM      3  C9  <0> d          -8.024  -4.090  -2.923  0.00  0.00     0.220 C 
ATOM      4  O2  <0> d          -9.155  -4.047  -2.488  0.00  0.00    -0.273 OA
ATOM      5  N4  <0> d          -7.568  -5.008  -3.793  0.00  0.00    -0.351 N 
ATOM      6  C10 <0> d          -6.152  -4.784  -4.112  0.00  0.00     0.140 C 
ENDROOT
BRANCH   1   7
ATOM      7  C6  <0> d          -4.463  -3.223  -3.095  0.00  0.00     0.225 C 
ATOM      8  N3  <0> d          -4.035  -2.049  -2.590  0.00  0.00    -0.334 N 
ATOM      9  H13 <0> d          -4.622  -1.276  -2.593  0.00  0.00     0.165 HD
ATOM     10  O1  <0> d          -3.730  -4.188  -3.091  0.00  0.00    -0.273 OA
BRANCH   8  11
ATOM     11  C5  <0> d          -2.683  -1.939  -2.037  0.00  0.00     0.237 C 
ATOM     12  N2  <0> d          -2.596  -2.565  -0.680  0.00  0.00    -0.228 NA
ATOM     13  N1  <0> d          -1.454  -2.023   0.047  0.00  0.00    -0.244 NA
ATOM     14  H12 <0> d          -2.536  -3.570  -0.749  0.00  0.00     0.143 HD
ATOM     15  C4  <0> d          -1.433  -0.534   0.013  0.00  0.00     0.139 C 
ATOM     16  H11 <0> d          -1.435  -2.363   0.996  0.00  0.00     0.142 HD
ATOM     17  S1  <0> d          -2.276  -0.194  -1.590  0.00  0.00    -0.106 SA
BRANCH  15  18
ATOM     18  C2  <0> d           0.002  -0.004   0.002  0.00  0.00     0.006 C 
ATOM     19  C1  <0> d          -0.019   1.526   0.010  0.00  0.00     0.012 C 
ATOM     20  C3  <0> d           0.742  -0.511   1.242  0.00  0.00     0.012 C 
ENDBRANCH  15  18
ENDBRANCH   8  11
ENDBRANCH   1   7
BRANCH   5  21
ATOM     21  C11 <0> d          -8.379  -6.092  -4.351  0.00  0.00     0.130 C 
BRANCH  21  22
ATOM     22  C12 <0> d          -9.043  -5.618  -5.646  0.00  0.00     0.056 C 
BRANCH  22  23
ATOM     23  C13 <0> d          -9.878  -6.734  -6.220  0.00  0.00    -0.048 A 
ATOM     24  C20 <0> d          -9.403  -7.856  -7.116  0.00  0.00     0.155 A 
ATOM     25  N5  <0> d         -10.587  -8.676  -7.396  0.00  0.00    -0.385 N 
ATOM     26  C19 <0> d         -11.616  -8.145  -6.785  0.00  0.00     0.039 A 
ATOM     27  H30 <0> d         -10.605  -9.476  -7.944  0.00  0.00     0.160 HD
ATOM     28  C14 <0> d         -11.204  -6.931  -6.043  0.00  0.00    -0.003 A 
ATOM     29  C18 <0> d         -13.028  -8.537  -6.721  0.00  0.00     0.033 A 
ATOM     30  C15 <0> d         -12.228  -6.197  -5.292  0.00  0.00     0.050 A 
ATOM     31  C16 <0> d         -13.507  -6.642  -5.298  0.00  0.00     0.069 A 
ATOM     32  C17 <0> d         -13.897  -7.795  -6.002  0.00  0.00     0.039 A 
BRANCH  31  33
ATOM     33  O3  <0> d         -14.445  -5.952  -4.597  0.00  0.00    -0.356 OA
ATOM     34  C21 <0> d         -15.782  -6.458  -4.630  0.00  0.00     0.210 C 
ENDBRANCH  31  33
ENDBRANCH  22  23
ENDBRANCH  21  22
ENDBRANCH   5  21
TORSDOF 7
