REMARK  5 active torsions:
REMARK  status: ('A' for Active; 'I' for Inactive)
REMARK    1  A    between atoms: C5_5  and  C6_7 
REMARK    2  A    between atoms: C7_8  and  S2_13 
REMARK    3  A    between atoms: S2_13  and  N2_16 
REMARK    4  A    between atoms: N2_16  and  C10_17 
REMARK    5  A    between atoms: C10_17  and  C11_18 
ROOT
ATOM      1  C6  <0> d           1.043  -4.062  -0.027  0.00  0.00     0.148 C 
ATOM      2  C7  <0> d           1.495  -4.452  -1.450  0.00  0.00     0.179 C 
ATOM      3  C8  <0> d           3.000  -4.767  -1.302  0.00  0.00     0.217 C 
ATOM      4  O1  <0> d           3.151  -5.102   0.097  0.00  0.00    -0.302 OA
ATOM      5  N1  <0> d           2.265  -4.154   0.807  0.00  0.00    -0.190 NA
ATOM      6  C9  <0> d           1.946  -4.638   2.156  0.00  0.00     0.144 C 
ENDROOT
BRANCH   2   7
ATOM      7  S2  <0> d           1.243  -3.070  -2.596  0.00  0.00     0.234 S 
ATOM      8  O2  <0> d          -0.146  -2.829  -2.776  0.00  0.00    -0.205 OA
ATOM      9  O3  <0> d           2.128  -2.004  -2.280  0.00  0.00    -0.205 OA
BRANCH   7  10
ATOM     10  N2  <0> d           1.767  -3.632  -4.063  0.00  0.00    -0.317 N 
ATOM     11  H14 <0> d           2.541  -3.231  -4.489  0.00  0.00     0.172 HD
BRANCH  10  12
ATOM     12  C10 <0> d           1.062  -4.737  -4.718  0.00  0.00     0.163 C 
BRANCH  12  13
ATOM     13  C11 <0> d           1.490  -4.817  -6.185  0.00  0.00     0.140 C 
ATOM     14  O4  <0> d           2.870  -5.193  -6.268  0.00  0.00    -0.384 OA
ATOM     15  C14 <0> d           2.992  -6.451  -6.955  0.00  0.00     0.168 C 
ATOM     16  C13 <0> d           1.724  -6.554  -7.840  0.00  0.00     0.029 C 
ATOM     17  C12 <0> d           0.664  -5.899  -6.913  0.00  0.00     0.035 C 
ENDBRANCH  12  13
ENDBRANCH  10  12
ENDBRANCH   7  10
ENDBRANCH   2   7
BRANCH   1  18
ATOM     18  C5  <0> d           0.507  -2.653  -0.016  0.00  0.00     0.004 A 
ATOM     19  C4  <0> d          -0.780  -2.230  -0.007  0.00  0.00     0.017 A 
ATOM     20  C3  <0> d          -1.039  -0.872   0.002  0.00  0.00     0.015 A 
ATOM     21  C2  <0> d           0.002  -0.004   0.002  0.00  0.00    -0.021 A 
ATOM     22  C1  <0> d          -0.018   1.503   0.010  0.00  0.00     0.056 C 
ATOM     23  S1  <0> d           1.404  -1.109  -0.018  0.00  0.00    -0.098 SA
ENDBRANCH   1  18
TORSDOF 5
