REMARK  4 active torsions:
REMARK  status: ('A' for Active; 'I' for Inactive)
REMARK    1  A    between atoms: C3_3  and  C6_8 
REMARK       I    between atoms: C6_8  and  N2_10 
REMARK    2  A    between atoms: C8_12  and  C15_20 
REMARK       I    between atoms: C15_20  and  N4_22 
REMARK    3  A    between atoms: N4_22  and  C16_23 
REMARK    4  A    between atoms: C16_23  and  C18_25 
ROOT
ATOM      1  C6  <0> d          -0.243  -0.769  -2.565  0.00  0.00     0.258 C 
ATOM      2  O2  <0> d           0.747  -0.691  -3.266  0.00  0.00    -0.267 OA
ATOM      3  N2  <0> d          -1.464  -0.562  -3.098  0.00  0.00    -0.346 N 
ATOM      4  C7  <0> d          -2.775  -0.606  -2.409  0.00  0.00     0.141 C 
ATOM      5  C8  <0> d          -3.581   0.558  -3.026  0.00  0.00     0.106 C 
ATOM      6  C9  <0> d          -2.936   0.795  -4.402  0.00  0.00    -0.007 C 
ATOM      7  C10 <0> d          -1.797  -0.230  -4.504  0.00  0.00     0.136 C 
ATOM      8  C11 <0> d          -2.372   2.211  -4.485  0.00  0.00     0.039 C 
ATOM      9  C12 <0> d          -1.787   2.441  -5.882  0.00  0.00     0.233 C 
ATOM     10  N3  <0> d          -2.836   2.251  -6.891  0.00  0.00    -0.075 N 
ATOM     11  C13 <0> d          -3.308   0.861  -6.867  0.00  0.00     0.233 C 
ATOM     12  C14 <0> d          -3.957   0.564  -5.512  0.00  0.00     0.039 C 
ATOM     13  H18 <0> d          -3.608   2.870  -6.693  0.00  0.00     0.277 HD
ATOM     14  H33 <0> d          -2.464   2.462  -7.805  0.00  0.00     0.277 HD
ENDROOT
BRANCH   5  15
ATOM     15  C15 <0> d          -3.461   1.792  -2.169  0.00  0.00     0.224 C 
ATOM     16  O3  <0> d          -2.497   1.938  -1.448  0.00  0.00    -0.273 OA
ATOM     17  N4  <0> d          -4.425   2.733  -2.204  0.00  0.00    -0.353 N 
ATOM     18  H23 <0> d          -5.196   2.616  -2.781  0.00  0.00     0.163 HD
BRANCH  17  19
ATOM     19  C16 <0> d          -4.309   3.932  -1.371  0.00  0.00     0.113 C 
ATOM     20  C17 <0> d          -4.853   3.636   0.028  0.00  0.00     0.037 C 
BRANCH  19  21
ATOM     21  C18 <0> d          -5.101   5.054  -1.991  0.00  0.00    -0.006 A 
ATOM     22  C20 <0> d          -6.555   5.042  -2.428  0.00  0.00     0.160 A 
ATOM     23  N6  <0> d          -6.756   6.405  -2.947  0.00  0.00    -0.183 NA
ATOM     24  C21 <0> d          -7.477   4.778  -1.236  0.00  0.00     0.041 C 
ATOM     25  N5  <0> d          -5.688   7.012  -2.835  0.00  0.00    -0.159 NA
ATOM     26  C19 <0> d          -4.686   6.287  -2.288  0.00  0.00     0.059 A 
ATOM     27  C22 <0> d          -3.291   6.802  -2.048  0.00  0.00     0.072 C 
ENDBRANCH  19  21
ENDBRANCH  17  19
ENDBRANCH   5  15
BRANCH   1  28
ATOM     28  C3  <0> d          -0.109  -1.092  -1.133  0.00  0.00     0.089 A 
ATOM     29  C2  <0> d           0.056  -0.137  -0.036  0.00  0.00     0.076 A 
ATOM     30  C1  <0> d           0.123   1.363  -0.157  0.00  0.00     0.074 C 
ATOM     31  N1  <0> d           0.141  -0.828   1.063  0.00  0.00    -0.132 NA
ATOM     32  O1  <0> d           0.030  -2.201   0.745  0.00  0.00    -0.217 OA
ATOM     33  C4  <0> d          -0.116  -2.338  -0.575  0.00  0.00     0.092 A 
ATOM     34  C5  <0> d          -0.263  -3.640  -1.319  0.00  0.00     0.080 C 
ENDBRANCH   1  28
TORSDOF 4
