REMARK  0 active torsions:
REMARK  status: ('A' for Active; 'I' for Inactive)
ROOT
ATOM      1  C1  <0> d           3.386   0.678  -3.780  0.00  0.00     0.043 A 
ATOM      2  C2  <0> d           3.652   1.593  -2.811  0.00  0.00     0.017 A 
ATOM      3  C3  <0> d           3.517   1.236  -1.455  0.00  0.00    -0.001 A 
ATOM      4  C4  <0> d           3.715   1.943  -0.267  0.00  0.00    -0.011 A 
ATOM      5  C5  <0> d           3.392   0.967   0.843  0.00  0.00     0.160 A 
ATOM      6  N1  <0> d           3.015  -0.287   0.185  0.00  0.00    -0.385 N 
ATOM      7  C6  <0> d           3.085  -0.136  -1.116  0.00  0.00     0.042 A 
ATOM      8  C7  <0> d           2.824  -1.039  -2.184  0.00  0.00     0.072 A 
ATOM      9  C8  <0> d           2.977  -0.625  -3.467  0.00  0.00     0.118 A 
ATOM     10  F1  <0> d           2.726  -1.493  -4.472  0.00  0.00    -0.206 F 
ATOM     11  C9  <0> d           4.126   3.273  -0.132  0.00  0.00     0.057 A 
ATOM     12  C10 <0> d           5.447   3.745   0.061  0.00  0.00     0.057 A 
ATOM     13  C11 <0> d           5.337   5.220   0.141  0.00  0.00     0.260 A 
ATOM     14  O1  <0> d           6.262   5.990   0.303  0.00  0.00    -0.267 OA
ATOM     15  N2  <0> d           4.046   5.564   0.003  0.00  0.00    -0.289 N 
ATOM     16  C12 <0> d           3.271   4.481  -0.167  0.00  0.00     0.260 A 
ATOM     17  O2  <0> d           2.066   4.491  -0.322  0.00  0.00    -0.267 OA
ATOM     18  C13 <0> d           6.612   2.978   0.156  0.00  0.00    -0.011 A 
ATOM     19  C14 <0> d           7.241   2.537   1.322  0.00  0.00    -0.001 A 
ATOM     20  C15 <0> d           6.939   2.701   2.688  0.00  0.00     0.017 A 
ATOM     21  C16 <0> d           7.748   2.148   3.630  0.00  0.00     0.043 A 
ATOM     22  C17 <0> d           8.887   1.410   3.279  0.00  0.00     0.118 A 
ATOM     23  C18 <0> d           9.239   1.211   1.984  0.00  0.00     0.072 A 
ATOM     24  C19 <0> d           8.439   1.760   0.943  0.00  0.00     0.042 A 
ATOM     25  N3  <0> d           8.561   1.713  -0.362  0.00  0.00    -0.385 N 
ATOM     26  C20 <0> d           7.454   2.446  -0.983  0.00  0.00     0.160 A 
ATOM     27  F2  <0> d           9.655   0.883   4.257  0.00  0.00    -0.206 F 
ATOM     28  H6  <0> d           3.718   6.477   0.021  0.00  0.00     0.172 HD
ATOM     29  H12 <0> d           2.754  -1.102   0.641  0.00  0.00     0.160 HD
ATOM     30  H13 <0> d           9.271   1.259  -0.842  0.00  0.00     0.160 HD
ENDROOT
TORSDOF 0
