REMARK  8 active torsions:
REMARK  status: ('A' for Active; 'I' for Inactive)
REMARK    1  A    between atoms: C2_2  and  C3_3 
REMARK    2  A    between atoms: C3_3  and  C4_4 
REMARK    3  A    between atoms: C4_4  and  C5_5 
REMARK    4  A    between atoms: C5_5  and  N1_6 
REMARK       I    between atoms: N1_6  and  C6_7 
REMARK    5  A    between atoms: C6_7  and  C7_9 
REMARK       I    between atoms: N2_11  and  C15_19 
REMARK    6  A    between atoms: C15_19  and  C16_21 
REMARK    7  A    between atoms: C20_25  and  O3_28 
REMARK    8  A    between atoms: O3_28  and  C23_29 
ROOT
ATOM      1  C7  <0> d           2.001  -6.603  -3.901  0.00  0.00     0.106 C 
ATOM      2  C8  <0> d           2.923  -6.988  -2.723  0.00  0.00     0.141 C 
ATOM      3  N2  <0> d           3.623  -8.212  -3.179  0.00  0.00    -0.346 N 
ATOM      4  C9  <0> d           3.913  -7.959  -4.610  0.00  0.00     0.136 C 
ATOM      5  C10 <0> d           2.655  -7.242  -5.138  0.00  0.00    -0.007 C 
ATOM      6  C11 <0> d           3.046  -6.164  -6.145  0.00  0.00     0.039 C 
ATOM      7  C12 <0> d           3.640  -6.827  -7.391  0.00  0.00     0.233 C 
ATOM      8  N3  <0> d           2.652  -7.740  -7.980  0.00  0.00    -0.075 N 
ATOM      9  C13 <0> d           2.352  -8.826  -7.040  0.00  0.00     0.233 C 
ATOM     10  C14 <0> d           1.703  -8.248  -5.779  0.00  0.00     0.039 C 
ATOM     11  C15 <0> d           3.927  -9.307  -2.455  0.00  0.00     0.254 C 
ATOM     12  O2  <0> d           4.591 -10.197  -2.950  0.00  0.00    -0.267 OA
ATOM     13  H22 <0> d           1.806  -7.231  -8.185  0.00  0.00     0.277 HD
ATOM     14  H36 <0> d           3.023  -8.129  -8.834  0.00  0.00     0.277 HD
ENDROOT
BRANCH  11  15
ATOM     15  C16 <0> d           3.453  -9.427  -1.060  0.00  0.00     0.040 A 
ATOM     16  C21 <0> d           3.068 -10.669  -0.556  0.00  0.00    -0.012 A 
ATOM     17  C20 <0> d           2.629 -10.775   0.754  0.00  0.00     0.086 A 
ATOM     18  C22 <0> d           3.134 -11.894  -1.431  0.00  0.00     0.052 C 
ATOM     19  C19 <0> d           2.563  -9.645   1.557  0.00  0.00     0.038 A 
ATOM     20  C18 <0> d           2.939  -8.412   1.057  0.00  0.00     0.004 A 
ATOM     21  C17 <0> d           3.383  -8.296  -0.244  0.00  0.00     0.018 A 
BRANCH  17  22
ATOM     22  O3  <0> d           2.258 -11.984   1.251  0.00  0.00    -0.279 OA
BRANCH  22  23
ATOM     23  C23 <0> d           3.211 -12.768   1.779  0.00  0.00     0.260 C 
ATOM     24  O4  <0> d           4.341 -12.355   1.888  0.00  0.00    -0.265 OA
ATOM     25  C24 <0> d           2.872 -14.163   2.237  0.00  0.00     0.126 C 
ENDBRANCH  22  23
ENDBRANCH  17  22
ENDBRANCH  11  15
BRANCH   1  26
ATOM     26  C6  <0> d           1.942  -5.105  -4.054  0.00  0.00     0.224 C 
ATOM     27  N1  <0> d           0.854  -4.526  -4.600  0.00  0.00    -0.361 N 
ATOM     28  H13 <0> d           0.109  -5.074  -4.894  0.00  0.00     0.162 HD
ATOM     29  O1  <0> d           2.872  -4.421  -3.686  0.00  0.00    -0.273 OA
BRANCH  27  30
ATOM     30  C5  <0> d           0.796  -3.070  -4.748  0.00  0.00     0.122 C 
BRANCH  30  31
ATOM     31  C4  <0> d          -0.536  -2.675  -5.390  0.00  0.00     0.020 C 
BRANCH  31  32
ATOM     32  C3  <0> d          -0.597  -1.154  -5.544  0.00  0.00     0.001 C 
BRANCH  32  33
ATOM     33  C2  <0> d          -1.928  -0.760  -6.186  0.00  0.00    -0.004 C 
ATOM     34  C1  <0> d          -1.989   0.761  -6.341  0.00  0.00     0.005 C 
ENDBRANCH  32  33
ENDBRANCH  31  32
ENDBRANCH  30  31
ENDBRANCH  27  30
ENDBRANCH   1  26
TORSDOF 8
