REMARK  8 active torsions:
REMARK  status: ('A' for Active; 'I' for Inactive)
REMARK    1  A    between atoms: N1_2  and  C3_4 
REMARK    2  A    between atoms: C3_4  and  C4_5 
REMARK    3  A    between atoms: C3_4  and  C18_26 
REMARK    4  A    between atoms: C4_5  and  N2_6 
REMARK       I    between atoms: N2_6  and  C5_7 
REMARK    5  A    between atoms: C5_7  and  C6_9 
REMARK    6  A    between atoms: C11_14  and  N3_15 
REMARK    7  A    between atoms: N3_15  and  S1_16 
REMARK    8  A    between atoms: S1_16  and  C12_19 
ROOT
ATOM      1  C6  <0> d           0.360   0.132  -0.092  0.00  0.00     0.059 A 
ATOM      2  C7  <0> d           1.696  -0.274  -0.035  0.00  0.00     0.019 A 
ATOM      3  C8  <0> d           2.007  -1.616  -0.031  0.00  0.00     0.001 A 
ATOM      4  C9  <0> d           1.002  -2.568  -0.096  0.00  0.00     0.002 A 
ATOM      5  C10 <0> d          -0.322  -2.183  -0.159  0.00  0.00     0.031 A 
ATOM      6  C11 <0> d          -0.656  -0.835  -0.158  0.00  0.00     0.058 A 
ENDROOT
BRANCH   1   7
ATOM      7  C5  <0> d           0.020   1.566  -0.090  0.00  0.00     0.254 C 
ATOM      8  N2  <0> d           0.998   2.491  -0.027  0.00  0.00    -0.354 N 
ATOM      9  H10 <0> d           2.051   2.175   0.023  0.00  0.00     0.162 HD
ATOM     10  O1  <0> d          -1.143   1.915  -0.150  0.00  0.00    -0.268 OA
BRANCH   8  11
ATOM     11  C4  <0> d           0.660   3.916  -0.025  0.00  0.00     0.161 C 
BRANCH  11  12
ATOM     12  C3  <0> d           1.946   4.745  -0.042  0.00  0.00     0.238 C 
BRANCH  12  13
ATOM     13  N1  <0> d           2.722   4.471   1.175  0.00  0.00    -0.069 N 
ATOM     14  C1  <0> d           1.842   4.066   2.280  0.00  0.00     0.270 C 
ATOM     15  C2  <0> d           3.754   3.457   0.924  0.00  0.00     0.270 C 
ATOM     16  H24 <0> d           3.228   5.402   1.470  0.00  0.00     0.279 HD
ENDBRANCH  12  13
BRANCH  12  17
ATOM     17  C18 <0> d           1.598   6.211  -0.097  0.00  0.00    -0.023 A 
ATOM     18  C23 <0> d           1.548   6.864  -1.314  0.00  0.00     0.051 A 
ATOM     19  C22 <0> d           1.228   8.210  -1.364  0.00  0.00     0.117 A 
ATOM     20  C21 <0> d           0.959   8.900  -0.195  0.00  0.00     0.042 A 
ATOM     21  F2  <0> d           1.179   8.849  -2.553  0.00  0.00    -0.206 F 
ATOM     22  C20 <0> d           1.010   8.245   1.021  0.00  0.00     0.004 A 
ATOM     23  C19 <0> d           1.324   6.900   1.070  0.00  0.00     0.009 A 
ENDBRANCH  12  17
ENDBRANCH  11  12
ENDBRANCH   8  11
ENDBRANCH   1   7
BRANCH   6  24
ATOM     24  N3  <0> d          -1.987  -0.445  -0.221  0.00  0.00    -0.280 N 
ATOM     25  H15 <0> d          -2.270   0.456  -0.786  0.00  0.00     0.179 HD
BRANCH  24  26
ATOM     26  S1  <0> d          -3.148  -1.335   0.553  0.00  0.00     0.263 S 
ATOM     27  O2  <0> d          -4.366  -0.614   0.425  0.00  0.00    -0.200 OA
ATOM     28  O3  <0> d          -3.004  -2.674   0.099  0.00  0.00    -0.200 OA
BRANCH  26  29
ATOM     29  C12 <0> d          -2.744  -1.340   2.268  0.00  0.00     0.080 A 
ATOM     30  C17 <0> d          -3.240  -0.351   3.098  0.00  0.00     0.028 A 
ATOM     31  C16 <0> d          -2.924  -0.353   4.443  0.00  0.00     0.044 A 
ATOM     32  C15 <0> d          -2.110  -1.347   4.960  0.00  0.00     0.116 A 
ATOM     33  C14 <0> d          -1.614  -2.336   4.129  0.00  0.00     0.044 A 
ATOM     34  F1  <0> d          -1.800  -1.350   6.275  0.00  0.00    -0.206 F 
ATOM     35  C13 <0> d          -1.935  -2.335   2.785  0.00  0.00     0.028 A 
ENDBRANCH  26  29
ENDBRANCH  24  26
ENDBRANCH   6  24
TORSDOF 8
