REMARK  7 active torsions:
REMARK  status: ('A' for Active; 'I' for Inactive)
REMARK    1  A    between atoms: C3_3  and  C7_9 
REMARK    2  A    between atoms: C4_4  and  N1_8 
REMARK    3  A    between atoms: C7_9  and  O2_11 
REMARK    4  A    between atoms: O2_11  and  C8_12 
REMARK    5  A    between atoms: C8_12  and  C9_13 
REMARK       I    between atoms: C9_13  and  N2_15 
REMARK    6  A    between atoms: N2_15  and  C10_16 
REMARK    7  A    between atoms: C13_19  and  N3_23 
ROOT
ATOM      1  C9  <0> d          -3.573   3.214  -0.407  0.00  0.00     0.246 C 
ATOM      2  O3  <0> d          -3.546   2.037  -0.700  0.00  0.00    -0.271 OA
ATOM      3  N2  <0> d          -2.443   3.839  -0.021  0.00  0.00    -0.323 N 
ATOM      4  H8  <0> d          -2.474   4.766   0.261  0.00  0.00     0.169 HD
ENDROOT
BRANCH   1   5
ATOM      5  C8  <0> d          -4.871   3.976  -0.473  0.00  0.00     0.282 C 
BRANCH   5   6
ATOM      6  O2  <0> d          -5.933   3.088  -0.911  0.00  0.00    -0.308 OA
BRANCH   6   7
ATOM      7  C7  <0> d          -7.167   3.618  -1.024  0.00  0.00     0.296 C 
ATOM      8  O1  <0> d          -7.351   4.791  -0.763  0.00  0.00    -0.259 OA
BRANCH   7   9
ATOM      9  C3  <0> d          -8.292   2.777  -1.463  0.00  0.00     0.065 A 
ATOM     10  C2  <0> d          -8.113   1.402  -1.645  0.00  0.00     0.023 A 
ATOM     11  C1  <0> d          -9.168   0.620  -2.056  0.00  0.00     0.043 A 
ATOM     12  C6  <0> d         -10.413   1.189  -2.291  0.00  0.00     0.118 A 
ATOM     13  C5  <0> d         -10.605   2.547  -2.115  0.00  0.00     0.072 A 
ATOM     14  F1  <0> d         -11.442   0.412  -2.694  0.00  0.00    -0.206 F 
ATOM     15  C4  <0> d          -9.554   3.350  -1.696  0.00  0.00     0.045 A 
BRANCH  15  16
ATOM     16  N1  <0> d          -9.746   4.713  -1.512  0.00  0.00    -0.398 N 
ATOM     17  H4  <0> d          -8.994   5.322  -1.580  0.00  0.00     0.156 HD
ATOM     18  H5  <0> d         -10.632   5.056  -1.317  0.00  0.00     0.156 HD
ENDBRANCH  15  16
ENDBRANCH   7   9
ENDBRANCH   6   7
ENDBRANCH   5   6
ENDBRANCH   1   5
BRANCH   3  19
ATOM     19  C10 <0> d          -1.224   3.150  -0.029  0.00  0.00     0.070 A 
ATOM     20  C15 <0> d          -0.880   2.357  -1.117  0.00  0.00     0.041 A 
ATOM     21  C14 <0> d           0.324   1.678  -1.121  0.00  0.00     0.057 A 
ATOM     22 Br1  <0> d          -2.057   2.207  -2.589  0.00  0.00    -0.049 Br
ATOM     23  C13 <0> d           1.185   1.788  -0.045  0.00  0.00     0.105 A 
ATOM     24  C12 <0> d           0.846   2.576   1.039  0.00  0.00     0.057 A 
ATOM     25  C11 <0> d          -0.359   3.254   1.052  0.00  0.00     0.041 A 
ATOM     26 Br2  <0> d          -0.825   4.326   2.538  0.00  0.00    -0.049 Br
BRANCH  23  27
ATOM     27  N3  <0> d           2.474   1.059  -0.054  0.00  0.00    -0.116 N 
ATOM     28  O4  <0> d           3.234   1.155   0.893  0.00  0.00    -0.532 OA
ATOM     29  O5  <0> d           2.774   0.364  -1.008  0.00  0.00    -0.532 OA
ENDBRANCH  23  27
ENDBRANCH   3  19
TORSDOF 7
