REMARK  5 active torsions:
REMARK  status: ('A' for Active; 'I' for Inactive)
REMARK    1  A    between atoms: C5_5  and  C8_8 
REMARK    2  A    between atoms: N1_11  and  C11_15 
REMARK    3  A    between atoms: C11_15  and  C12_16 
REMARK       I    between atoms: C12_16  and  N3_18 
REMARK    4  A    between atoms: N3_18  and  C13_19 
REMARK    5  A    between atoms: C18_24  and  N4_25 
ROOT
ATOM      1  C12 <0> d          -1.110   1.746   0.016  0.00  0.00     0.240 C 
ATOM      2  O3  <0> d          -1.000   2.950  -0.079  0.00  0.00    -0.271 OA
ATOM      3  N3  <0> d          -0.011   0.966   0.007  0.00  0.00    -0.324 N 
ATOM      4  H11 <0> d          -0.114  -0.129   0.025  0.00  0.00     0.169 HD
ENDROOT
BRANCH   1   5
ATOM      5  C11 <0> d          -2.476   1.122   0.145  0.00  0.00     0.240 C 
BRANCH   5   6
ATOM      6  N1  <0> d          -3.497   2.173   0.129  0.00  0.00    -0.259 N 
ATOM      7  C9  <0> d          -4.091   2.634  -0.989  0.00  0.00     0.261 A 
ATOM      8  C8  <0> d          -5.064   3.700  -0.526  0.00  0.00     0.140 A 
ATOM      9  O1  <0> d          -3.889   2.273  -2.128  0.00  0.00    -0.270 OA
ATOM     10  N2  <0> d          -4.888   3.717   0.937  0.00  0.00    -0.321 N 
ATOM     11  C24 <0> d          -6.499   3.314  -0.891  0.00  0.00     0.054 C 
ATOM     12  C10 <0> d          -3.958   2.789   1.223  0.00  0.00     0.326 A 
ATOM     13  H8  <0> d          -5.477   4.412   1.554  0.00  0.00     0.165 HD
ATOM     14  O2  <0> d          -3.576   2.540   2.350  0.00  0.00    -0.247 OA
BRANCH   8  15
ATOM     15  C5  <0> d          -4.706   5.039  -1.118  0.00  0.00    -0.021 A 
ATOM     16  C4  <0> d          -4.995   6.200  -0.426  0.00  0.00     0.011 A 
ATOM     17  C3  <0> d          -4.666   7.428  -0.970  0.00  0.00     0.007 A 
ATOM     18  C2  <0> d          -4.049   7.494  -2.205  0.00  0.00    -0.062 A 
ATOM     19  C1  <0> d          -3.691   8.833  -2.797  0.00  0.00     0.048 C 
ATOM     20  C7  <0> d          -3.759   6.333  -2.896  0.00  0.00     0.007 A 
ATOM     21  C6  <0> d          -4.083   5.105  -2.350  0.00  0.00     0.011 A 
ENDBRANCH   8  15
ENDBRANCH   5   6
ENDBRANCH   1   5
BRANCH   3  22
ATOM     22  C13 <0> d           1.262   1.550  -0.024  0.00  0.00     0.058 A 
ATOM     23  C18 <0> d           2.326   0.946   0.646  0.00  0.00     0.037 A 
ATOM     24  C17 <0> d           3.584   1.528   0.612  0.00  0.00     0.027 A 
ATOM     25  C16 <0> d           3.781   2.705  -0.086  0.00  0.00     0.026 A 
ATOM     26  C15 <0> d           2.727   3.305  -0.751  0.00  0.00     0.036 A 
ATOM     27  C14 <0> d           1.470   2.728  -0.726  0.00  0.00     0.055 A 
ATOM     28 Cl1  <0> d           2.983   4.783  -1.625  0.00  0.00    -0.084 Cl
BRANCH  23  29
ATOM     29  N4  <0> d           2.124  -0.246   1.352  0.00  0.00    -0.278 NA
ATOM     30  C22 <0> d           2.971  -1.323   0.821  0.00  0.00     0.123 C 
ATOM     31  C21 <0> d           2.663  -2.625   1.565  0.00  0.00     0.249 C 
ATOM     32  N5  <0> d           2.901  -2.432   3.002  0.00  0.00    -0.073 N 
ATOM     33  C20 <0> d           2.053  -1.355   3.533  0.00  0.00     0.249 C 
ATOM     34  C23 <0> d           2.688  -3.683   3.743  0.00  0.00     0.269 C 
ATOM     35  H29 <0> d           3.951  -2.135   3.136  0.00  0.00     0.279 HD
ATOM     36  C19 <0> d           2.361  -0.054   2.789  0.00  0.00     0.123 C 
ENDBRANCH  23  29
ENDBRANCH   3  22
TORSDOF 5
