REMARK  4 active torsions:
REMARK  status: ('A' for Active; 'I' for Inactive)
REMARK    1  A    between atoms: C5_5  and  C7_7 
REMARK    2  A    between atoms: N3_16  and  C15_19 
REMARK    3  A    between atoms: C15_19  and  C16_20 
REMARK    4  A    between atoms: C16_20  and  C17_21 
ROOT
ATOM      1  C7  <0> d           1.246  -2.165  -0.022  0.00  0.00     0.201 A 
ATOM      2  N1  <0> d           2.355  -2.925  -0.032  0.00  0.00    -0.040 NA
ATOM      3  C8  <0> d           2.025  -4.186  -0.036  0.00  0.00     0.729 A 
ATOM      4  N2  <0> d           2.814  -5.324  -0.043  0.00  0.00    -0.197 N 
ATOM      5  C9  <0> d           2.223  -6.542  -0.254  0.00  0.00     0.125 C 
ATOM      6  C10 <0> d           0.873  -6.679  -0.244  0.00  0.00     0.077 C 
ATOM      7  C11 <0> d           0.006  -5.487  -0.038  0.00  0.00     0.091 C 
ATOM      8  C12 <0> d          -1.295  -5.640   0.130  0.00  0.00     0.026 C 
ATOM      9  C13 <0> d          -1.961  -6.981   0.159  0.00  0.00     0.155 C 
ATOM     10  N3  <0> d          -1.116  -8.066  -0.303  0.00  0.00    -0.344 N 
ATOM     11  C14 <0> d           0.215  -7.971  -0.459  0.00  0.00     0.257 C 
ATOM     12  O1  <0> d           0.868  -8.949  -0.775  0.00  0.00    -0.267 OA
ATOM     13  N5  <0> d           0.654  -4.255  -0.031  0.00  0.00    -0.059 N 
ATOM     14  N6  <0> d           0.184  -2.950  -0.016  0.00  0.00    -0.131 NA
ATOM     15  H19 <0> d           3.772  -5.259   0.100  0.00  0.00     0.183 HD
ENDROOT
BRANCH  10  16
ATOM     16  C15 <0> d          -1.754  -9.346  -0.620  0.00  0.00     0.131 C 
BRANCH  16  17
ATOM     17  C16 <0> d          -2.167  -9.359  -2.093  0.00  0.00     0.056 C 
BRANCH  17  18
ATOM     18  C17 <0> d          -2.824 -10.675  -2.419  0.00  0.00    -0.048 A 
ATOM     19  C24 <0> d          -2.134 -11.963  -2.813  0.00  0.00     0.155 A 
ATOM     20  N4  <0> d          -3.204 -12.945  -3.019  0.00  0.00    -0.385 N 
ATOM     21  C23 <0> d          -4.357 -12.360  -2.801  0.00  0.00     0.039 A 
ATOM     22  H18 <0> d          -3.080 -13.872  -3.278  0.00  0.00     0.160 HD
ATOM     23  C18 <0> d          -4.149 -10.943  -2.425  0.00  0.00    -0.003 A 
ATOM     24  C22 <0> d          -5.692 -12.846  -2.864  0.00  0.00     0.033 A 
ATOM     25  C19 <0> d          -5.331 -10.121  -2.139  0.00  0.00     0.056 A 
ATOM     26  C20 <0> d          -6.559 -10.682  -2.229  0.00  0.00     0.117 A 
ATOM     27  C21 <0> d          -6.730 -12.029  -2.588  0.00  0.00     0.044 A 
ATOM     28  F1  <0> d          -7.649  -9.928  -1.967  0.00  0.00    -0.206 F 
ENDBRANCH  17  18
ENDBRANCH  16  17
ENDBRANCH  10  16
BRANCH   1  29
ATOM     29  C5  <0> d           1.220  -0.682  -0.013  0.00  0.00     0.036 A 
ATOM     30  C4  <0> d           2.413   0.039  -0.021  0.00  0.00     0.048 A 
ATOM     31  C3  <0> d           2.382   1.421  -0.013  0.00  0.00     0.025 A 
ATOM     32 Cl1  <0> d           3.934  -0.796  -0.042  0.00  0.00    -0.083 Cl
ATOM     33  C2  <0> d           1.170   2.087   0.002  0.00  0.00     0.002 A 
ATOM     34  C1  <0> d          -0.017   1.376   0.010  0.00  0.00     0.001 A 
ATOM     35  C6  <0> d           0.002  -0.004   0.002  0.00  0.00     0.017 A 
ENDBRANCH   1  29
TORSDOF 4
