REMARK  6 active torsions:
REMARK  status: ('A' for Active; 'I' for Inactive)
REMARK    1  A    between atoms: C10_10  and  C11_11 
REMARK    2  A    between atoms: C10_10  and  O4_27 
REMARK    3  A    between atoms: C11_11  and  N1_12 
REMARK       I    between atoms: N1_12  and  C12_13 
REMARK    4  A    between atoms: C12_13  and  C13_15 
REMARK    5  A    between atoms: N2_19  and  C17_21 
REMARK    6  A    between atoms: C17_21  and  C18_22 
ROOT
ATOM      1  N1  <0> d           4.733   1.477  -0.622  0.00  0.00    -0.357 N 
ATOM      2  C12 <0> d           5.418   2.343  -1.394  0.00  0.00     0.224 C 
ATOM      3  O1  <0> d           5.983   1.949  -2.393  0.00  0.00    -0.273 OA
ATOM      4  H14 <0> d           4.281   1.792   0.177  0.00  0.00     0.162 HD
ENDROOT
BRANCH   1   5
ATOM      5  C11 <0> d           4.671   0.060  -0.987  0.00  0.00     0.165 C 
BRANCH   5   6
ATOM      6  C10 <0> d           3.746  -0.677  -0.016  0.00  0.00     0.101 C 
ATOM      7  C4  <0> d           3.714  -2.140  -0.374  0.00  0.00    -0.016 A 
ATOM      8  C3  <0> d           3.643  -2.475  -1.720  0.00  0.00     0.011 A 
ATOM      9  C5  <0> d           3.749  -3.136   0.575  0.00  0.00    -0.049 A 
ATOM     10  C2  <0> d           3.604  -3.797  -2.113  0.00  0.00     0.001 A 
ATOM     11  C1  <0> d           3.635  -4.797  -1.159  0.00  0.00     0.001 A 
ATOM     12  C6  <0> d           3.706  -4.467   0.178  0.00  0.00     0.007 A 
ATOM     13  C7  <0> d           3.843  -2.847   2.051  0.00  0.00     0.039 C 
ATOM     14  C8  <0> d           3.451  -1.399   2.340  0.00  0.00     0.008 C 
ATOM     15  C9  <0> d           4.257  -0.485   1.410  0.00  0.00     0.045 C 
BRANCH   6  16
ATOM     16  O4  <0> d           2.427  -0.138  -0.121  0.00  0.00    -0.383 OA
ATOM     17  H24 <0> d           2.042  -0.209  -1.006  0.00  0.00     0.211 HD
ENDBRANCH   6  16
ENDBRANCH   5   6
ENDBRANCH   1   5
BRANCH   2  18
ATOM     18  C13 <0> d           5.482   3.801  -1.018  0.00  0.00     0.104 C 
ATOM     19  C16 <0> d           6.252   4.613  -2.083  0.00  0.00     0.140 C 
ATOM     20  N2  <0> d           5.562   5.907  -2.162  0.00  0.00    -0.345 N 
ATOM     21  C15 <0> d           4.338   5.842  -1.610  0.00  0.00     0.221 C 
ATOM     22  C14 <0> d           4.080   4.450  -1.078  0.00  0.00     0.118 C 
ATOM     23  O2  <0> d           3.555   6.766  -1.547  0.00  0.00    -0.273 OA
BRANCH  20  24
ATOM     24  C17 <0> d           6.134   7.113  -2.765  0.00  0.00     0.190 C 
BRANCH  24  25
ATOM     25  C18 <0> d           6.879   7.895  -1.714  0.00  0.00     0.070 A 
ATOM     26  O3  <0> d           6.357   8.853  -0.931  0.00  0.00    -0.325 OA
ATOM     27  C21 <0> d           7.309   9.328  -0.111  0.00  0.00     0.142 A 
ATOM     28  C20 <0> d           8.458   8.680  -0.372  0.00  0.00     0.027 A 
ATOM     29  C19 <0> d           8.181   7.756  -1.406  0.00  0.00     0.036 A 
ENDBRANCH  24  25
ENDBRANCH  20  24
ENDBRANCH   2  18
TORSDOF 6
