REMARK  5 active torsions:
REMARK  status: ('A' for Active; 'I' for Inactive)
REMARK    1  A    between atoms: N2_4  and  C4_6 
REMARK    2  A    between atoms: C4_6  and  C5_7 
REMARK    3  A    between atoms: C5_7  and  S1_8 
REMARK    4  A    between atoms: S1_8  and  C6_10 
REMARK    5  A    between atoms: C9_13  and  N3_17 
ROOT
ATOM      1  C6  <0> d           4.354  -3.776  -2.643  0.00  0.00     0.108 A 
ATOM      2  C7  <0> d           3.831  -4.117  -3.879  0.00  0.00     0.140 A 
ATOM      3  C8  <0> d           4.656  -4.177  -4.988  0.00  0.00     0.072 A 
ATOM      4  C9  <0> d           6.009  -3.894  -4.861  0.00  0.00     0.031 A 
ATOM      5  C10 <0> d           6.532  -3.551  -3.621  0.00  0.00     0.072 A 
ATOM      6  C11 <0> d           5.703  -3.488  -2.515  0.00  0.00     0.140 A 
ATOM      7  F1  <0> d           6.209  -3.150  -1.310  0.00  0.00    -0.204 F 
ATOM      8  F2  <0> d           2.514  -4.392  -4.002  0.00  0.00    -0.204 F 
ENDROOT
BRANCH   1   9
ATOM      9  S1  <0> d           3.301  -3.702  -1.232  0.00  0.00     0.057 S 
ATOM     10  O1  <0> d           2.226  -4.572  -1.559  0.00  0.00    -0.252 OA
BRANCH   9  11
ATOM     11  C5  <0> d           2.709  -1.987  -1.217  0.00  0.00     0.136 C 
BRANCH  11  12
ATOM     12  C4  <0> d           1.771  -1.782  -0.025  0.00  0.00     0.163 C 
BRANCH  12  13
ATOM     13  N2  <0> d           1.293  -0.398  -0.012  0.00  0.00    -0.280 N 
ATOM     14  N1  <0> d           2.094   0.751  -0.014  0.00  0.00    -0.185 NA
ATOM     15  C2  <0> d           1.308   1.797  -0.001  0.00  0.00     0.140 A 
ATOM     16  C1  <0> d          -0.016   1.349   0.009  0.00  0.00     0.040 A 
ATOM     17  C3  <0> d           0.002  -0.004   0.002  0.00  0.00     0.113 A 
ENDBRANCH  12  13
ENDBRANCH  11  12
ENDBRANCH   9  11
ENDBRANCH   1   9
BRANCH   4  18
ATOM     18  N3  <0> d           6.844  -3.954  -5.979  0.00  0.00    -0.399 N 
ATOM     19  H10 <0> d           6.478  -4.193  -6.845  0.00  0.00     0.156 HD
ATOM     20  H11 <0> d           7.790  -3.756  -5.890  0.00  0.00     0.156 HD
ENDBRANCH   4  18
TORSDOF 5
