REMARK  2 active torsions:
REMARK  status: ('A' for Active; 'I' for Inactive)
REMARK    1  A    between atoms: C9_10  and  C11_14 
REMARK       I    between atoms: C11_14  and  N3_16 
REMARK    2  A    between atoms: N3_16  and  C12_17 
ROOT
ATOM      1  C1  <0> d          -0.007   1.503   0.009  0.00  0.00     0.048 C 
ATOM      2  C2  <0> d           0.012  -0.004   0.001  0.00  0.00    -0.061 A 
ATOM      3  C3  <0> d           0.016  -0.687  -1.208  0.00  0.00     0.009 A 
ATOM      4  C4  <0> d           0.032  -2.064  -1.242  0.00  0.00     0.033 A 
ATOM      5  C5  <0> d           0.046  -2.783  -0.050  0.00  0.00     0.066 A 
ATOM      6  C6  <0> d           0.043  -2.082   1.172  0.00  0.00     0.045 A 
ATOM      7  C7  <0> d           0.031  -0.689   1.185  0.00  0.00     0.024 A 
ATOM      8  C8  <0> d           0.057  -2.878   2.413  0.00  0.00     0.220 A 
ATOM      9  O1  <0> d           0.055  -2.356   3.514  0.00  0.00    -0.285 OA
ATOM     10  C9  <0> d           0.074  -4.343   2.245  0.00  0.00     0.195 A 
ATOM     11  N1  <0> d           0.075  -4.853   1.033  0.00  0.00    -0.163 NA
ATOM     12  N2  <0> d           0.062  -4.156  -0.041  0.00  0.00    -0.273 N 
ATOM     13  C10 <0> d           0.065  -4.860  -1.326  0.00  0.00     0.180 C 
ENDROOT
BRANCH  10  14
ATOM     14  C11 <0> d           0.090  -5.228   3.424  0.00  0.00     0.281 C 
ATOM     15  O2  <0> d           0.090  -4.750   4.543  0.00  0.00    -0.265 OA
ATOM     16  N3  <0> d           0.106  -6.566   3.263  0.00  0.00    -0.306 N 
ATOM     17  H10 <0> d           0.032  -6.948   2.374  0.00  0.00     0.170 HD
BRANCH  16  18
ATOM     18  C12 <0> d           0.228  -7.400   4.372  0.00  0.00     0.130 A 
ATOM     19  N4  <0> d           0.232  -6.877   5.588  0.00  0.00    -0.236 NA
ATOM     20  C16 <0> d           0.341  -7.631   6.665  0.00  0.00     0.033 A 
ATOM     21  C15 <0> d           0.466  -9.003   6.559  0.00  0.00     0.027 A 
ATOM     22  C17 <0> d           0.335  -6.988   8.028  0.00  0.00     0.070 C 
ATOM     23  C14 <0> d           0.471  -9.590   5.301  0.00  0.00     0.006 A 
ATOM     24  C13 <0> d           0.350  -8.773   4.191  0.00  0.00     0.050 A 
ENDBRANCH  16  18
ENDBRANCH  10  14
TORSDOF 2
