REMARK  6 active torsions:
REMARK  status: ('A' for Active; 'I' for Inactive)
REMARK       I    between atoms: N2_13  and  C11_14 
REMARK    1  A    between atoms: C11_14  and  C12_16 
REMARK       I    between atoms: C12_16  and  N3_18 
REMARK    2  A    between atoms: N3_18  and  C13_19 
REMARK    3  A    between atoms: C13_19  and  C14_20 
REMARK    4  A    between atoms: C14_20  and  N4_21 
REMARK    5  A    between atoms: N4_21  and  C16_23 
REMARK    6  A    between atoms: C16_23  and  C17_24 
ROOT
ATOM      1  C1  <0> d          -0.019   1.526   0.010  0.00  0.00     0.033 C 
ATOM      2  C2  <0> d           0.002  -0.004   0.002  0.00  0.00     0.098 C 
ATOM      3  C3  <0> d           0.715  -0.496  -1.259  0.00  0.00     0.128 C 
ATOM      4  C4  <0> d           1.097  -1.944  -1.107  0.00  0.00     0.224 C 
ATOM      5  O1  <0> d           0.459  -2.800  -1.684  0.00  0.00    -0.273 OA
ATOM      6  N1  <0> d           2.145  -2.297  -0.331  0.00  0.00    -0.325 N 
ATOM      7  C5  <0> d           2.830  -1.333   0.416  0.00  0.00     0.061 A 
ATOM      8  C6  <0> d           4.213  -1.255   0.378  0.00  0.00     0.032 A 
ATOM      9  C7  <0> d           4.870  -0.309   1.143  0.00  0.00     0.002 A 
ATOM     10  C8  <0> d           4.152   0.558   1.947  0.00  0.00     0.002 A 
ATOM     11  C9  <0> d           2.771   0.494   1.983  0.00  0.00     0.032 A 
ATOM     12  C10 <0> d           2.105  -0.444   1.211  0.00  0.00     0.065 A 
ATOM     13  N2  <0> d           0.707  -0.487   1.191  0.00  0.00    -0.303 N 
ATOM     14  C11 <0> d           0.022  -0.966   2.248  0.00  0.00     0.316 C 
ATOM     15  O2  <0> d          -1.192  -0.998   2.220  0.00  0.00    -0.262 OA
ATOM     16  H7  <0> d           2.424  -3.225  -0.292  0.00  0.00     0.169 HD
ENDROOT
BRANCH  14  17
ATOM     17  C12 <0> d           0.755  -1.455   3.453  0.00  0.00     0.309 C 
ATOM     18  O3  <0> d           1.968  -1.423   3.481  0.00  0.00    -0.262 OA
ATOM     19  N3  <0> d           0.069  -1.933   4.511  0.00  0.00    -0.351 N 
ATOM     20  H12 <0> d          -0.900  -1.960   4.489  0.00  0.00     0.162 HD
BRANCH  19  21
ATOM     21  C13 <0> d           0.788  -2.414   5.693  0.00  0.00     0.150 C 
BRANCH  21  22
ATOM     22  C14 <0> d          -0.217  -2.899   6.739  0.00  0.00     0.254 C 
BRANCH  22  23
ATOM     23  N4  <0> d           0.504  -3.381   7.925  0.00  0.00    -0.070 N 
ATOM     24  C15 <0> d           1.296  -4.565   7.569  0.00  0.00     0.270 C 
ATOM     25  H27 <0> d           1.118  -2.655   8.264  0.00  0.00     0.279 HD
BRANCH  23  26
ATOM     26  C16 <0> d          -0.461  -3.734   8.975  0.00  0.00     0.273 C 
BRANCH  26  27
ATOM     27  C17 <0> d           0.280  -4.111  10.232  0.00  0.00    -0.033 A 
ATOM     28  C22 <0> d           0.591  -3.143  11.167  0.00  0.00     0.009 A 
ATOM     29  C21 <0> d           1.267  -3.489  12.322  0.00  0.00     0.001 A 
ATOM     30  C20 <0> d           1.639  -4.803  12.538  0.00  0.00     0.000 A 
ATOM     31  C19 <0> d           1.332  -5.771  11.600  0.00  0.00     0.001 A 
ATOM     32  C18 <0> d           0.652  -5.425  10.447  0.00  0.00     0.009 A 
ENDBRANCH  26  27
ENDBRANCH  23  26
ENDBRANCH  22  23
ENDBRANCH  21  22
ENDBRANCH  19  21
ENDBRANCH  14  17
TORSDOF 6
