REMARK  4 active torsions:
REMARK  status: ('A' for Active; 'I' for Inactive)
REMARK    1  A    between atoms: C4_4  and  C7_7 
REMARK    2  A    between atoms: C7_7  and  C8_8 
REMARK    3  A    between atoms: C9_9  and  C11_15 
REMARK    4  A    between atoms: C10_10  and  N3_14 
ROOT
ATOM      1  C8  <0> d           2.639   4.100  -1.546  0.00  0.00     0.076 A 
ATOM      2  C9  <0> d           3.619   3.335  -2.216  0.00  0.00     0.081 A 
ATOM      3  C10 <0> d           4.008   4.060  -3.336  0.00  0.00     0.131 A 
ATOM      4  N1  <0> d           3.300   5.210  -3.331  0.00  0.00    -0.262 N 
ATOM      5  H1  <0> d           3.447   5.950  -4.132  0.00  0.00     0.191 HD
ATOM      6  N2  <0> d           2.460   5.207  -2.212  0.00  0.00    -0.176 NA
ENDROOT
BRANCH   2   7
ATOM      7  C11 <0> d           4.131   2.015  -1.806  0.00  0.00     0.145 A 
ATOM      8  N5  <0> d           3.842   1.410  -0.678  0.00  0.00    -0.228 NA
ATOM      9  C17 <0> d           4.479   0.213  -0.626  0.00  0.00     0.086 A 
ATOM     10  C12 <0> d           5.222   0.086  -1.813  0.00  0.00     0.062 A 
ATOM     11  C16 <0> d           4.520  -0.812   0.324  0.00  0.00     0.034 A 
ATOM     12  N4  <0> d           4.985   1.238  -2.543  0.00  0.00    -0.338 N 
ATOM     13  C13 <0> d           5.986  -1.050  -2.033  0.00  0.00     0.032 A 
ATOM     14  H2  <0> d           5.341   1.588  -3.523  0.00  0.00     0.167 HD
ATOM     15  C14 <0> d           6.015  -2.053  -1.085  0.00  0.00     0.002 A 
ATOM     16  C15 <0> d           5.284  -1.932   0.088  0.00  0.00     0.002 A 
ENDBRANCH   2   7
BRANCH   1  17
ATOM     17  C7  <0> d           1.927   3.707  -0.278  0.00  0.00     0.100 C 
BRANCH  17  18
ATOM     18  C4  <0> d           0.670   2.950  -0.621  0.00  0.00    -0.052 A 
ATOM     19  C3  <0> d           0.705   1.575  -0.753  0.00  0.00     0.007 A 
ATOM     20  C2  <0> d          -0.448   0.881  -1.068  0.00  0.00     0.001 A 
ATOM     21  C1  <0> d          -1.636   1.563  -1.255  0.00  0.00     0.000 A 
ATOM     22  C6  <0> d          -1.673   2.938  -1.118  0.00  0.00     0.001 A 
ATOM     23  C5  <0> d          -0.519   3.632  -0.803  0.00  0.00     0.007 A 
ENDBRANCH  17  18
ENDBRANCH   1  17
BRANCH   3  24
ATOM     24  N3  <0> d           4.949   3.678  -4.276  0.00  0.00    -0.384 N 
ATOM     25  H10 <0> d           5.176   4.338  -5.126  0.00  0.00     0.157 HD
ATOM     26  H11 <0> d           5.469   2.714  -4.173  0.00  0.00     0.157 HD
ENDBRANCH   3  24
TORSDOF 4
