REMARK  9 active torsions:
REMARK  status: ('A' for Active; 'I' for Inactive)
REMARK    1  A    between atoms: C4_4  and  N2_10 
REMARK       I    between atoms: N2_10  and  C9_11 
REMARK    2  A    between atoms: C9_11  and  C10_13 
REMARK    3  A    between atoms: C10_13  and  S1_14 
REMARK    4  A    between atoms: S1_14  and  C11_15 
REMARK    5  A    between atoms: C12_18  and  C16_23 
REMARK    6  A    between atoms: N5_19  and  C13_20 
REMARK    7  A    between atoms: C13_20  and  C14_21 
REMARK    8  A    between atoms: C16_23  and  N6_24 
REMARK    9  A    between atoms: N6_24  and  C17_25 
ROOT
ATOM      1  S1  <0> d          -2.413  -0.357  -1.366  0.00  0.00    -0.081 SA
ENDROOT
BRANCH   1   2
ATOM      2  C10 <0> d          -3.091  -1.986  -1.771  0.00  0.00     0.185 C 
BRANCH   2   3
ATOM      3  C9  <0> d          -4.396  -1.818  -2.506  0.00  0.00     0.227 C 
ATOM      4  N2  <0> d          -5.086  -2.903  -2.910  0.00  0.00    -0.356 N 
ATOM      5  H16 <0> d          -4.696  -3.911  -2.704  0.00  0.00     0.162 HD
ATOM      6  O1  <0> d          -4.826  -0.707  -2.732  0.00  0.00    -0.273 OA
BRANCH   4   7
ATOM      7  C4  <0> d          -6.358  -2.740  -3.625  0.00  0.00     0.089 C 
ATOM      8  C3  <0> d          -6.613  -3.976  -4.487  0.00  0.00     0.063 C 
ATOM      9  C2  <0> d          -7.942  -3.845  -5.226  0.00  0.00     0.121 C 
ATOM     10  C1  <0> d          -7.785  -2.861  -6.392  0.00  0.00     0.046 C 
ATOM     11  N1  <0> d          -9.036  -3.459  -4.359  0.00  0.00    -0.059 N 
ATOM     12  C23 <0> d          -8.274  -5.225  -5.836  0.00  0.00     0.046 C 
ATOM     13  C6  <0> d          -8.832  -2.463  -3.328  0.00  0.00     0.121 C 
ATOM     14  H9  <0> d          -9.856  -3.046  -4.965  0.00  0.00     0.279 HD
ATOM     15  H35 <0> d          -9.394  -4.340  -3.807  0.00  0.00     0.279 HD
ATOM     16  C5  <0> d          -7.493  -2.613  -2.610  0.00  0.00     0.063 C 
ATOM     17  C7  <0> d          -8.953  -1.044  -3.896  0.00  0.00     0.046 C 
ATOM     18  C8  <0> d          -9.947  -2.628  -2.271  0.00  0.00     0.046 C 
ENDBRANCH   4   7
ENDBRANCH   2   3
ENDBRANCH   1   2
BRANCH   1  19
ATOM     19  C11 <0> d          -0.934  -0.838  -0.538  0.00  0.00     0.192 A 
ATOM     20  N5  <0> d           0.002  -0.004   0.002  0.00  0.00    -0.306 N 
ATOM     21  C12 <0> d           0.965  -0.820   0.529  0.00  0.00     0.148 A 
ATOM     22  N4  <0> d           0.595  -2.049   0.309  0.00  0.00    -0.132 NA
ATOM     23  N3  <0> d          -0.524  -2.067  -0.324  0.00  0.00    -0.122 NA
BRANCH  20  24
ATOM     24  C13 <0> d          -0.018   1.461   0.010  0.00  0.00     0.159 C 
BRANCH  24  25
ATOM     25  C14 <0> d          -0.723   1.947   1.250  0.00  0.00    -0.017 C 
ATOM     26  C15 <0> d          -0.122   2.782   2.060  0.00  0.00     0.008 C 
ENDBRANCH  24  25
ENDBRANCH  20  24
BRANCH  21  27
ATOM     27  C16 <0> d           2.221  -0.378   1.235  0.00  0.00     0.200 C 
BRANCH  27  28
ATOM     28  N6  <0> d           1.955  -0.251   2.670  0.00  0.00    -0.383 N 
ATOM     29  H26 <0> d           0.952  -0.470   3.065  0.00  0.00     0.160 HD
BRANCH  28  30
ATOM     30  C17 <0> d           2.975   0.149   3.537  0.00  0.00     0.028 A 
ATOM     31  C22 <0> d           2.724   0.270   4.898  0.00  0.00     0.029 A 
ATOM     32  C21 <0> d           3.735   0.665   5.752  0.00  0.00     0.002 A 
ATOM     33  C20 <0> d           4.996   0.939   5.254  0.00  0.00     0.000 A 
ATOM     34  C19 <0> d           5.248   0.820   3.899  0.00  0.00     0.002 A 
ATOM     35  C18 <0> d           4.244   0.420   3.040  0.00  0.00     0.029 A 
ENDBRANCH  28  30
ENDBRANCH  27  28
ENDBRANCH  21  27
ENDBRANCH   1  19
TORSDOF 9
