REMARK  4 active torsions:
REMARK  status: ('A' for Active; 'I' for Inactive)
REMARK    1  A    between atoms: C2_2  and  C3_3 
REMARK    2  A    between atoms: N2_10  and  O1_11 
REMARK    3  A    between atoms: O1_11  and  C8_12 
REMARK    4  A    between atoms: C8_12  and  C9_13 
ROOT
ATOM      1  C3  <0> d          -1.365   5.991  -0.502  0.00  0.00    -0.013 C 
ATOM      2  C4  <0> d          -2.482   5.247  -0.472  0.00  0.00     0.099 C 
ATOM      3  N1  <0> d          -2.489   3.973   0.028  0.00  0.00    -0.351 N 
ATOM      4  H1  <0> d          -3.444   3.477   0.255  0.00  0.00     0.166 HD
ATOM      5  C5  <0> d          -1.341   3.283   0.262  0.00  0.00     0.129 A 
ATOM      6  C6  <0> d          -0.121   3.952   0.274  0.00  0.00     0.105 A 
ATOM      7  C7  <0> d          -0.114   5.405   0.018  0.00  0.00     0.081 C 
ATOM      8  N2  <0> d           0.952   6.139   0.241  0.00  0.00    -0.265 N 
ATOM      9  C15 <0> d           1.068   3.228   0.524  0.00  0.00     0.267 A 
ATOM     10  O2  <0> d           2.147   3.793   0.542  0.00  0.00    -0.267 OA
ATOM     11  N3  <0> d           0.984   1.898   0.744  0.00  0.00    -0.270 N 
ATOM     12  C16 <0> d          -0.205   1.271   0.723  0.00  0.00     0.332 A 
ATOM     13  O3  <0> d          -0.243   0.072   0.922  0.00  0.00    -0.246 OA
ATOM     14  N4  <0> d          -1.354   1.930   0.483  0.00  0.00    -0.289 N 
ATOM     15  C17 <0> d          -2.623   1.199   0.465  0.00  0.00     0.163 C 
ATOM     16  C18 <0> d           2.203   1.129   1.007  0.00  0.00     0.164 C 
ATOM     17  H20 <0> d           1.079   7.098  -0.283  0.00  0.00     0.194 HD
ENDROOT
BRANCH   1  18
ATOM     18  C2  <0> d          -1.387   7.394  -1.053  0.00  0.00     0.038 C 
ATOM     19  C1  <0> d          -1.089   7.357  -2.553  0.00  0.00     0.010 C 
ENDBRANCH   1  18
BRANCH   8  20
ATOM     20  O1  <0> d           1.938   5.698   1.157  0.00  0.00    -0.275 OA
BRANCH  20  21
ATOM     21  C8  <0> d           3.041   6.595   1.302  0.00  0.00     0.239 C 
BRANCH  21  22
ATOM     22  C9  <0> d           4.022   6.027   2.295  0.00  0.00    -0.031 A 
ATOM     23  C14 <0> d           3.903   6.334   3.637  0.00  0.00     0.033 A 
ATOM     24  C13 <0> d           4.801   5.809   4.549  0.00  0.00     0.034 A 
ATOM     25  C12 <0> d           5.825   4.987   4.115  0.00  0.00     0.024 A 
ATOM     26 Cl1  <0> d           4.648   6.189   6.236  0.00  0.00    -0.084 Cl
ATOM     27  C11 <0> d           5.947   4.685   2.772  0.00  0.00     0.002 A 
ATOM     28  C10 <0> d           5.046   5.205   1.862  0.00  0.00     0.009 A 
ENDBRANCH  21  22
ENDBRANCH  20  21
ENDBRANCH   8  20
TORSDOF 4
