REMARK  9 active torsions:
REMARK  status: ('A' for Active; 'I' for Inactive)
REMARK    1  A    between atoms: C2_2  and  N1_3 
REMARK    2  A    between atoms: N1_3  and  C3_4 
REMARK    3  A    between atoms: N1_3  and  C5_6 
REMARK    4  A    between atoms: C5_6  and  C6_7 
REMARK    5  A    between atoms: C6_7  and  C7_8 
REMARK    6  A    between atoms: C7_8  and  N2_9 
REMARK       I    between atoms: N2_9  and  C9_11 
REMARK    7  A    between atoms: C9_11  and  C10_13 
REMARK    8  A    between atoms: C13_16  and  S2_18 
REMARK    9  A    between atoms: S2_18  and  N3_21 
ROOT
ATOM      1  N2  <0> d          -3.403  -4.784   0.079  0.00  0.00    -0.352 N 
ATOM      2  C8  <0> d          -4.123  -5.216  -1.122  0.00  0.00     0.152 C 
ATOM      3  C9  <0> d          -3.894  -5.075   1.300  0.00  0.00     0.260 C 
ATOM      4  O1  <0> d          -3.353  -4.630   2.295  0.00  0.00    -0.267 OA
ENDROOT
BRANCH   3   5
ATOM      5  C10 <0> d          -5.079  -5.927   1.430  0.00  0.00     0.080 A 
ATOM      6  S1  <0> d          -5.966  -6.818   0.166  0.00  0.00    -0.071 SA
ATOM      7  C13 <0> d          -7.155  -7.523   1.121  0.00  0.00     0.121 A 
ATOM      8  C12 <0> d          -6.882  -7.079   2.373  0.00  0.00     0.041 A 
ATOM      9  C11 <0> d          -5.807  -6.246   2.567  0.00  0.00    -0.037 A 
ATOM     10  C14 <0> d          -5.441  -5.712   3.928  0.00  0.00     0.050 C 
BRANCH   7  11
ATOM     11  S2  <0> d          -8.462  -8.589   0.612  0.00  0.00     0.263 S 
ATOM     12  O2  <0> d          -8.038  -9.203  -0.598  0.00  0.00    -0.200 OA
ATOM     13  O3  <0> d          -8.842  -9.342   1.756  0.00  0.00    -0.200 OA
BRANCH  11  14
ATOM     14  N3  <0> d          -9.756  -7.629   0.227  0.00  0.00    -0.324 N 
ATOM     15  H21 <0> d         -10.388  -7.915  -0.450  0.00  0.00     0.169 HD
ATOM     16  H22 <0> d          -9.881  -6.780   0.679  0.00  0.00     0.169 HD
ENDBRANCH  11  14
ENDBRANCH   7  11
ENDBRANCH   3   5
BRANCH   1  17
ATOM     17  C7  <0> d          -2.150  -4.036  -0.048  0.00  0.00     0.127 C 
BRANCH  17  18
ATOM     18  C6  <0> d          -2.453  -2.537  -0.094  0.00  0.00     0.048 C 
BRANCH  18  19
ATOM     19  C5  <0> d          -1.144  -1.756  -0.227  0.00  0.00     0.236 C 
BRANCH  19  20
ATOM     20  N1  <0> d          -1.442  -0.328  -0.402  0.00  0.00    -0.072 N 
ATOM     21  H26 <0> d          -2.078  -0.210  -1.177  0.00  0.00     0.279 HD
BRANCH  20  22
ATOM     22  C2  <0> d          -2.058   0.198   0.823  0.00  0.00     0.230 C 
ATOM     23  C1  <0> d          -2.482   1.651   0.597  0.00  0.00     0.034 C 
ENDBRANCH  20  22
BRANCH  20  24
ATOM     24  C3  <0> d          -0.197   0.401  -0.676  0.00  0.00     0.230 C 
ATOM     25  C4  <0> d           0.370  -0.046  -2.025  0.00  0.00     0.034 C 
ENDBRANCH  20  24
ENDBRANCH  19  20
ENDBRANCH  18  19
ENDBRANCH  17  18
ENDBRANCH   1  17
TORSDOF 9
