REMARK  7 active torsions:
REMARK  status: ('A' for Active; 'I' for Inactive)
REMARK    1  A    between atoms: N1_2  and  C2_3 
REMARK    2  A    between atoms: N1_2  and  C11_15 
REMARK    3  A    between atoms: C2_3  and  C3_4 
REMARK       I    between atoms: C3_4  and  N2_6 
REMARK    4  A    between atoms: N2_6  and  C4_7 
REMARK    5  A    between atoms: C9_12  and  S1_13 
REMARK    6  A    between atoms: C11_15  and  C12_16 
REMARK       I    between atoms: C12_16  and  N3_18 
REMARK       I    between atoms: N3_18  and  C13_19 
REMARK       I    between atoms: C13_19  and  N4_21 
REMARK    7  A    between atoms: N4_21  and  C14_22 
ROOT
ATOM      1  C14 <0> d           9.926  -0.285   1.250  0.00  0.00     0.057 A 
ATOM      2  C15 <0> d           9.870  -1.416   0.448  0.00  0.00     0.031 A 
ATOM      3  C16 <0> d          10.860  -2.374   0.533  0.00  0.00     0.002 A 
ATOM      4  C17 <0> d          11.909  -2.221   1.425  0.00  0.00     0.002 A 
ATOM      5  C18 <0> d          11.978  -1.107   2.234  0.00  0.00     0.025 A 
ATOM      6  C19 <0> d          10.987  -0.127   2.155  0.00  0.00     0.071 A 
ATOM      7  C20 <0> d          11.052   1.033   2.992  0.00  0.00     0.102 C 
ATOM      8  N5  <0> d          11.104   1.953   3.657  0.00  0.00    -0.191 NA
ENDROOT
BRANCH   1   9
ATOM      9  N4  <0> d           8.930   0.687   1.162  0.00  0.00    -0.307 N 
ATOM     10  C13 <0> d           7.657   0.326   0.903  0.00  0.00     0.327 C 
ATOM     11  N3  <0> d           6.716   1.269   0.707  0.00  0.00    -0.278 N 
ATOM     12  O3  <0> d           7.359  -0.851   0.845  0.00  0.00    -0.247 OA
ATOM     13  C12 <0> d           5.443   0.908   0.448  0.00  0.00     0.251 C 
ATOM     14  H16 <0> d           6.985   2.335   0.759  0.00  0.00     0.173 HD
ATOM     15  O2  <0> d           5.146  -0.266   0.391  0.00  0.00    -0.271 OA
ATOM     16  H17 <0> d           9.182   1.748   1.304  0.00  0.00     0.170 HD
BRANCH  13  17
ATOM     17  C11 <0> d           4.390   1.964   0.230  0.00  0.00     0.337 C 
BRANCH  17  18
ATOM     18  N1  <0> d           3.097   1.318  -0.033  0.00  0.00    -0.058 N 
ATOM     19  C1  <0> d           3.124   0.583  -1.305  0.00  0.00     0.270 C 
ATOM     20  H22 <0> d           2.912   0.593   0.773  0.00  0.00     0.280 HD
BRANCH  18  21
ATOM     21  C2  <0> d           2.005   2.301  -0.017  0.00  0.00     0.337 C 
BRANCH  21  22
ATOM     22  C3  <0> d           0.681   1.581  -0.043  0.00  0.00     0.248 C 
ATOM     23  O1  <0> d           0.650   0.369  -0.073  0.00  0.00    -0.271 OA
ATOM     24  N2  <0> d          -0.468   2.284  -0.039  0.00  0.00    -0.325 N 
ATOM     25  H6  <0> d          -0.442   3.380   0.052  0.00  0.00     0.169 HD
BRANCH  24  26
ATOM     26  C4  <0> d          -1.697   1.620  -0.151  0.00  0.00     0.051 A 
ATOM     27  C9  <0> d          -2.806   2.283  -0.677  0.00  0.00     0.026 A 
ATOM     28  C8  <0> d          -4.020   1.618  -0.785  0.00  0.00     0.021 A 
ATOM     29  C7  <0> d          -4.127   0.304  -0.372  0.00  0.00     0.002 A 
ATOM     30  C6  <0> d          -3.027  -0.353   0.148  0.00  0.00     0.002 A 
ATOM     31  C5  <0> d          -1.812   0.299   0.255  0.00  0.00     0.031 A 
BRANCH  27  32
ATOM     32  S1  <0> d          -2.666   3.959  -1.202  0.00  0.00    -0.132 SA
ATOM     33  C10 <0> d          -4.330   4.373  -1.795  0.00  0.00     0.095 C 
ENDBRANCH  27  32
ENDBRANCH  24  26
ENDBRANCH  21  22
ENDBRANCH  18  21
ENDBRANCH  17  18
ENDBRANCH  13  17
ENDBRANCH   1   9
TORSDOF 7
