REMARK  2 active torsions:
REMARK  status: ('A' for Active; 'I' for Inactive)
REMARK    1  A    between atoms: O1_2  and  C2_3 
REMARK    2  A    between atoms: C17_18  and  O2_19 
ROOT
ATOM      1  C2  <0> d           1.396   1.984  -0.001  0.00  0.00     0.073 C 
ATOM      2  C3  <0> d           1.766   2.315   1.220  0.00  0.00     0.047 C 
ATOM      3  C4  <0> d           0.634   2.019   2.206  0.00  0.00     0.158 C 
ATOM      4  C5  <0> d           0.604   3.160   3.247  0.00  0.00     0.046 C 
ATOM      5  C6  <0> d           1.836   2.824   4.124  0.00  0.00     0.030 C 
ATOM      6  C7  <0> d           2.104   1.325   3.883  0.00  0.00     0.236 C 
ATOM      7  C8  <0> d          -0.037   0.276   3.782  0.00  0.00     0.241 C 
ATOM      8  C9  <0> d          -1.008  -0.601   3.063  0.00  0.00     0.067 C 
ATOM      9  C10 <0> d          -2.071   0.151   2.325  0.00  0.00    -0.047 A 
ATOM     10  C11 <0> d          -3.351  -0.413   2.446  0.00  0.00     0.047 A 
ATOM     11  C12 <0> d          -4.440   0.321   2.022  0.00  0.00     0.105 A 
ATOM     12  C13 <0> d          -4.258   1.599   1.470  0.00  0.00     0.105 A 
ATOM     13  C14 <0> d          -2.992   2.116   1.300  0.00  0.00     0.048 A 
ATOM     14  C15 <0> d          -1.874   1.349   1.696  0.00  0.00    -0.039 A 
ATOM     15  C16 <0> d          -0.581   1.960   1.349  0.00  0.00     0.095 C 
ATOM     16  C17 <0> d          -0.017   1.425   0.010  0.00  0.00     0.185 C 
ATOM     17  O3  <0> d          -5.472   2.120   1.177  0.00  0.00    -0.323 OA
ATOM     18  C18 <0> d          -6.378   0.998   1.159  0.00  0.00     0.352 C 
ATOM     19  O4  <0> d          -5.761   0.036   2.040  0.00  0.00    -0.323 OA
ATOM     20  N1  <0> d           1.073   0.865   2.986  0.00  0.00    -0.058 N 
ATOM     21  H22 <0> d           1.451   0.149   2.354  0.00  0.00     0.281 HD
ENDROOT
BRANCH   1  22
ATOM     22  O1  <0> d           2.166   2.122  -1.109  0.00  0.00    -0.358 OA
ATOM     23  C1  <0> d           3.474   2.668  -0.925  0.00  0.00     0.209 C 
ENDBRANCH   1  22
BRANCH  16  24
ATOM     24  O2  <0> d           0.002  -0.004   0.002  0.00  0.00    -0.388 OA
ATOM     25  H19 <0> d           0.422  -0.387  -0.780  0.00  0.00     0.210 HD
ENDBRANCH  16  24
TORSDOF 2
