REMARK  6 active torsions:
REMARK  status: ('A' for Active; 'I' for Inactive)
REMARK    1  A    between atoms: C2_2  and  C3_3 
REMARK    2  A    between atoms: C2_2  and  N3_29 
REMARK       I    between atoms: C3_3  and  N1_5 
REMARK    3  A    between atoms: N1_5  and  C4_6 
REMARK    4  A    between atoms: C9_11  and  C10_12 
REMARK    5  A    between atoms: N2_17  and  C16_20 
REMARK    6  A    between atoms: C19_23  and  O3_26 
ROOT
ATOM      1  C12 <0> d           4.382   2.622  -1.379  0.00  0.00     0.250 C 
ATOM      2  C13 <0> d           5.673   3.442  -1.387  0.00  0.00     0.123 C 
ATOM      3  N2  <0> d           6.827   2.536  -1.299  0.00  0.00    -0.280 NA
ATOM      4  C14 <0> d           6.769   1.732  -0.070  0.00  0.00     0.123 C 
ATOM      5  C15 <0> d           5.477   0.912  -0.062  0.00  0.00     0.250 C 
ATOM      6  N3  <0> d           4.325   1.836  -0.129  0.00  0.00    -0.056 N 
ATOM      7  H26 <0> d           4.365   2.478   0.672  0.00  0.00     0.281 HD
ENDROOT
BRANCH   6   8
ATOM      8  C2  <0> d           3.060   1.072  -0.069  0.00  0.00     0.275 C 
ATOM      9  C1  <0> d           3.110  -0.121  -1.025  0.00  0.00     0.050 C 
BRANCH   8  10
ATOM     10  C3  <0> d           2.859   0.578   1.341  0.00  0.00     0.253 C 
ATOM     11  O1  <0> d           3.798   0.530   2.107  0.00  0.00    -0.271 OA
ATOM     12  N1  <0> d           1.635   0.189   1.750  0.00  0.00    -0.325 N 
ATOM     13  H5  <0> d           0.872   0.285   1.158  0.00  0.00     0.169 HD
BRANCH  12  14
ATOM     14  C4  <0> d           1.464  -0.345   3.024  0.00  0.00     0.048 A 
ATOM     15  C9  <0> d           0.642  -1.469   3.215  0.00  0.00     0.036 A 
ATOM     16  C8  <0> d           0.480  -1.995   4.502  0.00  0.00     0.017 A 
ATOM     17  C7  <0> d           1.125  -1.409   5.569  0.00  0.00     0.001 A 
ATOM     18  C6  <0> d           1.934  -0.300   5.375  0.00  0.00     0.002 A 
ATOM     19  C5  <0> d           2.109   0.227   4.112  0.00  0.00     0.030 A 
BRANCH  15  20
ATOM     20  C10 <0> d          -0.041  -2.088   2.072  0.00  0.00     0.158 C 
ATOM     21  O2  <0> d           0.150  -1.666   0.951  0.00  0.00    -0.293 OA
ATOM     22  C11 <0> d          -0.979  -3.246   2.293  0.00  0.00     0.097 C 
ENDBRANCH  15  20
ENDBRANCH  12  14
ENDBRANCH   8  10
ENDBRANCH   6   8
BRANCH   3  23
ATOM     23  C16 <0> d           8.030   3.247  -1.377  0.00  0.00     0.010 A 
ATOM     24  C21 <0> d           8.282   4.070  -2.466  0.00  0.00     0.026 A 
ATOM     25  C20 <0> d           9.469   4.771  -2.542  0.00  0.00     0.038 A 
ATOM     26  C19 <0> d          10.410   4.653  -1.530  0.00  0.00     0.065 A 
ATOM     27  C18 <0> d          10.160   3.831  -0.441  0.00  0.00     0.038 A 
ATOM     28  C17 <0> d           8.970   3.134  -0.361  0.00  0.00     0.026 A 
BRANCH  26  29
ATOM     29  O3  <0> d          11.579   5.344  -1.605  0.00  0.00    -0.361 OA
ATOM     30  H25 <0> d          11.544   6.222  -1.201  0.00  0.00     0.217 HD
ENDBRANCH  26  29
ENDBRANCH   3  23
TORSDOF 6
