REMARK  7 active torsions:
REMARK  status: ('A' for Active; 'I' for Inactive)
REMARK    1  A    between atoms: N1_2  and  C2_3 
REMARK    2  A    between atoms: N1_2  and  C10_13 
REMARK    3  A    between atoms: C2_3  and  C3_4 
REMARK    4  A    between atoms: C3_4  and  O1_5 
REMARK    5  A    between atoms: O1_5  and  C4_6 
REMARK    6  A    between atoms: C10_13  and  C11_14 
REMARK    7  A    between atoms: C14_17  and  N2_20 
ROOT
ATOM      1  C1  <0> d          -0.041   1.482   0.051  0.00  0.00     0.270 C 
ATOM      2  N1  <0> d           0.001   0.016   0.129  0.00  0.00    -0.069 N 
ATOM      3  H20 <0> d           0.472  -0.263   0.976  0.00  0.00     0.279 HD
ENDROOT
BRANCH   2   4
ATOM      4  C2  <0> d          -1.370  -0.513   0.133  0.00  0.00     0.261 C 
BRANCH   4   5
ATOM      5  C3  <0> d          -1.332  -2.023   0.375  0.00  0.00     0.203 C 
BRANCH   5   6
ATOM      6  O1  <0> d          -0.816  -2.284   1.681  0.00  0.00    -0.349 OA
BRANCH   6   7
ATOM      7  C4  <0> d          -0.716  -3.586   2.057  0.00  0.00     0.070 A 
ATOM      8  C9  <0> d          -0.222  -3.911   3.312  0.00  0.00     0.055 A 
ATOM      9  C8  <0> d          -0.128  -5.237   3.694  0.00  0.00     0.013 A 
ATOM     10  C7  <0> d          -0.513  -6.238   2.821  0.00  0.00     0.019 A 
ATOM     11 Br1  <0> d           0.536  -5.681   5.407  0.00  0.00    -0.051 Br
ATOM     12  C6  <0> d          -1.000  -5.916   1.567  0.00  0.00     0.004 A 
ATOM     13  C5  <0> d          -1.102  -4.593   1.183  0.00  0.00     0.037 A 
ENDBRANCH   6   7
ENDBRANCH   5   6
ENDBRANCH   4   5
ENDBRANCH   2   4
BRANCH   2  14
ATOM     14  C10 <0> d           0.727  -0.515  -1.033  0.00  0.00     0.273 C 
BRANCH  14  15
ATOM     15  C11 <0> d           2.166  -0.071  -0.971  0.00  0.00    -0.032 A 
ATOM     16  C16 <0> d           3.102  -0.854  -0.319  0.00  0.00     0.011 A 
ATOM     17  C15 <0> d           4.422  -0.453  -0.266  0.00  0.00     0.029 A 
ATOM     18  C14 <0> d           4.808   0.743  -0.858  0.00  0.00     0.025 A 
ATOM     19  C13 <0> d           3.864   1.529  -1.507  0.00  0.00     0.029 A 
ATOM     20  C12 <0> d           2.546   1.119  -1.562  0.00  0.00     0.011 A 
BRANCH  18  21
ATOM     21  N2  <0> d           6.142   1.154  -0.801  0.00  0.00    -0.399 N 
ATOM     22  H18 <0> d           6.410   1.989  -1.216  0.00  0.00     0.156 HD
ATOM     23  H19 <0> d           6.800   0.604  -0.348  0.00  0.00     0.156 HD
ENDBRANCH  18  21
ENDBRANCH  14  15
ENDBRANCH   2  14
TORSDOF 7
