REMARK  7 active torsions:
REMARK  status: ('A' for Active; 'I' for Inactive)
REMARK    1  A    between atoms: C3_3  and  O1_4 
REMARK    2  A    between atoms: O1_4  and  C4_5 
REMARK    3  A    between atoms: C7_8  and  C10_12 
REMARK    4  A    between atoms: N1_13  and  N2_14 
REMARK       I    between atoms: N2_14  and  C11_15 
REMARK    5  A    between atoms: C11_15  and  C12_17 
REMARK    6  A    between atoms: C12_17  and  C13_18 
REMARK    7  A    between atoms: C15_21  and  N4_23 
ROOT
ATOM      1  C1  <0> d           0.018  -1.178  -0.004  0.00  0.00     0.014 C 
ATOM      2  C2  <0> d           0.002  -0.004   0.002  0.00  0.00    -0.091 C 
ATOM      3  C3  <0> d          -0.018   1.468   0.010  0.00  0.00     0.268 C 
ENDROOT
BRANCH   3   4
ATOM      4  O1  <0> d           1.323   1.962  -0.000  0.00  0.00    -0.337 OA
BRANCH   4   5
ATOM      5  C4  <0> d           1.482   3.312   0.006  0.00  0.00     0.104 A 
ATOM      6  C9  <0> d           1.575   3.993   1.213  0.00  0.00     0.046 A 
ATOM      7  C8  <0> d           1.742   5.362   1.223  0.00  0.00     0.035 A 
ATOM      8 Br1  <0> d           1.479   3.041   2.844  0.00  0.00    -0.048 Br
ATOM      9  C7  <0> d           1.808   6.065   0.017  0.00  0.00    -0.014 A 
ATOM     10  C6  <0> d           1.708   5.376  -1.194  0.00  0.00     0.035 A 
ATOM     11  C5  <0> d           1.547   4.007  -1.196  0.00  0.00     0.046 A 
ATOM     12 Br2  <0> d           1.413   3.073  -2.835  0.00  0.00    -0.048 Br
BRANCH   9  13
ATOM     13  C10 <0> d           1.981   7.529   0.024  0.00  0.00     0.150 C 
ATOM     14  N1  <0> d           2.073   8.167   1.150  0.00  0.00    -0.184 NA
BRANCH  14  15
ATOM     15  N2  <0> d           2.237   9.558   1.156  0.00  0.00    -0.247 N 
ATOM     16  C11 <0> d           2.333  10.220   2.326  0.00  0.00     0.243 C 
ATOM     17  O2  <0> d           2.276   9.612   3.374  0.00  0.00    -0.271 OA
ATOM     18  H7  <0> d           2.283  10.045   0.318  0.00  0.00     0.192 HD
BRANCH  16  19
ATOM     19  C12 <0> d           2.510  11.717   2.332  0.00  0.00     0.164 C 
BRANCH  19  20
ATOM     20  C13 <0> d           2.589  12.207   3.755  0.00  0.00     0.052 A 
ATOM     21  N3  <0> d           1.639  11.934   4.633  0.00  0.00    -0.228 NA
ATOM     22  C15 <0> d           1.719  12.363   5.874  0.00  0.00     0.164 A 
ATOM     23  S1  <0> d           3.170  13.215   5.893  0.00  0.00    -0.062 SA
ATOM     24  C14 <0> d           3.634  12.952   4.189  0.00  0.00     0.081 A 
BRANCH  22  25
ATOM     25  N4  <0> d           0.823  12.165   6.913  0.00  0.00    -0.378 N 
ATOM     26  H11 <0> d           1.002  12.544   7.788  0.00  0.00     0.158 HD
ATOM     27  H12 <0> d           0.015  11.648   6.765  0.00  0.00     0.158 HD
ENDBRANCH  22  25
ENDBRANCH  19  20
ENDBRANCH  16  19
ENDBRANCH  14  15
ENDBRANCH   9  13
ENDBRANCH   4   5
ENDBRANCH   3   4
TORSDOF 7
