REMARK  5 active torsions:
REMARK  status: ('A' for Active; 'I' for Inactive)
REMARK    1  A    between atoms: C2_2  and  C3_3 
REMARK    2  A    between atoms: C2_2  and  O3_20 
REMARK       I    between atoms: C3_3  and  N1_5 
REMARK    3  A    between atoms: N1_5  and  N2_6 
REMARK       I    between atoms: N2_6  and  C4_7 
REMARK       I    between atoms: C4_7  and  N3_9 
REMARK    4  A    between atoms: N3_9  and  C5_10 
REMARK    5  A    between atoms: O3_20  and  C13_21 
ROOT
ATOM      1  N2  <0> d           0.979  -1.133  -3.559  0.00  0.00    -0.249 N 
ATOM      2  C4  <0> d           0.447  -1.095  -4.797  0.00  0.00     0.335 C 
ATOM      3  O2  <0> d           1.093  -1.488  -5.749  0.00  0.00    -0.246 OA
ATOM      4  N3  <0> d          -0.802  -0.621  -4.979  0.00  0.00    -0.333 N 
ATOM      5  H7  <0> d           1.878  -1.474  -3.428  0.00  0.00     0.192 HD
ATOM      6  H8  <0> d          -1.317  -0.307  -4.220  0.00  0.00     0.165 HD
ENDROOT
BRANCH   1   7
ATOM      7  N1  <0> d           0.234  -0.679  -2.462  0.00  0.00    -0.264 N 
ATOM      8  C3  <0> d           0.767  -0.717  -1.225  0.00  0.00     0.265 C 
ATOM      9  O1  <0> d           1.890  -1.143  -1.060  0.00  0.00    -0.269 OA
ATOM     10  H6  <0> d          -0.664  -0.338  -2.594  0.00  0.00     0.190 HD
BRANCH   8  11
ATOM     11  C2  <0> d          -0.034  -0.229  -0.045  0.00  0.00     0.218 C 
ATOM     12  C1  <0> d          -0.289   1.273  -0.187  0.00  0.00     0.050 C 
BRANCH  11  13
ATOM     13  O3  <0> d           0.693  -0.477   1.160  0.00  0.00    -0.334 OA
BRANCH  13  14
ATOM     14  C13 <0> d          -0.031  -0.600   2.304  0.00  0.00     0.108 A 
ATOM     15  C18 <0> d           0.597  -0.960   3.490  0.00  0.00     0.149 A 
ATOM     16  C17 <0> d          -0.142  -1.077   4.653  0.00  0.00     0.045 A 
ATOM     17  F1  <0> d           1.928  -1.189   3.508  0.00  0.00    -0.203 F 
ATOM     18  C16 <0> d          -1.505  -0.848   4.633  0.00  0.00     0.003 A 
ATOM     19  C15 <0> d          -2.132  -0.496   3.452  0.00  0.00     0.003 A 
ATOM     20  C14 <0> d          -1.398  -0.371   2.288  0.00  0.00     0.040 A 
ENDBRANCH  13  14
ENDBRANCH  11  13
ENDBRANCH   8  11
ENDBRANCH   1   7
BRANCH   4  21
ATOM     21  C5  <0> d          -1.380  -0.580  -6.325  0.00  0.00     0.123 C 
ATOM     22  C10 <0> d          -0.966   0.694  -7.017  0.00  0.00     0.008 A 
ATOM     23  C9  <0> d          -1.808   1.474  -7.744  0.00  0.00     0.040 A 
ATOM     24  C11 <0> d           0.296   1.284  -7.041  0.00  0.00     0.150 A 
ATOM     25  C8  <0> d          -3.269   1.168  -7.960  0.00  0.00     0.059 C 
ATOM     26  N5  <0> d          -1.103   2.520  -8.207  0.00  0.00    -0.278 N 
ATOM     27  C7  <0> d          -3.513  -0.303  -7.605  0.00  0.00     0.008 C 
ATOM     28  C6  <0> d          -2.911  -0.604  -6.230  0.00  0.00     0.030 C 
ATOM     29  N4  <0> d           0.219   2.380  -7.755  0.00  0.00    -0.184 NA
ATOM     30  C12 <0> d          -1.622   3.610  -9.037  0.00  0.00     0.179 C 
ENDBRANCH   4  21
TORSDOF 5
