REMARK  6 active torsions:
REMARK  status: ('A' for Active; 'I' for Inactive)
REMARK    1  A    between atoms: C2_2  and  C3_3 
REMARK    2  A    between atoms: C2_2  and  N4_23 
REMARK    3  A    between atoms: C3_3  and  N1_4 
REMARK       I    between atoms: N1_4  and  C4_5 
REMARK    4  A    between atoms: C4_5  and  C5_7 
REMARK       I    between atoms: C5_7  and  N2_9 
REMARK    5  A    between atoms: N2_9  and  C6_10 
REMARK    6  A    between atoms: C9_13  and  N3_16 
ROOT
ATOM      1  C5  <0> d           0.707  -4.466   2.263  0.00  0.00     0.313 C 
ATOM      2  O2  <0> d           0.074  -4.914   1.329  0.00  0.00    -0.262 OA
ATOM      3  N2  <0> d           1.147  -5.290   3.235  0.00  0.00    -0.319 N 
ATOM      4  H8  <0> d           1.710  -4.944   3.945  0.00  0.00     0.169 HD
ENDROOT
BRANCH   1   5
ATOM      5  C4  <0> d           0.998  -3.004   2.335  0.00  0.00     0.309 C 
ATOM      6  N1  <0> d           0.558  -2.180   1.363  0.00  0.00    -0.351 N 
ATOM      7  H7  <0> d           0.053  -2.538   0.616  0.00  0.00     0.162 HD
ATOM      8  O1  <0> d           1.630  -2.556   3.269  0.00  0.00    -0.262 OA
BRANCH   6   9
ATOM      9  C3  <0> d           0.844  -0.745   1.434  0.00  0.00     0.155 C 
BRANCH   9  10
ATOM     10  C2  <0> d           0.135  -0.027   0.284  0.00  0.00     0.202 C 
ATOM     11  C1  <0> d           0.732  -0.484  -1.048  0.00  0.00     0.042 C 
BRANCH  10  12
ATOM     12  N4  <0> d           0.313   1.424   0.429  0.00  0.00    -0.066 N 
ATOM     13  C18 <0> d          -0.170   1.868   1.754  0.00  0.00     0.235 C 
ATOM     14  C17 <0> d          -0.800   3.260   1.562  0.00  0.00     0.029 C 
ATOM     15  C16 <0> d          -0.671   3.557   0.051  0.00  0.00     0.029 C 
ATOM     16  C15 <0> d          -0.519   2.145  -0.568  0.00  0.00     0.235 C 
ATOM     17  H27 <0> d           1.285   1.669   0.313  0.00  0.00     0.280 HD
ENDBRANCH  10  12
ENDBRANCH   9  10
ENDBRANCH   6   9
ENDBRANCH   1   5
BRANCH   3  18
ATOM     18  C6  <0> d           0.790  -6.642   3.221  0.00  0.00     0.035 A 
ATOM     19  C11 <0> d           0.663  -7.314   2.012  0.00  0.00     0.032 A 
ATOM     20  C10 <0> d           0.316  -8.650   1.998  0.00  0.00     0.032 A 
ATOM     21  C9  <0> d           0.083  -9.320   3.192  0.00  0.00     0.044 A 
ATOM     22  C8  <0> d           0.204  -8.647   4.401  0.00  0.00     0.032 A 
ATOM     23  C7  <0> d           0.557  -7.312   4.415  0.00  0.00     0.032 A 
BRANCH  21  24
ATOM     24  N3  <0> d          -0.273 -10.672   3.178  0.00  0.00    -0.276 N 
ATOM     25  S1  <0> d          -1.020 -11.507   1.931  0.00  0.00     0.233 S 
ATOM     26  C14 <0> d          -1.260 -13.154   2.712  0.00  0.00     0.165 C 
ATOM     27  O3  <0> d          -2.268 -10.856   1.733  0.00  0.00    -0.205 OA
ATOM     28  O4  <0> d          -0.055 -11.580   0.891  0.00  0.00    -0.205 OA
ATOM     29  C13 <0> d          -1.159 -12.747   4.213  0.00  0.00     0.038 C 
ATOM     30  C12 <0> d          -0.074 -11.655   4.258  0.00  0.00     0.142 C 
ENDBRANCH  21  24
ENDBRANCH   3  18
TORSDOF 6
