REMARK  4 active torsions:
REMARK  status: ('A' for Active; 'I' for Inactive)
REMARK    1  A    between atoms: C2_2  and  C10_16 
REMARK    2  A    between atoms: C4_6  and  N3_7 
REMARK    3  A    between atoms: N3_7  and  C5_8 
REMARK    4  A    between atoms: C5_8  and  C6_9 
ROOT
ATOM      1  C1  <0> d          -0.017   1.392   0.010  0.00  0.00     0.077 A 
ATOM      2  C2  <0> d           1.190   2.064   0.002  0.00  0.00     0.043 A 
ATOM      3  N1  <0> d           2.318   1.368  -0.013  0.00  0.00    -0.246 NA
ATOM      4  C3  <0> d           2.302   0.050  -0.020  0.00  0.00     0.235 A 
ATOM      5  N2  <0> d           1.175  -0.632  -0.013  0.00  0.00    -0.225 NA
ATOM      6  C4  <0> d           0.002  -0.004   0.002  0.00  0.00     0.126 A 
ENDROOT
BRANCH   6   7
ATOM      7  N3  <0> d          -1.181  -0.724   0.010  0.00  0.00    -0.374 N 
ATOM      8  H4  <0> d          -1.159  -1.694   0.004  0.00  0.00     0.161 HD
BRANCH   7   9
ATOM      9  C5  <0> d          -2.467  -0.021   0.026  0.00  0.00     0.126 C 
BRANCH   9  10
ATOM     10  C6  <0> d          -3.607  -1.041   0.032  0.00  0.00     0.018 C 
ATOM     11  C9  <0> d          -4.959  -0.301  -0.101  0.00  0.00     0.146 C 
ATOM     12  S1  <0> d          -6.104  -1.376   0.856  0.00  0.00     0.144 S 
ATOM     13  C8  <0> d          -4.904  -2.633   1.467  0.00  0.00     0.141 C 
ATOM     14  O1  <0> d          -6.608  -0.642   1.964  0.00  0.00    -0.228 OA
ATOM     15  O2  <0> d          -7.012  -2.001  -0.040  0.00  0.00    -0.228 OA
ATOM     16  C7  <0> d          -3.572  -1.837   1.348  0.00  0.00     0.022 C 
ENDBRANCH   9  10
ENDBRANCH   7   9
ENDBRANCH   6   7
BRANCH   2  17
ATOM     17  C10 <0> d           1.224   3.571   0.009  0.00  0.00     0.041 C 
ATOM     18  C14 <0> d           1.096   4.093  -1.425  0.00  0.00     0.038 C 
ATOM     19  C13 <0> d           1.051   5.622  -1.403  0.00  0.00     0.233 C 
ATOM     20  N4  <0> d          -0.102   6.070  -0.613  0.00  0.00    -0.075 N 
ATOM     21  C12 <0> d           0.049   5.634   0.780  0.00  0.00     0.233 C 
ATOM     22  H18 <0> d          -0.947   5.675  -0.999  0.00  0.00     0.277 HD
ATOM     23  H23 <0> d          -0.160   7.077  -0.645  0.00  0.00     0.277 HD
ATOM     24  C11 <0> d           0.055   4.105   0.842  0.00  0.00     0.038 C 
ENDBRANCH   2  17
TORSDOF 4
