REMARK  4 active torsions:
REMARK  status: ('A' for Active; 'I' for Inactive)
REMARK    1  A    between atoms: C4_4  and  C17_19 
REMARK    2  A    between atoms: C5_5  and  N1_8 
REMARK    3  A    between atoms: C10_11  and  N2_13 
REMARK    4  A    between atoms: C17_19  and  N3_20 
ROOT
ATOM      1  C1  <0> d           1.165   2.473   0.439  0.00  0.00     0.000 C 
ATOM      2  C2  <0> d           1.115   1.536  -0.785  0.00  0.00     0.000 C 
ATOM      3  C3  <0> d           2.507   1.034  -1.060  0.00  0.00     0.008 C 
ATOM      4  C4  <0> d           2.786  -0.325  -0.390  0.00  0.00     0.044 C 
ATOM      5  C5  <0> d           2.227  -0.411   1.043  0.00  0.00     0.228 C 
ATOM      6  C6  <0> d           2.453   0.854   1.827  0.00  0.00     0.036 C 
ATOM      7  C7  <0> d           1.199   1.742   1.697  0.00  0.00     0.002 C 
ENDROOT
BRANCH   5   8
ATOM      8  N1  <0> d           2.881  -1.525   1.742  0.00  0.00     0.095 N 
ATOM      9  C11 <0> d           2.596  -2.812   1.071  0.00  0.00     0.306 C 
ATOM     10  C10 <0> d           2.509  -3.885   2.172  0.00  0.00     0.218 C 
ATOM     11  C9  <0> d           2.728  -3.123   3.498  0.00  0.00     0.065 C 
ATOM     12  C8  <0> d           2.358  -1.665   3.126  0.00  0.00     0.275 C 
BRANCH  10  13
ATOM     13  N2  <0> d           3.558  -4.897   1.985  0.00  0.00    -0.065 N 
ATOM     14  C16 <0> d           3.497  -5.871   3.082  0.00  0.00     0.235 C 
ATOM     15  C15 <0> d           4.638  -6.880   2.937  0.00  0.00     0.028 C 
ATOM     16  C14 <0> d           4.501  -7.608   1.596  0.00  0.00     0.003 C 
ATOM     17  C13 <0> d           4.491  -6.576   0.465  0.00  0.00     0.028 C 
ATOM     18  C12 <0> d           3.355  -5.578   0.701  0.00  0.00     0.235 C 
ATOM     19  H35 <0> d           4.461  -4.447   1.986  0.00  0.00     0.280 HD
ENDBRANCH  10  13
ENDBRANCH   5   8
BRANCH   4  20
ATOM     20  C17 <0> d           4.299  -0.548  -0.341  0.00  0.00     0.236 C 
BRANCH  20  21
ATOM     21  N3  <0> d           4.821  -0.674  -1.708  0.00  0.00    -0.079 N 
ATOM     22  H32 <0> d           5.818  -0.821  -1.676  0.00  0.00     0.274 HD
ATOM     23  H33 <0> d           4.380  -1.458  -2.166  0.00  0.00     0.274 HD
ATOM     24  H34 <0> d           4.622   0.171  -2.223  0.00  0.00     0.274 HD
ENDBRANCH  20  21
ENDBRANCH   4  20
TORSDOF 4
