REMARK  3 active torsions:
REMARK  status: ('A' for Active; 'I' for Inactive)
REMARK    1  A    between atoms: C2_2  and  N1_3 
REMARK    2  A    between atoms: C7_9  and  C11_16 
REMARK    3  A    between atoms: C12_18  and  C13_21 
ROOT
ATOM      1  N1  <0> d           0.688  -0.476  -1.203  0.00  0.00    -0.266 N 
ATOM      2  C3  <0> d          -0.026  -0.696  -2.329  0.00  0.00     0.264 A 
ATOM      3  O1  <0> d          -1.227  -0.506  -2.352  0.00  0.00    -0.267 OA
ATOM      4  C4  <0> d           0.688  -1.170  -3.528  0.00  0.00     0.059 A 
ATOM      5  C5  <0> d           0.023  -1.419  -4.726  0.00  0.00     0.020 A 
ATOM      6  C6  <0> d           0.737  -1.861  -5.820  0.00  0.00     0.013 A 
ATOM      7  C7  <0> d           2.106  -2.059  -5.731  0.00  0.00    -0.005 A 
ATOM      8  C8  <0> d           2.777  -1.817  -4.549  0.00  0.00     0.042 A 
ATOM      9  C9  <0> d           2.076  -1.371  -3.439  0.00  0.00     0.052 A 
ATOM     10  N2  <0> d           2.712  -1.115  -2.232  0.00  0.00    -0.307 N 
ATOM     11  H1  <0> d           3.670  -1.249  -2.156  0.00  0.00     0.170 HD
ATOM     12  C10 <0> d           2.014  -0.678  -1.170  0.00  0.00     0.329 A 
ATOM     13  O2  <0> d           2.610  -0.461  -0.132  0.00  0.00    -0.246 OA
ENDROOT
BRANCH   7  14
ATOM     14  C11 <0> d           2.870  -2.545  -6.936  0.00  0.00     0.286 A 
ATOM     15  O3  <0> d           2.860  -3.979  -6.986  0.00  0.00    -0.248 OA
ATOM     16  N4  <0> d           2.211  -4.310  -8.205  0.00  0.00    -0.247 N 
ATOM     17  C12 <0> d           1.855  -3.151  -8.849  0.00  0.00     0.134 A 
ATOM     18  H11 <0> d           2.046  -5.209  -8.531  0.00  0.00     0.196 HD
ATOM     19  N3  <0> d           2.206  -2.104  -8.169  0.00  0.00    -0.342 N 
ATOM     20  H16 <0> d           2.056  -1.183  -8.432  0.00  0.00     0.164 HD
BRANCH  17  21
ATOM     21  C13 <0> d           1.157  -3.103 -10.154  0.00  0.00     0.011 A 
ATOM     22  C18 <0> d           0.288  -4.129 -10.522  0.00  0.00     0.039 A 
ATOM     23  C17 <0> d          -0.364  -4.075 -11.738  0.00  0.00     0.035 A 
ATOM     24  C16 <0> d          -0.148  -3.010 -12.596  0.00  0.00     0.024 A 
ATOM     25 Cl1  <0> d          -1.452  -5.348 -12.196  0.00  0.00    -0.084 Cl
ATOM     26  C15 <0> d           0.718  -1.992 -12.238  0.00  0.00     0.003 A 
ATOM     27  C14 <0> d           1.371  -2.032 -11.023  0.00  0.00     0.015 A 
ENDBRANCH  17  21
ENDBRANCH   7  14
BRANCH   1  28
ATOM     28  C2  <0> d           0.002  -0.004   0.002  0.00  0.00     0.132 C 
ATOM     29  C1  <0> d          -0.019   1.526   0.010  0.00  0.00     0.027 C 
ENDBRANCH   1  28
TORSDOF 3
