REMARK  5 active torsions:
REMARK  status: ('A' for Active; 'I' for Inactive)
REMARK    1  A    between atoms: C5_5  and  C6_7 
REMARK    2  A    between atoms: C6_7  and  C7_8 
REMARK    3  A    between atoms: C6_7  and  N4_24 
REMARK    4  A    between atoms: C7_8  and  N1_9 
REMARK       I    between atoms: N1_9  and  C8_10 
REMARK    5  A    between atoms: C8_10  and  C9_12 
ROOT
ATOM      1  N1  <0> d           3.248  -4.589   1.307  0.00  0.00    -0.358 N 
ATOM      2  C8  <0> d           3.862  -5.017   2.429  0.00  0.00     0.221 C 
ATOM      3  O2  <0> d           3.660  -4.452   3.483  0.00  0.00    -0.273 OA
ATOM      4  H9  <0> d           3.410  -5.041   0.464  0.00  0.00     0.162 HD
ENDROOT
BRANCH   1   5
ATOM      5  C7  <0> d           2.338  -3.443   1.362  0.00  0.00     0.162 C 
BRANCH   5   6
ATOM      6  C6  <0> d           1.679  -3.250  -0.005  0.00  0.00     0.262 C 
BRANCH   6   7
ATOM      7  C5  <0> d           0.797  -4.434  -0.309  0.00  0.00     0.086 A 
ATOM      8  C4  <0> d           1.118  -5.470  -1.104  0.00  0.00     0.037 A 
ATOM      9  C3  <0> d           0.007  -6.345  -1.105  0.00  0.00     0.035 A 
ATOM     10  C2  <0> d          -0.926  -5.790  -0.312  0.00  0.00     0.049 A 
ATOM     11  C1  <0> d          -2.285  -6.370  -0.011  0.00  0.00     0.076 C 
ATOM     12  O1  <0> d          -0.445  -4.630   0.163  0.00  0.00    -0.318 OA
ENDBRANCH   6   7
BRANCH   6  13
ATOM     13  N4  <0> d           0.867  -2.026   0.011  0.00  0.00    -0.059 N 
ATOM     14  C20 <0> d           0.228  -1.819  -1.307  0.00  0.00     0.236 C 
ATOM     15  C19 <0> d           0.198  -0.301  -1.561  0.00  0.00     0.029 C 
ATOM     16  C18 <0> d           0.882   0.329  -0.327  0.00  0.00     0.029 C 
ATOM     17  C17 <0> d           1.733  -0.840   0.232  0.00  0.00     0.236 C 
ATOM     18  H29 <0> d           0.164  -2.084   0.733  0.00  0.00     0.280 HD
ENDBRANCH   6  13
ENDBRANCH   5   6
ENDBRANCH   1   5
BRANCH   2  19
ATOM     19  C9  <0> d           4.798  -6.196   2.373  0.00  0.00     0.078 C 
ATOM     20  C14 <0> d           5.356  -6.471   3.771  0.00  0.00     0.017 C 
ATOM     21  C13 <0> d           6.316  -7.662   3.711  0.00  0.00     0.042 C 
ATOM     22  C12 <0> d           5.577  -8.889   3.189  0.00  0.00     0.116 A 
ATOM     23  C11 <0> d           4.994  -8.621   1.806  0.00  0.00     0.042 C 
ATOM     24  N3  <0> d           6.474 -10.052   3.152  0.00  0.00    -0.325 N 
ATOM     25  C15 <0> d           4.486  -9.298   4.152  0.00  0.00     0.254 A 
ATOM     26  C10 <0> d           4.039  -7.427   1.874  0.00  0.00     0.017 C 
ATOM     27  C16 <0> d           5.943 -10.969   3.983  0.00  0.00     0.323 A 
ATOM     28  H20 <0> d           7.288 -10.141   2.632  0.00  0.00     0.165 HD
ATOM     29  N2  <0> d           4.810 -10.544   4.555  0.00  0.00    -0.277 N 
ATOM     30  O4  <0> d           6.436 -12.060   4.190  0.00  0.00    -0.247 OA
ATOM     31  H19 <0> d           4.286 -11.067   5.182  0.00  0.00     0.173 HD
ATOM     32  O3  <0> d           3.524  -8.643   4.490  0.00  0.00    -0.270 OA
ENDBRANCH   2  19
TORSDOF 5
