REMARK  5 active torsions:
REMARK  status: ('A' for Active; 'I' for Inactive)
REMARK    1  A    between atoms: C2_2  and  C5_5 
REMARK    2  A    between atoms: C5_5  and  C6_6 
REMARK    3  A    between atoms: C5_5  and  O1_8 
REMARK    4  A    between atoms: C6_6  and  N1_7 
REMARK    5  A    between atoms: O1_8  and  C7_9 
ROOT
ATOM      1  C5  <0> d           0.728  -0.503  -1.265  0.00  0.00     0.161 C 
ENDROOT
BRANCH   1   2
ATOM      2  C2  <0> d           0.083   0.068  -0.000  0.00  0.00    -0.023 C 
ATOM      3  C1  <0> d           0.149   1.596  -0.038  0.00  0.00     0.017 C 
ATOM      4  C3  <0> d           0.833  -0.445   1.231  0.00  0.00     0.017 C 
ATOM      5  C4  <0> d          -1.379  -0.378   0.072  0.00  0.00     0.017 C 
ENDBRANCH   1   2
BRANCH   1   6
ATOM      6  C6  <0> d           2.190  -0.057  -1.337  0.00  0.00     0.262 C 
BRANCH   6   7
ATOM      7  N1  <0> d           2.809  -0.605  -2.551  0.00  0.00    -0.077 N 
ATOM      8  H13 <0> d           2.766  -1.613  -2.526  0.00  0.00     0.274 HD
ATOM      9  H14 <0> d           2.315  -0.267  -3.363  0.00  0.00     0.274 HD
ATOM     10  H19 <0> d           3.774  -0.311  -2.598  0.00  0.00     0.274 HD
ENDBRANCH   6   7
ENDBRANCH   1   6
BRANCH   1  11
ATOM     11  O1  <0> d           0.027  -0.024  -2.414  0.00  0.00    -0.344 OA
BRANCH  11  12
ATOM     12  C7  <0> d          -0.884  -0.863  -2.975  0.00  0.00     0.069 A 
ATOM     13  C12 <0> d          -1.184  -2.071  -2.364  0.00  0.00     0.038 A 
ATOM     14  C11 <0> d          -2.113  -2.920  -2.933  0.00  0.00     0.021 A 
ATOM     15  C10 <0> d          -2.738  -2.570  -4.117  0.00  0.00     0.006 A 
ATOM     16  C9  <0> d          -2.437  -1.367  -4.730  0.00  0.00     0.021 A 
ATOM     17  I1  <0> d          -4.142  -3.862  -4.981  0.00  0.00    -0.045 I 
ATOM     18  C8  <0> d          -1.511  -0.513  -4.162  0.00  0.00     0.038 A 
ENDBRANCH  11  12
ENDBRANCH   1  11
TORSDOF 5
