REMARK  7 active torsions:
REMARK  status: ('A' for Active; 'I' for Inactive)
REMARK    1  A    between atoms: C7_7  and  N1_8 
REMARK       I    between atoms: N1_8  and  C8_9 
REMARK    2  A    between atoms: C8_9  and  C9_11 
REMARK    3  A    between atoms: N4_24  and  C20_27 
REMARK    4  A    between atoms: C19_25  and  N5_26 
REMARK    5  A    between atoms: C20_27  and  C21_28 
REMARK    6  A    between atoms: C21_28  and  C22_29 
REMARK    7  A    between atoms: C25_32  and  O3_35 
ROOT
ATOM      1  C9  <0> d          -0.158   0.034   4.852  0.00  0.00     0.077 A 
ATOM      2  C10 <0> d          -0.287   1.425   4.861  0.00  0.00     0.042 A 
ATOM      3  C11 <0> d          -0.393   2.062   6.095  0.00  0.00     0.080 A 
ATOM      4  C12 <0> d          -0.366   1.296   7.291  0.00  0.00     0.149 A 
ATOM      5  N2  <0> d          -0.468   1.928   8.465  0.00  0.00    -0.212 NA
ATOM      6  C13 <0> d          -0.594   3.247   8.550  0.00  0.00     0.139 A 
ATOM      7  C14 <0> d          -0.695   3.832   9.831  0.00  0.00     0.051 A 
ATOM      8  C15 <0> d          -0.825   5.182   9.945  0.00  0.00     0.005 A 
ATOM      9  C16 <0> d          -0.855   5.977   8.790  0.00  0.00     0.018 A 
ATOM     10  C17 <0> d          -0.757   5.404   7.571  0.00  0.00     0.102 A 
ATOM     11  N3  <0> d          -0.627   4.051   7.442  0.00  0.00    -0.273 N 
ATOM     12  C18 <0> d          -0.531   3.515   6.203  0.00  0.00     0.267 A 
ATOM     13  O2  <0> d          -0.560   4.220   5.210  0.00  0.00    -0.267 OA
ATOM     14  N4  <0> d          -0.241  -0.031   7.232  0.00  0.00    -0.316 N 
ATOM     15  C19 <0> d          -0.144  -0.666   6.079  0.00  0.00     0.118 A 
ENDROOT
BRANCH   1  16
ATOM     16  C8  <0> d          -0.043  -0.694   3.578  0.00  0.00     0.260 C 
ATOM     17  N1  <0> d           0.052  -0.013   2.419  0.00  0.00    -0.322 N 
ATOM     18  H8  <0> d           0.108   0.955   2.428  0.00  0.00     0.169 HD
ATOM     19  O1  <0> d          -0.034  -1.911   3.572  0.00  0.00    -0.267 OA
BRANCH  17  20
ATOM     20  C7  <0> d           0.070  -0.703   1.202  0.00  0.00     0.041 A 
ATOM     21  C2  <0> d          -0.533  -0.151   0.080  0.00  0.00    -0.035 A 
ATOM     22  C1  <0> d          -1.209   1.193   0.172  0.00  0.00     0.050 C 
ATOM     23  C3  <0> d          -0.508  -0.832  -1.121  0.00  0.00     0.009 A 
ATOM     24  C4  <0> d           0.111  -2.065  -1.206  0.00  0.00     0.001 A 
ATOM     25  C5  <0> d           0.708  -2.621  -0.089  0.00  0.00     0.002 A 
ATOM     26  C6  <0> d           0.687  -1.945   1.115  0.00  0.00     0.030 A 
ENDBRANCH  17  20
ENDBRANCH   1  16
BRANCH  15  27
ATOM     27  N5  <0> d          -0.021  -2.040   6.072  0.00  0.00    -0.384 N 
ATOM     28  H14 <0> d          -0.023  -2.522   5.231  0.00  0.00     0.157 HD
ATOM     29  H26 <0> d           0.067  -2.523   6.908  0.00  0.00     0.157 HD
ENDBRANCH  15  27
BRANCH  14  30
ATOM     30  C20 <0> d          -0.215  -0.803   8.477  0.00  0.00     0.137 C 
BRANCH  30  31
ATOM     31  C21 <0> d          -1.641  -1.205   8.857  0.00  0.00     0.059 C 
BRANCH  31  32
ATOM     32  C22 <0> d          -1.615  -1.999  10.137  0.00  0.00    -0.057 A 
ATOM     33  C27 <0> d          -1.720  -1.351  11.354  0.00  0.00     0.010 A 
ATOM     34  C26 <0> d          -1.702  -2.077  12.529  0.00  0.00     0.037 A 
ATOM     35  C25 <0> d          -1.567  -3.457  12.488  0.00  0.00     0.068 A 
ATOM     36  C24 <0> d          -1.456  -4.105  11.267  0.00  0.00     0.037 A 
ATOM     37  C23 <0> d          -1.480  -3.375  10.094  0.00  0.00     0.010 A 
BRANCH  35  38
ATOM     38  O3  <0> d          -1.544  -4.173  13.643  0.00  0.00    -0.356 OA
ATOM     39  C28 <0> d          -1.663  -3.439  14.864  0.00  0.00     0.210 C 
ENDBRANCH  35  38
ENDBRANCH  31  32
ENDBRANCH  30  31
ENDBRANCH  14  30
TORSDOF 7
