REMARK  2 active torsions:
REMARK  status: ('A' for Active; 'I' for Inactive)
REMARK    1  A    between atoms: C5_6  and  N1_10 
REMARK    2  A    between atoms: C9_11  and  N3_19 
ROOT
ATOM      1  N1  <0> d          -2.264  -0.286  -0.899  0.00  0.00    -0.276 N 
ATOM      2  C9  <0> d          -3.509   0.042  -0.422  0.00  0.00     0.110 A 
ATOM      3  C10 <0> d          -4.423   0.611  -1.265  0.00  0.00     0.122 A 
ATOM      4  C11 <0> d          -4.063   0.847  -2.601  0.00  0.00     0.252 A 
ATOM      5  O1  <0> d          -4.861   1.355  -3.371  0.00  0.00    -0.268 OA
ATOM      6  N2  <0> d          -2.830   0.510  -3.028  0.00  0.00    -0.275 N 
ATOM      7  H2  <0> d          -2.579   0.673  -3.951  0.00  0.00     0.173 HD
ATOM      8  C12 <0> d          -1.941  -0.044  -2.183  0.00  0.00     0.331 A 
ATOM      9  O2  <0> d          -0.832  -0.336  -2.587  0.00  0.00    -0.246 OA
ENDROOT
BRANCH   1  10
ATOM     10  C5  <0> d          -1.278  -0.897  -0.004  0.00  0.00     0.130 C 
ATOM     11  C4  <0> d           0.006  -0.072  -0.017  0.00  0.00    -0.021 A 
ATOM     12  C1  <0> d           0.017   1.323  -0.010  0.00  0.00     0.017 A 
ATOM     13  C3  <0> d           1.218  -0.690  -0.038  0.00  0.00    -0.009 A 
ATOM     14  C2  <0> d           1.193   1.991  -0.025  0.00  0.00     0.051 A 
ATOM     15  S1  <0> d           2.376   0.652  -0.050  0.00  0.00    -0.106 SA
ATOM     16  C8  <0> d           1.492  -2.158  -0.048  0.00  0.00     0.047 C 
ATOM     17  C7  <0> d           0.200  -2.893   0.339  0.00  0.00     0.007 C 
ATOM     18  C6  <0> d          -0.958  -2.314  -0.479  0.00  0.00     0.031 C 
ENDBRANCH   1  10
BRANCH   2  19
ATOM     19  N3  <0> d          -3.834  -0.200   0.888  0.00  0.00    -0.385 N 
ATOM     20  H12 <0> d          -3.158  -0.523   1.504  0.00  0.00     0.157 HD
ATOM     21  H13 <0> d          -4.740  -0.049   1.199  0.00  0.00     0.157 HD
ENDBRANCH   2  19
TORSDOF 2
