REMARK  8 active torsions:
REMARK  status: ('A' for Active; 'I' for Inactive)
REMARK    1  A    between atoms: C4_4  and  C7_7 
REMARK    2  A    between atoms: C7_7  and  C8_8 
REMARK    3  A    between atoms: C13_13  and  N1_14 
REMARK    4  A    between atoms: C13_13  and  N5_32 
REMARK    5  A    between atoms: N2_17  and  C20_25 
REMARK    6  A    between atoms: C15_18  and  C16_20 
REMARK    7  A    between atoms: C20_25  and  C21_26 
REMARK    8  A    between atoms: C21_26  and  C22_27 
REMARK       I    between atoms: C22_27  and  N4_29 
ROOT
ATOM      1  N1  <0> d           0.002  -0.004   0.002  0.00  0.00    -0.216 N 
ATOM      2  C14 <0> d           1.293  -0.393  -0.012  0.00  0.00     0.200 A 
ATOM      3  S1  <0> d           1.861  -2.008  -0.027  0.00  0.00    -0.039 SA
ATOM      4  N2  <0> d           2.056   0.718  -0.014  0.00  0.00    -0.304 N 
ATOM      5  C15 <0> d           1.220   1.818   0.000  0.00  0.00     0.169 A 
ATOM      6  N3  <0> d          -0.017   1.397   0.010  0.00  0.00    -0.149 NA
ENDROOT
BRANCH   1   7
ATOM      7  C13 <0> d          -1.168  -0.886   0.009  0.00  0.00     0.388 C 
BRANCH   7   8
ATOM      8  N5  <0> d          -1.548  -1.183  -1.388  0.00  0.00    -0.053 N 
ATOM      9  C10 <0> d          -2.586  -2.235  -1.415  0.00  0.00     0.237 C 
ATOM     10  C9  <0> d          -2.876  -2.609  -2.871  0.00  0.00     0.032 C 
ATOM     11  C8  <0> d          -3.375  -1.371  -3.621  0.00  0.00    -0.007 C 
ATOM     12  C12 <0> d          -2.322  -0.264  -3.521  0.00  0.00     0.032 C 
ATOM     13  C11 <0> d          -2.048   0.042  -2.047  0.00  0.00     0.237 C 
ATOM     14  H28 <0> d          -0.720  -1.519  -1.894  0.00  0.00     0.281 HD
BRANCH  11  15
ATOM     15  C7  <0> d          -3.611  -1.723  -5.091  0.00  0.00     0.043 C 
BRANCH  15  16
ATOM     16  C4  <0> d          -4.217  -0.540  -5.800  0.00  0.00    -0.058 A 
ATOM     17  C3  <0> d          -3.400   0.401  -6.397  0.00  0.00     0.007 A 
ATOM     18  C2  <0> d          -3.957   1.486  -7.048  0.00  0.00     0.001 A 
ATOM     19  C1  <0> d          -5.330   1.629  -7.103  0.00  0.00     0.000 A 
ATOM     20  C6  <0> d          -6.148   0.687  -6.507  0.00  0.00     0.001 A 
ATOM     21  C5  <0> d          -5.591  -0.400  -5.860  0.00  0.00     0.007 A 
ENDBRANCH  15  16
ENDBRANCH  11  15
ENDBRANCH   7   8
ENDBRANCH   1   7
BRANCH   5  22
ATOM     22  C16 <0> d           1.650   3.227   0.004  0.00  0.00     0.052 A 
ATOM     23  S2  <0> d           3.257   3.913  -0.360  0.00  0.00    -0.098 SA
ATOM     24  C19 <0> d           2.857   5.636  -0.117  0.00  0.00     0.050 A 
ATOM     25  C18 <0> d           1.545   5.577   0.229  0.00  0.00     0.009 A 
ATOM     26  C17 <0> d           0.921   4.352   0.293  0.00  0.00     0.023 A 
ENDBRANCH   5  22
BRANCH   4  27
ATOM     27  C20 <0> d           3.521   0.753  -0.028  0.00  0.00     0.142 C 
BRANCH  27  28
ATOM     28  C21 <0> d           4.016   0.773  -1.475  0.00  0.00     0.123 C 
BRANCH  28  29
ATOM     29  C22 <0> d           5.523   0.810  -1.490  0.00  0.00     0.216 C 
ATOM     30  O1  <0> d           6.139   0.819  -0.446  0.00  0.00    -0.274 OA
ATOM     31  N4  <0> d           6.185   0.832  -2.664  0.00  0.00    -0.370 N 
ATOM     32  H26 <0> d           5.692   0.825  -3.499  0.00  0.00     0.159 HD
ATOM     33  H27 <0> d           7.155   0.856  -2.673  0.00  0.00     0.159 HD
ENDBRANCH  28  29
ENDBRANCH  27  28
ENDBRANCH   4  27
TORSDOF 8
