REMARK  6 active torsions:
REMARK  status: ('A' for Active; 'I' for Inactive)
REMARK    1  A    between atoms: O1_2  and  C2_3 
REMARK    2  A    between atoms: C7_8  and  N1_9 
REMARK       I    between atoms: N1_9  and  C8_10 
REMARK    3  A    between atoms: C8_10  and  C9_12 
REMARK    4  A    between atoms: C9_12  and  O3_13 
REMARK    5  A    between atoms: O3_13  and  C10_14 
REMARK    6  A    between atoms: C15_19  and  C16_20 
ROOT
ATOM      1  C10 <0> d           2.723  -1.831   0.475  0.00  0.00     0.079 A 
ATOM      2  C11 <0> d           1.736  -2.790   0.304  0.00  0.00     0.037 A 
ATOM      3  C12 <0> d           2.070  -4.059  -0.126  0.00  0.00     0.003 A 
ATOM      4  C13 <0> d           3.392  -4.392  -0.381  0.00  0.00     0.001 A 
ATOM      5  C14 <0> d           4.389  -3.458  -0.213  0.00  0.00     0.014 A 
ATOM      6  C15 <0> d           4.067  -2.162   0.218  0.00  0.00    -0.002 A 
ENDROOT
BRANCH   1   7
ATOM      7  O3  <0> d           2.396  -0.583   0.892  0.00  0.00    -0.341 OA
BRANCH   7   8
ATOM      8  C9  <0> d           1.012  -0.322   1.133  0.00  0.00     0.278 C 
BRANCH   8   9
ATOM      9  C8  <0> d           0.842   1.106   1.586  0.00  0.00     0.246 C 
ATOM     10  N1  <0> d          -0.387   1.581   1.867  0.00  0.00    -0.323 N 
ATOM     11  H8  <0> d          -1.169   1.031   1.705  0.00  0.00     0.169 HD
ATOM     12  O2  <0> d           1.811   1.827   1.692  0.00  0.00    -0.271 OA
BRANCH  10  13
ATOM     13  C7  <0> d          -0.535   2.871   2.395  0.00  0.00     0.068 A 
ATOM     14  C2  <0> d          -1.675   3.618   2.105  0.00  0.00     0.095 A 
ATOM     15  C3  <0> d          -1.816   4.892   2.629  0.00  0.00     0.039 A 
ATOM     16  C4  <0> d          -0.827   5.421   3.438  0.00  0.00     0.003 A 
ATOM     17  C5  <0> d           0.304   4.680   3.726  0.00  0.00     0.002 A 
ATOM     18  C6  <0> d           0.450   3.406   3.212  0.00  0.00     0.032 A 
BRANCH  14  19
ATOM     19  O1  <0> d          -2.647   3.096   1.310  0.00  0.00    -0.354 OA
ATOM     20  C1  <0> d          -3.788   3.919   1.055  0.00  0.00     0.210 C 
ENDBRANCH  14  19
ENDBRANCH  10  13
ENDBRANCH   8   9
ENDBRANCH   7   8
ENDBRANCH   1   7
BRANCH   6  21
ATOM     21  C16 <0> d           5.119  -1.163   0.399  0.00  0.00     0.037 C 
ATOM     22  C17 <0> d           6.267  -1.489   1.095  0.00  0.00     0.101 A 
ATOM     23  C20 <0> d           7.423  -0.571   1.147  0.00  0.00     0.263 A 
ATOM     24  C18 <0> d           6.391  -2.766   1.825  0.00  0.00     0.263 A 
ATOM     25  N3  <0> d           8.511  -0.956   1.846  0.00  0.00    -0.299 N 
ATOM     26  O5  <0> d           7.396   0.502   0.574  0.00  0.00    -0.267 OA
ATOM     27  C19 <0> d           8.555  -2.136   2.481  0.00  0.00     0.181 A 
ATOM     28  H17 <0> d           9.279  -0.366   1.890  0.00  0.00     0.171 HD
ATOM     29  N2  <0> d           7.545  -3.017   2.477  0.00  0.00    -0.299 N 
ATOM     30  S1  <0> d           9.977  -2.538   3.344  0.00  0.00    -0.040 SA
ATOM     31  H16 <0> d           7.644  -3.853   2.959  0.00  0.00     0.171 HD
ATOM     32  O4  <0> d           5.480  -3.572   1.833  0.00  0.00    -0.267 OA
ENDBRANCH   6  21
TORSDOF 6
