REMARK  6 active torsions:
REMARK  status: ('A' for Active; 'I' for Inactive)
REMARK    1  A    between atoms: C8_8  and  C9_10 
REMARK    2  A    between atoms: C10_11  and  C12_16 
REMARK    3  A    between atoms: C12_16  and  N3_17 
REMARK    4  A    between atoms: N3_17  and  C13_18 
REMARK    5  A    between atoms: C13_18  and  C14_19 
REMARK    6  A    between atoms: C14_19  and  N4_20 
ROOT
ATOM      1  C9  <0> d           3.796  -3.333  -0.053  0.00  0.00     0.120 A 
ATOM      2  C10 <0> d           5.032  -3.488  -0.715  0.00  0.00     0.020 A 
ATOM      3  C11 <0> d           5.470  -4.744  -0.485  0.00  0.00     0.120 A 
ATOM      4  N1  <0> d           4.557  -5.370   0.291  0.00  0.00    -0.288 N 
ATOM      5  H1  <0> d           4.614  -6.283   0.612  0.00  0.00     0.188 HD
ATOM      6  N2  <0> d           3.518  -4.469   0.556  0.00  0.00    -0.172 NA
ENDROOT
BRANCH   2   7
ATOM      7  C12 <0> d           5.737  -2.438  -1.534  0.00  0.00     0.312 C 
BRANCH   7   8
ATOM      8  N3  <0> d           6.441  -1.510  -0.639  0.00  0.00     0.089 N 
ATOM      9  H22 <0> d           5.806  -1.101   0.029  0.00  0.00     0.316 HD
BRANCH   8  10
ATOM     10  C13 <0> d           7.142  -0.471  -1.404  0.00  0.00     0.297 C 
BRANCH  10  11
ATOM     11  C14 <0> d           7.862   0.475  -0.440  0.00  0.00     0.265 C 
BRANCH  11  12
ATOM     12  N4  <0> d           8.563   1.514  -1.205  0.00  0.00    -0.062 N 
ATOM     13  C22 <0> d           9.168   2.511  -0.293  0.00  0.00     0.274 C 
ATOM     14  C21 <0> d          10.447   2.957  -0.966  0.00  0.00    -0.025 A 
ATOM     15  C16 <0> d          10.776   2.022  -1.933  0.00  0.00    -0.025 A 
ATOM     16  C20 <0> d          11.255   4.060  -0.768  0.00  0.00     0.009 A 
ATOM     17  C15 <0> d           9.723   0.938  -1.922  0.00  0.00     0.274 C 
ATOM     18  C17 <0> d          11.913   2.194  -2.700  0.00  0.00     0.009 A 
ATOM     19  C18 <0> d          12.720   3.299  -2.502  0.00  0.00     0.001 A 
ATOM     20  C19 <0> d          12.392   4.231  -1.536  0.00  0.00     0.001 A 
ATOM     21  H23 <0> d           7.932   1.963  -1.852  0.00  0.00     0.280 HD
ENDBRANCH  11  12
ENDBRANCH  10  11
ENDBRANCH   8  10
ENDBRANCH   7   8
ENDBRANCH   2   7
BRANCH   1  22
ATOM     22  C8  <0> d           2.964  -2.111  -0.038  0.00  0.00     0.108 A 
ATOM     23  C7  <0> d           1.610  -2.092  -0.025  0.00  0.00     0.054 A 
ATOM     24  C5  <0> d           1.223  -0.679  -0.013  0.00  0.00     0.001 A 
ATOM     25  C4  <0> d           2.429   0.044  -0.021  0.00  0.00     0.086 A 
ATOM     26  C6  <0> d           0.002  -0.004   0.002  0.00  0.00     0.014 A 
ATOM     27  C3  <0> d           2.387   1.432  -0.013  0.00  0.00     0.038 A 
ATOM     28  O1  <0> d           3.439  -0.850  -0.036  0.00  0.00    -0.307 OA
ATOM     29  C2  <0> d           1.170   2.082   0.002  0.00  0.00     0.003 A 
ATOM     30  C1  <0> d          -0.017   1.363   0.009  0.00  0.00     0.001 A 
ENDBRANCH   1  22
TORSDOF 6
