REMARK  6 active torsions:
REMARK  status: ('A' for Active; 'I' for Inactive)
REMARK    1  A    between atoms: N1_8  and  N2_9 
REMARK       I    between atoms: N2_9  and  C8_10 
REMARK    2  A    between atoms: C8_10  and  C9_12 
REMARK    3  A    between atoms: C9_12  and  N3_13 
REMARK       I    between atoms: N3_13  and  C10_14 
REMARK    4  A    between atoms: C10_14  and  C11_16 
REMARK    5  A    between atoms: N4_25  and  C18_26 
REMARK    6  A    between atoms: C18_26  and  C19_27 
ROOT
ATOM      1  C19 <0> d           5.403  -0.330   1.391  0.00  0.00     0.144 C 
ATOM      2  C20 <0> d           6.820   0.068   1.379  0.00  0.00     0.060 C 
ATOM      3  N5  <0> d           7.914   0.376   1.371  0.00  0.00    -0.197 NA
ENDROOT
BRANCH   1   4
ATOM      4  C18 <0> d           4.899  -0.461  -0.048  0.00  0.00     0.146 C 
BRANCH   4   5
ATOM      5  N4  <0> d           3.488  -0.857  -0.036  0.00  0.00    -0.311 N 
ATOM      6  C4  <0> d           2.424   0.037  -0.021  0.00  0.00     0.050 A 
ATOM      7  C3  <0> d           2.385   1.427  -0.013  0.00  0.00     0.031 A 
ATOM      8  C5  <0> d           1.219  -0.677  -0.014  0.00  0.00     0.027 A 
ATOM      9  C2  <0> d           1.172   2.086   0.002  0.00  0.00     0.002 A 
ATOM     10  C1  <0> d          -0.017   1.376   0.010  0.00  0.00     0.001 A 
ATOM     11  C6  <0> d           0.002  -0.004   0.002  0.00  0.00     0.016 A 
ATOM     12  C7  <0> d           1.583  -2.113  -0.025  0.00  0.00     0.157 A 
ATOM     13  N1  <0> d           0.772  -3.143  -0.023  0.00  0.00    -0.166 NA
ATOM     14  C17 <0> d           3.060  -2.131  -0.039  0.00  0.00     0.279 A 
ATOM     15  O3  <0> d           3.764  -3.123  -0.051  0.00  0.00    -0.265 OA
BRANCH  13  16
ATOM     16  N2  <0> d           1.292  -4.444  -0.035  0.00  0.00    -0.245 N 
ATOM     17  C8  <0> d           0.458  -5.503  -0.032  0.00  0.00     0.255 C 
ATOM     18  O1  <0> d          -0.742  -5.329  -0.020  0.00  0.00    -0.270 OA
ATOM     19  H5  <0> d           2.252  -4.582  -0.044  0.00  0.00     0.192 HD
BRANCH  17  20
ATOM     20  C9  <0> d           1.017  -6.902  -0.045  0.00  0.00     0.227 C 
BRANCH  20  21
ATOM     21  N3  <0> d          -0.084  -7.868  -0.040  0.00  0.00    -0.348 N 
ATOM     22  C10 <0> d           0.178  -9.190  -0.049  0.00  0.00     0.253 C 
ATOM     23  O2  <0> d           1.329  -9.581  -0.062  0.00  0.00    -0.268 OA
ATOM     24  H8  <0> d          -1.003  -7.556  -0.029  0.00  0.00     0.163 HD
BRANCH  22  25
ATOM     25  C11 <0> d          -0.933 -10.164  -0.044  0.00  0.00     0.048 A 
ATOM     26  C16 <0> d          -0.664 -11.534  -0.054  0.00  0.00     0.022 A 
ATOM     27  C15 <0> d          -1.707 -12.439  -0.043  0.00  0.00     0.019 A 
ATOM     28  I1  <0> d           1.317 -12.216  -0.076  0.00  0.00    -0.043 I 
ATOM     29  C14 <0> d          -3.015 -11.990  -0.034  0.00  0.00     0.001 A 
ATOM     30  C13 <0> d          -3.288 -10.633  -0.030  0.00  0.00     0.001 A 
ATOM     31  C12 <0> d          -2.256  -9.719  -0.035  0.00  0.00     0.018 A 
ENDBRANCH  22  25
ENDBRANCH  20  21
ENDBRANCH  17  20
ENDBRANCH  13  16
ENDBRANCH   4   5
ENDBRANCH   1   4
TORSDOF 6
