REMARK  7 active torsions:
REMARK  status: ('A' for Active; 'I' for Inactive)
REMARK    1  A    between atoms: C2_2  and  C3_3 
REMARK    2  A    between atoms: C2_2  and  N3_9 
REMARK    3  A    between atoms: C3_3  and  N1_4 
REMARK       I    between atoms: N3_9  and  C7_10 
REMARK       I    between atoms: C7_10  and  N4_12 
REMARK    4  A    between atoms: N4_12  and  C8_13 
REMARK    5  A    between atoms: C8_13  and  C9_14 
REMARK    6  A    between atoms: C11_16  and  O3_23 
REMARK    7  A    between atoms: C12_17  and  O2_21 
ROOT
ATOM      1  N3  <0> d           0.688  -0.476  -1.203  0.00  0.00    -0.337 N 
ATOM      2  C7  <0> d           0.006  -0.608  -2.358  0.00  0.00     0.316 C 
ATOM      3  O1  <0> d          -1.178  -0.335  -2.400  0.00  0.00    -0.247 OA
ATOM      4  N4  <0> d           0.637  -1.043  -3.467  0.00  0.00    -0.339 N 
ATOM      5  H10 <0> d           1.632  -0.695  -1.170  0.00  0.00     0.164 HD
ATOM      6  H11 <0> d           1.582  -1.261  -3.434  0.00  0.00     0.164 HD
ENDROOT
BRANCH   4   7
ATOM      7  C8  <0> d          -0.104  -1.186  -4.723  0.00  0.00     0.164 C 
BRANCH   7   8
ATOM      8  C9  <0> d           0.825  -1.684  -5.800  0.00  0.00    -0.020 A 
ATOM      9  C14 <0> d           1.746  -0.824  -6.369  0.00  0.00     0.021 A 
ATOM     10  C13 <0> d           2.604  -1.278  -7.355  0.00  0.00     0.059 A 
ATOM     11 Br1  <0> d           1.839   0.975  -5.793  0.00  0.00    -0.050 Br
ATOM     12  C12 <0> d           2.534  -2.594  -7.782  0.00  0.00     0.102 A 
ATOM     13  C11 <0> d           1.603  -3.458  -7.213  0.00  0.00     0.102 A 
ATOM     14  C10 <0> d           0.750  -2.999  -6.222  0.00  0.00     0.049 A 
BRANCH  12  15
ATOM     15  O2  <0> d           3.373  -3.041  -8.754  0.00  0.00    -0.353 OA
ATOM     16  C15 <0> d           4.303  -2.098  -9.292  0.00  0.00     0.210 C 
ENDBRANCH  12  15
BRANCH  13  17
ATOM     17  O3  <0> d           1.530  -4.751  -7.628  0.00  0.00    -0.353 OA
ATOM     18  C16 <0> d           0.551  -5.581  -6.999  0.00  0.00     0.210 C 
ENDBRANCH  13  17
ENDBRANCH   7   8
ENDBRANCH   4   7
BRANCH   1  19
ATOM     19  C2  <0> d           0.002  -0.004   0.002  0.00  0.00     0.100 C 
ATOM     20  C1  <0> d          -0.019   1.526   0.010  0.00  0.00     0.034 C 
BRANCH  19  21
ATOM     21  C3  <0> d           0.742  -0.511   1.242  0.00  0.00     0.153 C 
BRANCH  21  22
ATOM     22  N1  <0> d           0.659  -1.972   1.296  0.00  0.00    -0.350 N 
ATOM     23  C6  <0> d           1.531  -2.846   0.748  0.00  0.00     0.182 A 
ATOM     24  N2  <0> d           1.127  -4.059   1.008  0.00  0.00    -0.361 N 
ATOM     25  C5  <0> d          -0.010  -4.005   1.716  0.00  0.00     0.106 A 
ATOM     26  H22 <0> d           1.577  -4.872   0.729  0.00  0.00     0.166 HD
ATOM     27  C4  <0> d          -0.320  -2.708   1.907  0.00  0.00     0.108 A 
ENDBRANCH  21  22
ENDBRANCH  19  21
ENDBRANCH   1  19
TORSDOF 7
