REMARK  5 active torsions:
REMARK  status: ('A' for Active; 'I' for Inactive)
REMARK    1  A    between atoms: N1_5  and  C6_9 
REMARK    2  A    between atoms: C6_9  and  C7_10 
REMARK    3  A    between atoms: C7_10  and  N3_11 
REMARK       I    between atoms: N3_11  and  C8_12 
REMARK    4  A    between atoms: C8_12  and  C9_14 
REMARK    5  A    between atoms: C9_14  and  C10_15 
ROOT
ATOM      1  N3  <0> d           0.195  -6.135  -1.477  0.00  0.00    -0.359 N 
ATOM      2  C8  <0> d           0.219  -6.801  -2.648  0.00  0.00     0.222 C 
ATOM      3  O2  <0> d           0.187  -6.189  -3.695  0.00  0.00    -0.273 OA
ATOM      4  H10 <0> d           0.220  -6.624  -0.640  0.00  0.00     0.162 HD
ENDROOT
BRANCH   2   5
ATOM      5  C9  <0> d           0.285  -8.306  -2.657  0.00  0.00     0.144 C 
BRANCH   5   6
ATOM      6  C10 <0> d           0.300  -8.800  -4.081  0.00  0.00    -0.015 A 
ATOM      7  C13 <0> d           1.486  -9.034  -4.910  0.00  0.00     0.002 A 
ATOM      8  C12 <0> d           1.008  -9.489  -6.151  0.00  0.00     0.082 A 
ATOM      9  C14 <0> d           2.859  -8.899  -4.698  0.00  0.00     0.014 A 
ATOM     10  N4  <0> d          -0.367  -9.517  -6.072  0.00  0.00    -0.356 N 
ATOM     11  C17 <0> d           1.917  -9.802  -7.159  0.00  0.00     0.143 A 
ATOM     12  C11 <0> d          -0.770  -9.104  -4.832  0.00  0.00     0.013 A 
ATOM     13  H1  <0> d          -0.961  -9.789  -6.789  0.00  0.00     0.166 HD
ATOM     14  C18 <0> d          -2.203  -9.004  -4.377  0.00  0.00     0.068 C 
ATOM     15  C16 <0> d           3.270  -9.654  -6.930  0.00  0.00     0.045 A 
ATOM     16  F1  <0> d           1.476 -10.236  -8.360  0.00  0.00    -0.204 F 
ATOM     17  C15 <0> d           3.735  -9.207  -5.701  0.00  0.00     0.004 A 
ENDBRANCH   5   6
ENDBRANCH   2   5
BRANCH   1  18
ATOM     18  C7  <0> d           0.130  -4.671  -1.468  0.00  0.00     0.143 C 
BRANCH  18  19
ATOM     19  C6  <0> d           0.115  -4.170  -0.023  0.00  0.00     0.153 C 
BRANCH  19  20
ATOM     20  N1  <0> d           0.050  -2.706  -0.014  0.00  0.00    -0.301 N 
ATOM     21  C4  <0> d          -1.156  -2.081  -0.004  0.00  0.00     0.014 A 
ATOM     22  C3  <0> d          -1.198  -0.721   0.004  0.00  0.00     0.051 A 
ATOM     23  C19 <0> d          -2.431  -2.884  -0.002  0.00  0.00     0.068 C 
ATOM     24  C2  <0> d           0.002  -0.004   0.002  0.00  0.00     0.038 A 
ATOM     25  C1  <0> d          -0.018   1.503   0.010  0.00  0.00     0.070 C 
ATOM     26  N2  <0> d           1.151  -0.649  -0.012  0.00  0.00    -0.199 NA
ATOM     27  C5  <0> d           1.186  -1.984  -0.015  0.00  0.00     0.348 A 
ATOM     28  O1  <0> d           2.263  -2.557  -0.023  0.00  0.00    -0.244 OA
ENDBRANCH  19  20
ENDBRANCH  18  19
ENDBRANCH   1  18
TORSDOF 5
