REMARK  5 active torsions:
REMARK  status: ('A' for Active; 'I' for Inactive)
REMARK    1  A    between atoms: C3_3  and  C11_13 
REMARK    2  A    between atoms: C4_4  and  C5_7 
REMARK       I    between atoms: C11_13  and  N2_15 
REMARK    3  A    between atoms: N2_15  and  N3_16 
REMARK    4  A    between atoms: N3_16  and  C12_17 
REMARK       I    between atoms: N4_19  and  C13_20 
REMARK    5  A    between atoms: C13_20  and  C14_22 
ROOT
ATOM      1  C11 <0> d          -2.503  -0.394   0.011  0.00  0.00     0.275 C 
ATOM      2  O2  <0> d          -3.090  -0.213  -1.038  0.00  0.00    -0.266 OA
ATOM      3  N2  <0> d          -3.143  -0.205   1.183  0.00  0.00    -0.263 N 
ATOM      4  H9  <0> d          -2.674  -0.349   2.020  0.00  0.00     0.190 HD
ENDROOT
BRANCH   3   5
ATOM      5  N3  <0> d          -4.484   0.198   1.191  0.00  0.00    -0.273 N 
ATOM      6  H10 <0> d          -4.952   0.342   0.354  0.00  0.00     0.189 HD
BRANCH   5   7
ATOM      7  C12 <0> d          -5.124   0.387   2.362  0.00  0.00     0.193 C 
ATOM      8  S1  <0> d          -6.763   0.880   2.372  0.00  0.00    -0.039 SA
ATOM      9  N4  <0> d          -4.473   0.186   3.525  0.00  0.00    -0.298 N 
ATOM     10  C13 <0> d          -5.113   0.375   4.697  0.00  0.00     0.257 C 
ATOM     11  H11 <0> d          -3.544  -0.093   3.520  0.00  0.00     0.171 HD
ATOM     12  O3  <0> d          -6.277   0.725   4.704  0.00  0.00    -0.267 OA
BRANCH  10  13
ATOM     13  C14 <0> d          -4.399   0.156   5.971  0.00  0.00     0.032 A 
ATOM     14  C19 <0> d          -5.060   0.350   7.187  0.00  0.00     0.018 A 
ATOM     15  C18 <0> d          -4.390   0.138   8.373  0.00  0.00     0.020 A 
ATOM     16  C17 <0> d          -3.062  -0.255   8.362  0.00  0.00     0.011 A 
ATOM     17  C16 <0> d          -2.400  -0.444   7.160  0.00  0.00     0.020 A 
ATOM     18 Br1  <0> d          -2.148  -0.534   9.994  0.00  0.00    -0.051 Br
ATOM     19  C15 <0> d          -3.061  -0.241   5.966  0.00  0.00     0.018 A 
ENDBRANCH  10  13
ENDBRANCH   5   7
ENDBRANCH   3   5
BRANCH   1  20
ATOM     20  C3  <0> d          -1.092  -0.818   0.003  0.00  0.00     0.096 A 
ATOM     21  C2  <0> d           0.002  -0.004   0.002  0.00  0.00     0.093 A 
ATOM     22  C1  <0> d          -0.018   1.503   0.010  0.00  0.00     0.080 C 
ATOM     23  O1  <0> d           1.095  -0.772  -0.013  0.00  0.00    -0.217 OA
ATOM     24  N1  <0> d           0.715  -2.133  -0.013  0.00  0.00    -0.127 NA
ATOM     25  C4  <0> d          -0.593  -2.201  -0.007  0.00  0.00     0.113 A 
BRANCH  25  26
ATOM     26  C5  <0> d          -1.413  -3.437  -0.010  0.00  0.00    -0.004 A 
ATOM     27  C10 <0> d          -0.980  -4.562  -0.709  0.00  0.00     0.014 A 
ATOM     28  C9  <0> d          -1.744  -5.711  -0.703  0.00  0.00     0.001 A 
ATOM     29  C8  <0> d          -2.944  -5.744  -0.014  0.00  0.00     0.000 A 
ATOM     30  C7  <0> d          -3.381  -4.628   0.677  0.00  0.00     0.001 A 
ATOM     31  C6  <0> d          -2.622  -3.475   0.683  0.00  0.00     0.014 A 
ENDBRANCH  25  26
ENDBRANCH   1  20
TORSDOF 5
