REMARK  2 active torsions:
REMARK  status: ('A' for Active; 'I' for Inactive)
REMARK    1  A    between atoms: C5_5  and  C15_19 
REMARK       I    between atoms: C15_19  and  N5_21 
REMARK    2  A    between atoms: N5_21  and  C16_22 
ROOT
ATOM      1  C1  <0> d           0.339   1.575   0.002  0.00  0.00     0.023 C 
ATOM      2  C2  <0> d           0.332   0.045   0.016  0.00  0.00     0.011 C 
ATOM      3  C3  <0> d           0.978  -0.659  -1.220  0.00  0.00     0.018 C 
ATOM      4  C4  <0> d           1.244  -2.103  -0.733  0.00  0.00     0.028 C 
ATOM      5  C5  <0> d           0.728  -2.107   0.741  0.00  0.00     0.095 C 
ATOM      6  C6  <0> d           1.124  -0.651   1.183  0.00  0.00    -0.013 C 
ATOM      7  C7  <0> d           0.579  -0.273   2.562  0.00  0.00     0.018 C 
ATOM      8  C8  <0> d           2.633  -0.421   1.079  0.00  0.00     0.018 C 
ATOM      9  C9  <0> d          -0.788  -1.943   0.611  0.00  0.00     0.080 A 
ATOM     10  C10 <0> d          -1.034  -0.624   0.185  0.00  0.00     0.071 A 
ATOM     11  N1  <0> d          -2.257  -0.192  -0.010  0.00  0.00    -0.236 NA
ATOM     12  C11 <0> d          -3.289  -1.002   0.220  0.00  0.00     0.176 A 
ATOM     13  C12 <0> d          -3.059  -2.314   0.671  0.00  0.00     0.176 A 
ATOM     14  N2  <0> d          -1.786  -2.766   0.830  0.00  0.00    -0.236 NA
ATOM     15  C13 <0> d          -4.162  -3.192   0.922  0.00  0.00     0.123 C 
ATOM     16  N3  <0> d          -5.037  -3.889   1.121  0.00  0.00    -0.190 NA
ATOM     17  C14 <0> d          -4.628  -0.539   0.010  0.00  0.00     0.123 C 
ATOM     18  N4  <0> d          -5.690  -0.171  -0.156  0.00  0.00    -0.190 NA
ENDROOT
BRANCH   5  19
ATOM     19  C15 <0> d           1.218  -3.233   1.615  0.00  0.00     0.233 C 
ATOM     20  O1  <0> d           1.867  -2.990   2.610  0.00  0.00    -0.272 OA
ATOM     21  N5  <0> d           0.936  -4.510   1.290  0.00  0.00    -0.355 N 
ATOM     22  H14 <0> d           0.417  -4.705   0.494  0.00  0.00     0.162 HD
BRANCH  21  23
ATOM     23  C16 <0> d           1.414  -5.607   2.141  0.00  0.00     0.089 C 
ATOM     24  C20 <0> d           0.502  -6.820   1.959  0.00  0.00     0.063 C 
ATOM     25  C19 <0> d           1.005  -8.003   2.780  0.00  0.00     0.121 C 
ATOM     26  N6  <0> d           2.418  -8.280   2.581  0.00  0.00    -0.059 N 
ATOM     27  C21 <0> d           0.672  -7.790   4.260  0.00  0.00     0.046 C 
ATOM     28  C22 <0> d           0.217  -9.251   2.316  0.00  0.00     0.046 C 
ATOM     29  C18 <0> d           3.335  -7.150   2.578  0.00  0.00     0.121 C 
ATOM     30  H18 <0> d           2.526  -8.783   1.697  0.00  0.00     0.279 HD
ATOM     31  H33 <0> d           2.723  -8.939   3.303  0.00  0.00     0.279 HD
ATOM     32  C17 <0> d           2.828  -6.000   1.708  0.00  0.00     0.063 C 
ATOM     33  C23 <0> d           3.639  -6.651   3.990  0.00  0.00     0.046 C 
ATOM     34  C24 <0> d           4.670  -7.633   1.965  0.00  0.00     0.046 C 
ENDBRANCH  21  23
ENDBRANCH   5  19
TORSDOF 2
