REMARK  7 active torsions:
REMARK  status: ('A' for Active; 'I' for Inactive)
REMARK    1  A    between atoms: O1_2  and  C2_3 
REMARK    2  A    between atoms: C2_3  and  C3_4 
REMARK    3  A    between atoms: C3_4  and  C4_5 
REMARK    4  A    between atoms: C4_5  and  C5_6 
REMARK    5  A    between atoms: C4_5  and  N2_20 
REMARK       I    between atoms: C5_6  and  N1_8 
REMARK    6  A    between atoms: N1_8  and  C6_9 
REMARK    7  A    between atoms: C11_14  and  C12_15 
ROOT
ATOM      1  C5  <0> d          -2.404  -4.262  -0.121  0.00  0.00     0.253 C 
ATOM      2  O2  <0> d          -2.490  -4.969   0.861  0.00  0.00    -0.271 OA
ATOM      3  N1  <0> d          -2.197  -4.815  -1.333  0.00  0.00    -0.325 N 
ATOM      4  H9  <0> d          -2.209  -4.259  -2.128  0.00  0.00     0.169 HD
ENDROOT
BRANCH   3   5
ATOM      5  C6  <0> d          -1.967  -6.189  -1.444  0.00  0.00     0.046 A 
ATOM      6  C11 <0> d          -2.268  -6.859  -2.638  0.00  0.00     0.008 A 
ATOM      7  C10 <0> d          -2.029  -8.229  -2.740  0.00  0.00     0.015 A 
ATOM      8  C9  <0> d          -1.510  -8.919  -1.663  0.00  0.00     0.001 A 
ATOM      9  C8  <0> d          -1.219  -8.256  -0.483  0.00  0.00     0.002 A 
ATOM     10  C7  <0> d          -1.446  -6.897  -0.372  0.00  0.00     0.030 A 
BRANCH   6  11
ATOM     11  C12 <0> d          -2.829  -6.116  -3.786  0.00  0.00     0.017 A 
ATOM     12  S1  <0> d          -4.214  -4.991  -3.828  0.00  0.00    -0.101 SA
ATOM     13  C15 <0> d          -4.160  -4.589  -5.567  0.00  0.00     0.050 A 
ATOM     14  C14 <0> d          -3.110  -5.333  -5.998  0.00  0.00     0.008 A 
ATOM     15  C13 <0> d          -2.425  -6.115  -5.094  0.00  0.00     0.020 A 
ENDBRANCH   6  11
ENDBRANCH   3   5
BRANCH   1  16
ATOM     16  C4  <0> d          -2.528  -2.766   0.013  0.00  0.00     0.277 C 
BRANCH  16  17
ATOM     17  C3  <0> d          -1.134  -2.136   0.005  0.00  0.00     0.069 C 
BRANCH  17  18
ATOM     18  C2  <0> d          -1.264  -0.612   0.016  0.00  0.00     0.169 C 
BRANCH  18  19
ATOM     19  O1  <0> d           0.039  -0.023   0.009  0.00  0.00    -0.396 OA
ATOM     20  C1  <0> d           0.030   1.406   0.018  0.00  0.00     0.201 C 
ENDBRANCH  18  19
ENDBRANCH  17  18
ENDBRANCH  16  17
BRANCH  16  21
ATOM     21  N2  <0> d          -3.205  -2.443   1.276  0.00  0.00    -0.066 N 
ATOM     22  H17 <0> d          -3.288  -1.441   1.366  0.00  0.00     0.275 HD
ATOM     23  H18 <0> d          -4.125  -2.858   1.281  0.00  0.00     0.275 HD
ATOM     24  H19 <0> d          -2.667  -2.806   2.049  0.00  0.00     0.275 HD
ENDBRANCH  16  21
ENDBRANCH   1  16
TORSDOF 7
