REMARK  4 active torsions:
REMARK  status: ('A' for Active; 'I' for Inactive)
REMARK    1  A    between atoms: N1_5  and  C5_7 
REMARK    2  A    between atoms: C5_7  and  C6_8 
REMARK       I    between atoms: C6_8  and  N3_10 
REMARK    3  A    between atoms: N3_10  and  N4_11 
REMARK       I    between atoms: N4_11  and  C7_12 
REMARK    4  A    between atoms: C7_12  and  C8_14 
ROOT
ATOM      1  C6  <0> d           1.482  -3.682   1.773  0.00  0.00     0.256 C 
ATOM      2  O1  <0> d           2.393  -3.031   1.306  0.00  0.00    -0.270 OA
ATOM      3  N3  <0> d           1.747  -4.751   2.550  0.00  0.00    -0.266 N 
ATOM      4  H7  <0> d           1.019  -5.271   2.923  0.00  0.00     0.190 HD
ENDROOT
BRANCH   3   5
ATOM      5  N4  <0> d           3.075  -5.110   2.818  0.00  0.00    -0.261 N 
ATOM      6  C7  <0> d           3.339  -6.179   3.595  0.00  0.00     0.295 C 
ATOM      7  O2  <0> d           2.425  -6.832   4.063  0.00  0.00    -0.264 OA
ATOM      8  H8  <0> d           3.803  -4.590   2.444  0.00  0.00     0.190 HD
BRANCH   6   9
ATOM      9  C8  <0> d           4.726  -6.555   3.874  0.00  0.00     0.160 C 
ATOM     10  O4  <0> d           4.976  -7.638   4.662  0.00  0.00    -0.342 OA
ATOM     11  C11 <0> d           6.302  -8.182   4.599  0.00  0.00     0.202 C 
ATOM     12  C10 <0> d           7.294  -7.012   4.667  0.00  0.00     0.201 C 
ATOM     13  O3  <0> d           7.017  -6.128   3.575  0.00  0.00    -0.358 OA
ATOM     14  C9  <0> d           5.720  -5.822   3.355  0.00  0.00     0.177 C 
ENDBRANCH   6   9
ENDBRANCH   3   5
BRANCH   1  15
ATOM     15  C5  <0> d           0.055  -3.295   1.485  0.00  0.00     0.255 C 
BRANCH  15  16
ATOM     16  N1  <0> d           0.034  -2.109   0.625  0.00  0.00    -0.265 N 
ATOM     17  C4  <0> d           0.028  -2.107  -0.725  0.00  0.00     0.029 A 
ATOM     18  C3  <0> d           0.008  -0.818  -1.135  0.00  0.00     0.055 A 
ATOM     19  C12 <0> d           0.040  -3.323  -1.615  0.00  0.00     0.070 C 
ATOM     20  C2  <0> d           0.002  -0.004   0.002  0.00  0.00     0.053 A 
ATOM     21  C1  <0> d          -0.018   1.503   0.010  0.00  0.00     0.072 C 
ATOM     22  N2  <0> d           0.023  -0.777   1.058  0.00  0.00    -0.177 NA
ENDBRANCH  15  16
ENDBRANCH   1  15
TORSDOF 4
