REMARK  4 active torsions:
REMARK  status: ('A' for Active; 'I' for Inactive)
REMARK    1  A    between atoms: C5_5  and  O3_21 
REMARK    2  A    between atoms: C6_6  and  N1_8 
REMARK    3  A    between atoms: N1_8  and  S1_9 
REMARK    4  A    between atoms: S1_9  and  C8_12 
ROOT
ATOM      1  S1  <0> d          -0.668  -2.150   3.743  0.00  0.00     0.263 S 
ATOM      2  O1  <0> d          -0.407  -3.049   4.813  0.00  0.00    -0.200 OA
ATOM      3  O2  <0> d          -0.290  -0.781   3.790  0.00  0.00    -0.200 OA
ENDROOT
BRANCH   1   4
ATOM      4  N1  <0> d           0.052  -2.794   2.398  0.00  0.00    -0.278 N 
ATOM      5  H7  <0> d           0.601  -3.590   2.475  0.00  0.00     0.179 HD
BRANCH   4   6
ATOM      6  C6  <0> d          -0.131  -2.189   1.149  0.00  0.00     0.076 A 
ATOM      7  C5  <0> d          -0.215  -2.972  -0.000  0.00  0.00     0.092 A 
ATOM      8  C4  <0> d          -0.397  -2.368  -1.234  0.00  0.00     0.039 A 
ATOM      9  C3  <0> d          -0.494  -0.991  -1.322  0.00  0.00     0.009 A 
ATOM     10  C2  <0> d          -0.411  -0.214  -0.182  0.00  0.00    -0.060 A 
ATOM     11  C1  <0> d          -0.517   1.286  -0.285  0.00  0.00     0.048 C 
ATOM     12  C7  <0> d          -0.224  -0.808   1.052  0.00  0.00     0.039 A 
BRANCH   7  13
ATOM     13  O3  <0> d          -0.120  -4.326   0.088  0.00  0.00    -0.358 OA
ATOM     14  H17 <0> d           0.783  -4.662   0.012  0.00  0.00     0.217 HD
ENDBRANCH   7  13
ENDBRANCH   4   6
ENDBRANCH   1   4
BRANCH   1  15
ATOM     15  C8  <0> d          -2.408  -2.184   3.470  0.00  0.00     0.080 A 
ATOM     16  C13 <0> d          -3.147  -3.286   3.853  0.00  0.00     0.033 A 
ATOM     17  C12 <0> d          -4.516  -3.314   3.645  0.00  0.00    -0.050 A 
ATOM     18  C11 <0> d          -5.142  -2.240   3.041  0.00  0.00    -0.052 A 
ATOM     19  C14 <0> d          -5.536  -4.382   3.974  0.00  0.00     0.039 C 
ATOM     20  C10 <0> d          -4.398  -1.138   2.652  0.00  0.00     0.009 A 
ATOM     21  C16 <0> d          -6.626  -2.513   2.922  0.00  0.00     0.039 C 
ATOM     22  C9  <0> d          -3.034  -1.109   2.866  0.00  0.00     0.026 A 
ATOM     23  C15 <0> d          -6.904  -3.670   3.906  0.00  0.00     0.009 C 
ENDBRANCH   1  15
TORSDOF 4
