REMARK  7 active torsions:
REMARK  status: ('A' for Active; 'I' for Inactive)
REMARK    1  A    between atoms: C2_2  and  O1_3 
REMARK    2  A    between atoms: O1_3  and  C3_4 
REMARK    3  A    between atoms: C4_5  and  C8_10 
REMARK       I    between atoms: C8_10  and  N2_12 
REMARK    4  A    between atoms: N2_12  and  N3_13 
REMARK    5  A    between atoms: N3_13  and  C9_14 
REMARK    6  A    between atoms: C12_17  and  S1_20 
REMARK    7  A    between atoms: S1_20  and  N5_23 
ROOT
ATOM      1  C9  <0> d           5.957   3.536  -0.034  0.00  0.00     0.141 A 
ATOM      2  C10 <0> d           7.116   4.306  -0.046  0.00  0.00     0.053 A 
ATOM      3  C11 <0> d           8.345   3.672  -0.055  0.00  0.00     0.030 A 
ATOM      4  C12 <0> d           8.373   2.283  -0.063  0.00  0.00     0.097 A 
ATOM      5  C13 <0> d           7.184   1.582  -0.056  0.00  0.00     0.144 A 
ATOM      6  N4  <0> d           6.026   2.214  -0.042  0.00  0.00    -0.240 NA
ENDROOT
BRANCH   1   7
ATOM      7  N3  <0> d           4.715   4.161  -0.019  0.00  0.00    -0.281 N 
ATOM      8  H10 <0> d           4.659   5.129  -0.013  0.00  0.00     0.188 HD
BRANCH   7   9
ATOM      9  N2  <0> d           3.544   3.392  -0.013  0.00  0.00    -0.264 N 
ATOM     10  C8  <0> d           2.340   3.997   0.002  0.00  0.00     0.274 C 
ATOM     11  O2  <0> d           2.270   5.211   0.009  0.00  0.00    -0.266 OA
ATOM     12  H9  <0> d           3.600   2.423  -0.018  0.00  0.00     0.190 HD
BRANCH  10  13
ATOM     13  C4  <0> d           1.107   3.188   0.009  0.00  0.00     0.086 A 
ATOM     14  C3  <0> d          -0.153   3.805   0.024  0.00  0.00     0.180 A 
ATOM     15  N1  <0> d          -1.255   3.075   0.030  0.00  0.00    -0.236 NA
ATOM     16  C7  <0> d          -1.216   1.757   0.017  0.00  0.00     0.119 A 
ATOM     17  C6  <0> d          -0.013   1.076   0.008  0.00  0.00     0.020 A 
ATOM     18  C5  <0> d           1.173   1.790   0.001  0.00  0.00     0.023 A 
BRANCH  14  19
ATOM     19  O1  <0> d          -0.240   5.156   0.032  0.00  0.00    -0.334 OA
BRANCH  19  20
ATOM     20  C2  <0> d          -1.552   5.722   0.048  0.00  0.00     0.173 C 
ATOM     21  C1  <0> d          -1.450   7.248   0.055  0.00  0.00     0.034 C 
ENDBRANCH  19  20
ENDBRANCH  14  19
ENDBRANCH  10  13
ENDBRANCH   7   9
ENDBRANCH   1   7
BRANCH   4  22
ATOM     22  S1  <0> d           9.912   1.425  -0.081  0.00  0.00     0.262 S 
ATOM     23  O3  <0> d          10.878   2.312   0.466  0.00  0.00    -0.200 OA
ATOM     24  O4  <0> d           9.665   0.137   0.465  0.00  0.00    -0.200 OA
BRANCH  22  25
ATOM     25  N5  <0> d          10.326   1.195  -1.668  0.00  0.00    -0.303 N 
ATOM     26  C17 <0> d          11.129   2.192  -2.392  0.00  0.00     0.163 C 
ATOM     27  C16 <0> d          10.415   2.534  -3.704  0.00  0.00     0.255 C 
ATOM     28  N6  <0> d          10.171   1.281  -4.452  0.00  0.00    -0.072 N 
ATOM     29  C15 <0> d           9.233   0.416  -3.704  0.00  0.00     0.255 C 
ATOM     30  C18 <0> d           9.617   1.590  -5.786  0.00  0.00     0.269 C 
ATOM     31  H25 <0> d          11.062   0.784  -4.568  0.00  0.00     0.279 HD
ATOM     32  C14 <0> d           9.905  -0.016  -2.390  0.00  0.00     0.163 C 
ENDBRANCH  22  25
ENDBRANCH   4  22
TORSDOF 7
