REMARK  5 active torsions:
REMARK  status: ('A' for Active; 'I' for Inactive)
REMARK    1  A    between atoms: C2_3  and  O6_29 
REMARK    2  A    between atoms: C3_4  and  C7_11 
REMARK    3  A    between atoms: C7_11  and  C8_13 
REMARK    4  A    between atoms: C8_13  and  C9_14 
REMARK    5  A    between atoms: C15_20  and  O3_21 
ROOT
ATOM      1  C9  <0> d           2.647   3.632  -0.999  0.00  0.00     0.231 C 
ATOM      2  C10 <0> d           1.168   3.348  -1.032  0.00  0.00     0.016 A 
ATOM      3  C11 <0> d           0.675   2.062  -1.094  0.00  0.00    -0.043 A 
ATOM      4  C12 <0> d          -0.694   1.845  -1.117  0.00  0.00     0.047 A 
ATOM      5  C13 <0> d          -1.576   2.912  -1.084  0.00  0.00     0.108 A 
ATOM      6  C14 <0> d          -1.083   4.211  -1.018  0.00  0.00     0.139 A 
ATOM      7  C15 <0> d           0.287   4.425  -0.995  0.00  0.00     0.113 A 
ATOM      8  O4  <0> d          -2.139   5.078  -0.991  0.00  0.00    -0.320 OA
ATOM      9  C17 <0> d          -3.281   4.281  -0.624  0.00  0.00     0.352 C 
ATOM     10  O5  <0> d          -2.940   2.962  -1.090  0.00  0.00    -0.323 OA
ATOM     11  C18 <0> d           1.591   0.866  -1.142  0.00  0.00     0.067 C 
ATOM     12  C19 <0> d           2.997   1.267  -0.694  0.00  0.00     0.240 C 
ATOM     13  C20 <0> d           4.851   2.692  -1.330  0.00  0.00     0.270 C 
ATOM     14  N3  <0> d           3.397   2.457  -1.473  0.00  0.00    -0.066 N 
ATOM     15  H24 <0> d           3.180   2.298  -2.464  0.00  0.00     0.280 HD
ENDROOT
BRANCH   1  16
ATOM     16  C8  <0> d           2.954   4.817  -1.916  0.00  0.00     0.122 C 
BRANCH  16  17
ATOM     17  C7  <0> d           2.424   4.534  -3.297  0.00  0.00     0.171 C 
ATOM     18  O2  <0> d           1.944   3.448  -3.553  0.00  0.00    -0.292 OA
BRANCH  17  19
ATOM     19  C3  <0> d           2.484   5.532  -4.295  0.00  0.00     0.129 A 
ATOM     20  C2  <0> d           2.020   5.284  -5.595  0.00  0.00     0.163 A 
ATOM     21  N1  <0> d           2.098   6.277  -6.524  0.00  0.00    -0.308 N 
ATOM     22  C1  <0> d           1.615   6.025  -7.885  0.00  0.00     0.161 C 
ATOM     23  C5  <0> d           2.607   7.481  -6.221  0.00  0.00     0.184 A 
ATOM     24  N2  <0> d           3.066   7.779  -4.994  0.00  0.00    -0.294 N 
ATOM     25  S1  <0> d           2.673   8.681  -7.441  0.00  0.00    -0.040 SA
ATOM     26  C4  <0> d           3.029   6.866  -4.002  0.00  0.00     0.267 A 
ATOM     27  C6  <0> d           3.609   9.114  -4.729  0.00  0.00     0.162 C 
ATOM     28  O1  <0> d           3.441   7.138  -2.890  0.00  0.00    -0.267 OA
BRANCH  20  29
ATOM     29  O6  <0> d           1.506   4.084  -5.919  0.00  0.00    -0.345 OA
ATOM     30  H23 <0> d           1.202   3.969  -6.829  0.00  0.00     0.219 HD
ENDBRANCH  20  29
ENDBRANCH  17  19
ENDBRANCH  16  17
ENDBRANCH   1  16
BRANCH   7  31
ATOM     31  O3  <0> d           0.773   5.694  -0.937  0.00  0.00    -0.352 OA
ATOM     32  C16 <0> d           0.871   6.292   0.357  0.00  0.00     0.210 C 
ENDBRANCH   7  31
TORSDOF 5
