REMARK  3 active torsions:
REMARK  status: ('A' for Active; 'I' for Inactive)
REMARK    1  A    between atoms: C3_3  and  C6_7 
REMARK       I    between atoms: C6_7  and  N1_9 
REMARK    2  A    between atoms: N1_9  and  N2_10 
REMARK       I    between atoms: N2_10  and  C7_11 
REMARK    3  A    between atoms: C7_11  and  C8_13 
ROOT
ATOM      1  N2  <0> d          -1.246   5.984   0.044  0.00  0.00    -0.263 N 
ATOM      2  C7  <0> d          -0.070   5.326   0.029  0.00  0.00     0.270 C 
ATOM      3  O3  <0> d           0.974   5.948   0.022  0.00  0.00    -0.266 OA
ATOM      4  H7  <0> d          -2.080   5.488   0.049  0.00  0.00     0.190 HD
ENDROOT
BRANCH   1   5
ATOM      5  N1  <0> d          -1.265   7.385   0.051  0.00  0.00    -0.263 N 
ATOM      6  C6  <0> d          -2.442   8.043   0.065  0.00  0.00     0.272 C 
ATOM      7  O2  <0> d          -3.486   7.421   0.072  0.00  0.00    -0.266 OA
ATOM      8  H6  <0> d          -0.432   7.881   0.045  0.00  0.00     0.190 HD
BRANCH   6   9
ATOM      9  C3  <0> d          -2.462   9.517   0.072  0.00  0.00     0.064 A 
ATOM     10  C2  <0> d          -3.559  10.326   0.086  0.00  0.00     0.064 A 
ATOM     11  C1  <0> d          -4.994   9.866   0.099  0.00  0.00     0.077 C 
ATOM     12  O1  <0> d          -3.146  11.597   0.088  0.00  0.00    -0.326 OA
ATOM     13  C5  <0> d          -1.806  11.665   0.076  0.00  0.00     0.143 A 
ATOM     14  C4  <0> d          -1.303  10.421   0.072  0.00  0.00     0.044 A 
ENDBRANCH   6   9
ENDBRANCH   1   5
BRANCH   2  15
ATOM     15  C8  <0> d          -0.050   3.848   0.022  0.00  0.00     0.039 A 
ATOM     16  C13 <0> d          -1.248   3.131   0.030  0.00  0.00     0.059 A 
ATOM     17  C12 <0> d          -1.223   1.750   0.017  0.00  0.00     0.120 A 
ATOM     18  C11 <0> d          -0.013   1.076   0.008  0.00  0.00     0.084 A 
ATOM     19  F1  <0> d          -2.381   1.054   0.019  0.00  0.00    -0.206 F 
ATOM     20  C10 <0> d           1.179   1.782   0.000  0.00  0.00     0.120 A 
ATOM     21  C9  <0> d           1.166   3.164   0.007  0.00  0.00     0.059 A 
ATOM     22  F2  <0> d           2.356   1.119  -0.014  0.00  0.00    -0.206 F 
ENDBRANCH   2  15
TORSDOF 3
