REMARK  9 active torsions:
REMARK  status: ('A' for Active; 'I' for Inactive)
REMARK    1  A    between atoms: C2_2  and  N1_3 
REMARK       I    between atoms: N1_3  and  C3_4 
REMARK    2  A    between atoms: C3_4  and  C4_6 
REMARK    3  A    between atoms: C4_6  and  N2_7 
REMARK    4  A    between atoms: N2_7  and  C5_8 
REMARK       I    between atoms: N2_7  and  C7_10 
REMARK    5  A    between atoms: C7_10  and  C8_12 
REMARK    6  A    between atoms: C8_12  and  C9_13 
REMARK    7  A    between atoms: C9_13  and  C10_14 
REMARK    8  A    between atoms: C10_14  and  C11_15 
REMARK    9  A    between atoms: C11_15  and  C12_16 
ROOT
ATOM      1  C9  <0> d          -0.608  -6.506   3.918  0.00  0.00     0.009 C 
ENDROOT
BRANCH   1   2
ATOM      2  C8  <0> d           0.627  -5.975   3.188  0.00  0.00     0.103 C 
BRANCH   2   3
ATOM      3  C7  <0> d           0.607  -4.468   3.196  0.00  0.00     0.220 C 
ATOM      4  N2  <0> d           1.603  -3.778   2.607  0.00  0.00    -0.344 N 
ATOM      5  O2  <0> d          -0.306  -3.877   3.733  0.00  0.00    -0.273 OA
BRANCH   4   6
ATOM      6  C4  <0> d           1.583  -2.313   2.615  0.00  0.00     0.228 C 
BRANCH   6   7
ATOM      7  C3  <0> d           0.854  -1.814   1.394  0.00  0.00     0.235 C 
ATOM      8  N1  <0> d           0.711  -0.489   1.189  0.00  0.00    -0.360 N 
ATOM      9  H9  <0> d           1.077   0.142   1.827  0.00  0.00     0.162 HD
ATOM     10  O1  <0> d           0.396  -2.604   0.595  0.00  0.00    -0.272 OA
BRANCH   8  11
ATOM     11  C2  <0> d           0.002  -0.004   0.002  0.00  0.00     0.118 C 
ATOM     12  C1  <0> d          -0.019   1.526   0.010  0.00  0.00     0.026 C 
ENDBRANCH   8  11
ENDBRANCH   6   7
ENDBRANCH   4   6
BRANCH   4  13
ATOM     13  C5  <0> d           2.705  -4.492   1.958  0.00  0.00     0.122 C 
ATOM     14  C6  <0> d           3.822  -4.737   2.974  0.00  0.00     0.026 C 
ENDBRANCH   4  13
ENDBRANCH   2   3
ENDBRANCH   1   2
BRANCH   1  15
ATOM     15  C10 <0> d          -0.588  -8.036   3.909  0.00  0.00     0.002 C 
BRANCH  15  16
ATOM     16  C11 <0> d          -1.823  -8.567   4.640  0.00  0.00     0.017 C 
BRANCH  16  17
ATOM     17  C12 <0> d          -1.802 -10.097   4.631  0.00  0.00     0.072 C 
ATOM     18  S1  <0> d          -2.111 -10.761   2.929  0.00  0.00    -0.160 SA
ATOM     19  C15 <0> d          -3.799 -11.520   3.218  0.00  0.00     0.101 C 
ATOM     20  C14 <0> d          -4.218 -10.663   4.411  0.00  0.00     0.119 C 
ATOM     21  C13 <0> d          -2.988 -10.662   5.371  0.00  0.00     0.123 C 
ATOM     22  N3  <0> d          -5.236 -11.104   5.337  0.00  0.00    -0.336 N 
ATOM     23  N4  <0> d          -3.593 -10.126   6.554  0.00  0.00    -0.335 N 
ATOM     24  C16 <0> d          -4.871 -10.593   6.551  0.00  0.00     0.316 C 
ATOM     25  H28 <0> d          -3.180  -9.557   7.223  0.00  0.00     0.164 HD
ATOM     26  O3  <0> d          -5.612 -10.549   7.513  0.00  0.00    -0.247 OA
ATOM     27  H27 <0> d          -6.014 -11.648   5.138  0.00  0.00     0.164 HD
ENDBRANCH  16  17
ENDBRANCH  15  16
ENDBRANCH   1  15
TORSDOF 9
