REMARK  1 active torsions:
REMARK  status: ('A' for Active; 'I' for Inactive)
REMARK    1  A    between atoms: C11_13  and  O3_15 
ROOT
ATOM      1  C1  <0> d           6.796  -0.725   1.305  0.00  0.00     0.037 C 
ATOM      2  C2  <0> d           7.111   0.709   1.642  0.00  0.00    -0.015 C 
ATOM      3  C3  <0> d           6.436   1.695   1.055  0.00  0.00     0.045 C 
ATOM      4  C4  <0> d           5.328   1.555   0.032  0.00  0.00     0.203 C 
ATOM      5  C5  <0> d           4.810   3.004  -0.098  0.00  0.00     0.128 C 
ATOM      6  C6  <0> d           4.315   3.292  -1.475  0.00  0.00     0.011 C 
ATOM      7  C7  <0> d           3.061   3.669  -1.460  0.00  0.00    -0.022 C 
ATOM      8  C8  <0> d           2.533   3.714  -0.051  0.00  0.00     0.024 C 
ATOM      9  C9  <0> d           3.576   3.055   0.837  0.00  0.00     0.091 C 
ATOM     10  C10 <0> d           3.341   1.623   1.253  0.00  0.00     0.272 C 
ATOM     11  O1  <0> d           4.246   0.775   0.539  0.00  0.00    -0.347 OA
ATOM     12  O2  <0> d           2.018   1.149   1.151  0.00  0.00    -0.331 OA
ATOM     13  C11 <0> d           1.286   1.562  -0.002  0.00  0.00     0.260 C 
ATOM     14  C12 <0> d           1.155   3.088   0.056  0.00  0.00     0.070 C 
ATOM     15  O4  <0> d           5.878   3.842   0.379  0.00  0.00    -0.298 OA
ATOM     16  C13 <0> d           6.616   3.142   1.270  0.00  0.00     0.292 C 
ATOM     17  O5  <0> d           7.326   3.635   2.124  0.00  0.00    -0.259 OA
ENDROOT
BRANCH  13  18
ATOM     18  O3  <0> d          -0.011   0.963   0.007  0.00  0.00    -0.371 OA
ATOM     19  H14 <0> d           0.002  -0.004   0.002  0.00  0.00     0.212 HD
ENDBRANCH  13  18
TORSDOF 1
