REMARK  7 active torsions:
REMARK  status: ('A' for Active; 'I' for Inactive)
REMARK    1  A    between atoms: C2_2  and  C3_3 
REMARK    2  A    between atoms: C7_7  and  C18_25 
REMARK    3  A    between atoms: C8_8  and  N1_9 
REMARK       I    between atoms: N1_9  and  C9_10 
REMARK    4  A    between atoms: C9_10  and  C10_12 
REMARK    5  A    between atoms: C10_12  and  N2_14 
REMARK    6  A    between atoms: N2_14  and  S1_15 
REMARK    7  A    between atoms: S1_15  and  C12_18 
ROOT
ATOM      1  N1  <0> d           5.130  -6.103  -3.386  0.00  0.00    -0.324 N 
ATOM      2  C9  <0> d           4.561  -5.365  -2.413  0.00  0.00     0.245 C 
ATOM      3  O1  <0> d           3.622  -4.642  -2.671  0.00  0.00    -0.271 OA
ATOM      4  H10 <0> d           5.903  -6.655  -3.187  0.00  0.00     0.169 HD
ENDROOT
BRANCH   2   5
ATOM      5  C10 <0> d           5.091  -5.438  -1.004  0.00  0.00     0.181 C 
ATOM      6  C11 <0> d           6.558  -5.003  -0.987  0.00  0.00     0.043 C 
BRANCH   5   7
ATOM      7  N2  <0> d           4.309  -4.549  -0.141  0.00  0.00    -0.302 N 
ATOM      8  H14 <0> d           3.967  -3.711  -0.490  0.00  0.00     0.173 HD
BRANCH   7   9
ATOM      9  S1  <0> d           4.006  -4.975   1.430  0.00  0.00     0.259 S 
ATOM     10  O2  <0> d           3.529  -6.314   1.404  0.00  0.00    -0.201 OA
ATOM     11  O3  <0> d           3.259  -3.911   2.003  0.00  0.00    -0.201 OA
BRANCH   9  12
ATOM     12  C12 <0> d           5.556  -5.010   2.268  0.00  0.00     0.079 A 
ATOM     13  C17 <0> d           6.294  -6.178   2.308  0.00  0.00     0.026 A 
ATOM     14  C16 <0> d           7.510  -6.206   2.965  0.00  0.00     0.020 A 
ATOM     15  C15 <0> d           7.988  -5.065   3.583  0.00  0.00     0.011 A 
ATOM     16  C14 <0> d           7.250  -3.896   3.542  0.00  0.00     0.020 A 
ATOM     17 Br1  <0> d           9.651  -5.102   4.482  0.00  0.00    -0.051 Br
ATOM     18  C13 <0> d           6.034  -3.869   2.885  0.00  0.00     0.026 A 
ENDBRANCH   9  12
ENDBRANCH   7   9
ENDBRANCH   5   7
ENDBRANCH   2   5
BRANCH   1  19
ATOM     19  C8  <0> d           4.607  -6.074  -4.683  0.00  0.00     0.047 A 
ATOM     20  C3  <0> d           5.432  -5.777  -5.760  0.00  0.00    -0.031 A 
ATOM     21  C4  <0> d           4.913  -5.754  -7.040  0.00  0.00     0.009 A 
ATOM     22  C5  <0> d           3.572  -6.016  -7.248  0.00  0.00     0.001 A 
ATOM     23  C6  <0> d           2.746  -6.307  -6.178  0.00  0.00     0.009 A 
ATOM     24  C7  <0> d           3.260  -6.337  -4.896  0.00  0.00    -0.031 A 
BRANCH  20  25
ATOM     25  C2  <0> d           6.893  -5.485  -5.533  0.00  0.00     0.036 C 
ATOM     26  C1  <0> d           7.650  -6.799  -5.329  0.00  0.00     0.010 C 
ENDBRANCH  20  25
BRANCH  24  27
ATOM     27  C18 <0> d           2.360  -6.653  -3.730  0.00  0.00     0.036 C 
ATOM     28  C19 <0> d           0.923  -6.252  -4.071  0.00  0.00     0.010 C 
ENDBRANCH  24  27
ENDBRANCH   1  19
TORSDOF 7
