REMARK  3 active torsions:
REMARK  status: ('A' for Active; 'I' for Inactive)
REMARK    1  A    between atoms: C4_4  and  C5_8 
REMARK    2  A    between atoms: C8_11  and  S2_13 
REMARK    3  A    between atoms: S2_13  and  N3_16 
ROOT
ATOM      1  C5  <0> d           0.040  -3.318  -1.580  0.00  0.00     0.034 A 
ATOM      2  C6  <0> d           0.055  -4.642  -1.224  0.00  0.00     0.023 A 
ATOM      3  C7  <0> d           0.063  -5.595  -2.218  0.00  0.00     0.034 A 
ATOM      4  C8  <0> d           0.057  -5.197  -3.516  0.00  0.00     0.121 A 
ATOM      5  S1  <0> d           0.032  -3.418  -3.363  0.00  0.00    -0.074 SA
ENDROOT
BRANCH   4   6
ATOM      6  S2  <0> d           0.066  -6.182  -4.977  0.00  0.00     0.267 S 
ATOM      7  O1  <0> d           0.606  -5.371  -6.011  0.00  0.00    -0.200 OA
ATOM      8  O2  <0> d           0.630  -7.436  -4.618  0.00  0.00    -0.200 OA
BRANCH   6   9
ATOM      9  N3  <0> d          -1.514  -6.472  -5.381  0.00  0.00    -0.303 N 
ATOM     10  C12 <0> d          -2.246  -5.558  -6.271  0.00  0.00     0.165 C 
ATOM     11  C11 <0> d          -3.568  -5.178  -5.605  0.00  0.00     0.292 C 
ATOM     12  N4  <0> d          -4.296  -6.398  -5.232  0.00  0.00     0.087 N 
ATOM     13  C10 <0> d          -3.548  -7.182  -4.239  0.00  0.00     0.292 C 
ATOM     14  C13 <0> d          -5.644  -6.078  -4.743  0.00  0.00     0.310 C 
ATOM     15  C9  <0> d          -2.224  -7.648  -4.854  0.00  0.00     0.165 C 
ENDBRANCH   6   9
ENDBRANCH   4   6
BRANCH   1  16
ATOM     16  C4  <0> d           0.028  -2.124  -0.717  0.00  0.00     0.069 A 
ATOM     17  C3  <0> d           0.008  -0.810  -1.136  0.00  0.00     0.060 A 
ATOM     18  C2  <0> d           0.002  -0.004   0.002  0.00  0.00     0.053 A 
ATOM     19  C1  <0> d          -0.018   1.503   0.010  0.00  0.00     0.072 C 
ATOM     20  N2  <0> d           0.023  -0.772   1.061  0.00  0.00    -0.179 NA
ATOM     21  N1  <0> d           0.034  -2.110   0.648  0.00  0.00    -0.277 N 
ATOM     22  H1  <0> d           0.048  -2.888   1.228  0.00  0.00     0.189 HD
ENDBRANCH   1  16
TORSDOF 3
