REMARK  4 active torsions:
REMARK  status: ('A' for Active; 'I' for Inactive)
REMARK    1  A    between atoms: C6_6  and  N1_7 
REMARK    2  A    between atoms: N1_7  and  C7_8 
REMARK    3  A    between atoms: N2_10  and  C8_11 
REMARK    4  A    between atoms: C8_11  and  C9_12 
ROOT
ATOM      1  C1  <0> d          -3.583   3.433  -0.238  0.00  0.00     0.032 A 
ATOM      2  C2  <0> d          -2.375   4.070  -0.246  0.00  0.00     0.035 A 
ATOM      3  C3  <0> d          -1.205   3.347  -0.002  0.00  0.00     0.074 A 
ATOM      4  C4  <0> d          -1.289   1.962   0.264  0.00  0.00     0.063 A 
ATOM      5  C5  <0> d          -2.528   1.328   0.280  0.00  0.00     0.049 A 
ATOM      6  C6  <0> d          -3.671   2.067   0.029  0.00  0.00     0.035 A 
ATOM      7  C13 <0> d          -0.037   1.234   0.523  0.00  0.00     0.261 A 
ATOM      8  O2  <0> d          -0.037   0.039   0.759  0.00  0.00    -0.267 OA
ATOM      9  N3  <0> d           1.111   1.939   0.483  0.00  0.00    -0.301 N 
ATOM     10  C14 <0> d           1.107   3.280   0.209  0.00  0.00     0.109 A 
ATOM     11  N4  <0> d           0.014   3.943  -0.018  0.00  0.00    -0.234 NA
ATOM     12  C15 <0> d           2.440   3.994   0.170  0.00  0.00     0.079 C 
ATOM     13  C16 <0> d           3.187   3.589  -1.098  0.00  0.00     0.008 C 
ATOM     14  C17 <0> d           4.015   2.336  -0.871  0.00  0.00     0.002 C 
ATOM     15  C18 <0> d           3.150   1.121  -0.583  0.00  0.00     0.020 C 
ATOM     16  C19 <0> d           2.399   1.282   0.738  0.00  0.00     0.133 C 
ENDROOT
BRANCH   6  17
ATOM     17  N1  <0> d          -4.923   1.440   0.042  0.00  0.00    -0.333 N 
ATOM     18  H5  <0> d          -5.581   1.657  -0.636  0.00  0.00     0.168 HD
BRANCH  17  19
ATOM     19  C7  <0> d          -5.213   0.536   0.998  0.00  0.00     0.172 C 
ATOM     20  S1  <0> d          -4.108   0.257   2.276  0.00  0.00    -0.041 SA
ATOM     21  N2  <0> d          -6.372  -0.149   0.948  0.00  0.00    -0.365 N 
ATOM     22  H6  <0> d          -6.998   0.009   0.224  0.00  0.00     0.162 HD
BRANCH  21  23
ATOM     23  C8  <0> d          -6.688  -1.133   1.987  0.00  0.00     0.154 C 
BRANCH  23  24
ATOM     24  C9  <0> d          -8.051  -1.763   1.696  0.00  0.00     0.139 C 
ATOM     25  O1  <0> d          -9.074  -0.753   1.732  0.00  0.00    -0.384 OA
ATOM     26  C12 <0> d         -10.265  -1.378   2.256  0.00  0.00     0.168 C 
ATOM     27  C11 <0> d          -9.726  -2.293   3.385  0.00  0.00     0.029 C 
ATOM     28  C10 <0> d          -8.392  -2.799   2.784  0.00  0.00     0.035 C 
ENDBRANCH  23  24
ENDBRANCH  21  23
ENDBRANCH  17  19
ENDBRANCH   6  17
TORSDOF 4
