REMARK  7 active torsions:
REMARK  status: ('A' for Active; 'I' for Inactive)
REMARK    1  A    between atoms: C4_4  and  O6_24 
REMARK    2  A    between atoms: C7_7  and  S1_8 
REMARK    3  A    between atoms: S1_8  and  N1_11 
REMARK    4  A    between atoms: N1_11  and  C8_12 
REMARK    5  A    between atoms: C8_12  and  C9_13 
REMARK    6  A    between atoms: C9_13  and  S2_14 
REMARK    7  A    between atoms: S2_14  and  N2_17 
ROOT
ATOM      1  S1  <0> d          -0.065  -0.049   2.732  0.00  0.00     0.259 S 
ATOM      2  O1  <0> d          -1.269   0.703   2.786  0.00  0.00    -0.201 OA
ATOM      3  O2  <0> d           0.202  -1.126   3.619  0.00  0.00    -0.201 OA
ENDROOT
BRANCH   1   4
ATOM      4  C7  <0> d           0.049  -0.701   1.099  0.00  0.00     0.086 A 
ATOM      5  C2  <0> d           1.143  -1.463   0.735  0.00  0.00    -0.036 A 
ATOM      6  C1  <0> d           2.239  -1.733   1.734  0.00  0.00     0.050 C 
ATOM      7  C3  <0> d           1.232  -1.980  -0.543  0.00  0.00     0.045 A 
ATOM      8  C4  <0> d           0.223  -1.731  -1.463  0.00  0.00     0.074 A 
ATOM      9  C5  <0> d          -0.872  -0.962  -1.096  0.00  0.00    -0.027 A 
ATOM     10  C6  <0> d          -0.956  -0.447   0.183  0.00  0.00     0.035 A 
ATOM     11  C14 <0> d          -1.969  -0.689  -2.092  0.00  0.00     0.051 C 
BRANCH   8  12
ATOM     12  O6  <0> d           0.308  -2.239  -2.720  0.00  0.00    -0.355 OA
ATOM     13  C15 <0> d           1.464  -3.020  -3.028  0.00  0.00     0.210 C 
ENDBRANCH   8  12
ENDBRANCH   1   4
BRANCH   1  14
ATOM     14  N1  <0> d           1.176   1.032   2.914  0.00  0.00    -0.314 N 
ATOM     15  H6  <0> d           1.876   0.862   3.564  0.00  0.00     0.172 HD
BRANCH  14  16
ATOM     16  C8  <0> d           1.217   2.246   2.094  0.00  0.00     0.149 C 
BRANCH  16  17
ATOM     17  C9  <0> d           2.207   3.240   2.704  0.00  0.00     0.183 C 
BRANCH  17  18
ATOM     18  S2  <0> d           2.257   4.743   1.689  0.00  0.00     0.230 S 
ATOM     19  O3  <0> d           2.837   4.459   0.423  0.00  0.00    -0.206 OA
ATOM     20  O4  <0> d           1.020   5.436   1.780  0.00  0.00    -0.206 OA
BRANCH  18  21
ATOM     21  N2  <0> d           3.352   5.730   2.443  0.00  0.00    -0.307 N 
ATOM     22  C13 <0> d           4.781   5.682   2.095  0.00  0.00     0.161 C 
ATOM     23  C12 <0> d           5.592   5.544   3.384  0.00  0.00     0.188 C 
ATOM     24  O5  <0> d           5.196   6.565   4.303  0.00  0.00    -0.388 OA
ATOM     25  C11 <0> d           3.828   6.486   4.710  0.00  0.00     0.188 C 
ATOM     26  C10 <0> d           2.925   6.677   3.486  0.00  0.00     0.161 C 
ENDBRANCH  18  21
ENDBRANCH  17  18
ENDBRANCH  16  17
ENDBRANCH  14  16
ENDBRANCH   1  14
TORSDOF 7
