REMARK  3 active torsions:
REMARK  status: ('A' for Active; 'I' for Inactive)
REMARK    1  A    between atoms: C7_7  and  N1_8 
REMARK    2  A    between atoms: N1_8  and  S1_9 
REMARK    3  A    between atoms: S1_9  and  C8_12 
ROOT
ATOM      1  C8  <0> d           1.568  -1.491   4.033  0.00  0.00     0.081 A 
ATOM      2  C9  <0> d           1.889  -2.767   3.592  0.00  0.00     0.034 A 
ATOM      3  C10 <0> d           3.171  -3.248   3.710  0.00  0.00    -0.029 A 
ATOM      4  C11 <0> d           4.112  -2.395   4.288  0.00  0.00     0.050 A 
ATOM      5  C12 <0> d           3.795  -1.119   4.729  0.00  0.00    -0.016 A 
ATOM      6  C13 <0> d           2.510  -0.638   4.604  0.00  0.00     0.035 A 
ATOM      7  C14 <0> d           5.074  -0.557   5.269  0.00  0.00     0.109 A 
ATOM      8  C15 <0> d           6.091  -1.673   5.066  0.00  0.00     0.232 A 
ATOM      9  O3  <0> d           7.266  -1.634   5.367  0.00  0.00    -0.272 OA
ATOM     10  N2  <0> d           5.454  -2.705   4.494  0.00  0.00    -0.316 N 
ATOM     11  C16 <0> d           5.980  -4.023   4.097  0.00  0.00     0.132 C 
ATOM     12  C17 <0> d           4.831  -5.037   4.145  0.00  0.00     0.025 C 
ATOM     13  C18 <0> d           3.650  -4.601   3.272  0.00  0.00     0.042 C 
ATOM     14  C19 <0> d           4.928  -0.227   6.755  0.00  0.00     0.025 C 
ENDROOT
BRANCH   1  15
ATOM     15  S1  <0> d          -0.092  -0.926   3.858  0.00  0.00     0.263 S 
ATOM     16  O1  <0> d          -0.316   0.007   4.905  0.00  0.00    -0.200 OA
ATOM     17  O2  <0> d          -0.898  -2.084   3.684  0.00  0.00    -0.200 OA
BRANCH  15  18
ATOM     18  N1  <0> d          -0.172  -0.075   2.440  0.00  0.00    -0.280 N 
ATOM     19  H8  <0> d          -0.347   0.879   2.456  0.00  0.00     0.179 HD
BRANCH  18  20
ATOM     20  C7  <0> d           0.010  -0.731   1.220  0.00  0.00     0.054 A 
ATOM     21  C2  <0> d           1.149  -0.487   0.462  0.00  0.00    -0.034 A 
ATOM     22  C1  <0> d           2.188   0.486   0.955  0.00  0.00     0.050 C 
ATOM     23  C3  <0> d           1.329  -1.141  -0.741  0.00  0.00     0.009 A 
ATOM     24  C4  <0> d           0.375  -2.034  -1.193  0.00  0.00     0.001 A 
ATOM     25  C5  <0> d          -0.762  -2.276  -0.444  0.00  0.00     0.009 A 
ATOM     26  C6  <0> d          -0.948  -1.625   0.760  0.00  0.00    -0.034 A 
ATOM     27  C20 <0> d          -2.187  -1.889   1.576  0.00  0.00     0.050 C 
ENDBRANCH  18  20
ENDBRANCH  15  18
ENDBRANCH   1  15
TORSDOF 3
