REMARK  3 active torsions:
REMARK  status: ('A' for Active; 'I' for Inactive)
REMARK    1  A    between atoms: C6_6  and  N1_9 
REMARK    2  A    between atoms: N1_9  and  S1_10 
REMARK    3  A    between atoms: S1_10  and  N2_13 
ROOT
ATOM      1  S1  <0> d           0.149   2.388   2.563  0.00  0.00     0.317 S 
ATOM      2  O1  <0> d          -0.483   2.442   3.835  0.00  0.00    -0.183 OA
ATOM      3  O2  <0> d           1.449   1.844   2.381  0.00  0.00    -0.183 OA
ENDROOT
BRANCH   1   4
ATOM      4  N1  <0> d           0.204   3.943   1.996  0.00  0.00    -0.298 N 
ATOM      5  H16 <0> d           1.100   4.288   1.459  0.00  0.00     0.174 HD
BRANCH   4   6
ATOM      6  C6  <0> d          -1.004   4.772   2.014  0.00  0.00     0.098 C 
ATOM      7  C5  <0> d          -1.684   4.712   0.645  0.00  0.00     0.026 C 
ATOM      8  C4  <0> d          -2.945   5.578   0.664  0.00  0.00     0.002 C 
ATOM      9  C3  <0> d          -2.565   7.026   0.981  0.00  0.00     0.005 C 
ATOM     10  C2  <0> d          -1.885   7.086   2.350  0.00  0.00    -0.013 C 
ATOM     11  C1  <0> d          -2.845   6.564   3.421  0.00  0.00     0.010 C 
ATOM     12  C7  <0> d          -0.624   6.220   2.331  0.00  0.00     0.009 C 
ATOM     13  C8  <0> d           0.057   6.280   3.700  0.00  0.00     0.012 C 
ENDBRANCH   4   6
ENDBRANCH   1   4
BRANCH   1  14
ATOM     14  N2  <0> d          -0.864   1.538   1.567  0.00  0.00    -0.291 N 
ATOM     15  C12 <0> d          -0.376   0.947   0.307  0.00  0.00     0.164 C 
ATOM     16  C11 <0> d          -0.784  -0.529   0.269  0.00  0.00     0.253 C 
ATOM     17  N3  <0> d          -2.233  -0.639   0.484  0.00  0.00    -0.072 N 
ATOM     18  C10 <0> d          -2.614  -0.145   1.814  0.00  0.00     0.253 C 
ATOM     19  H21 <0> d          -2.522  -1.696   0.388  0.00  0.00     0.277 HD
ATOM     20  H26 <0> d          -2.748  -0.047  -0.288  0.00  0.00     0.277 HD
ATOM     21  C9  <0> d          -2.280   1.347   1.916  0.00  0.00     0.164 C 
ENDBRANCH   1  14
TORSDOF 3
