REMARK  7 active torsions:
REMARK  status: ('A' for Active; 'I' for Inactive)
REMARK    1  A    between atoms: C2_2  and  C13_21 
REMARK    2  A    between atoms: N1_5  and  C5_9 
REMARK    3  A    between atoms: C5_9  and  C6_10 
REMARK       I    between atoms: C6_10  and  N3_12 
REMARK    4  A    between atoms: N3_12  and  C7_13 
REMARK    5  A    between atoms: C7_13  and  C8_14 
REMARK    6  A    between atoms: C8_14  and  C9_15 
REMARK    7  A    between atoms: C9_15  and  N4_16 
ROOT
ATOM      1  C1  <0> d          -0.019   1.526   0.010  0.00  0.00     0.055 C 
ATOM      2  C2  <0> d           0.002  -0.004   0.002  0.00  0.00     0.143 A 
ATOM      3  C3  <0> d           0.815  -0.520  -1.169  0.00  0.00     0.261 A 
ATOM      4  O1  <0> d           0.595  -0.342  -2.348  0.00  0.00    -0.270 OA
ATOM      5  N1  <0> d           1.833  -1.217  -0.627  0.00  0.00    -0.259 N 
ATOM      6  C4  <0> d           1.777  -1.214   0.710  0.00  0.00     0.326 A 
ATOM      7  O2  <0> d           2.586  -1.776   1.421  0.00  0.00    -0.247 OA
ATOM      8  N2  <0> d           0.724  -0.519   1.178  0.00  0.00    -0.321 N 
ATOM      9  H4  <0> d           0.487  -0.383   2.109  0.00  0.00     0.165 HD
ENDROOT
BRANCH   5  10
ATOM     10  C5  <0> d           2.871  -1.896  -1.406  0.00  0.00     0.239 C 
BRANCH  10  11
ATOM     11  C6  <0> d           4.020  -0.950  -1.644  0.00  0.00     0.236 C 
ATOM     12  O3  <0> d           3.975   0.180  -1.206  0.00  0.00    -0.272 OA
ATOM     13  N3  <0> d           5.097  -1.360  -2.343  0.00  0.00    -0.360 N 
ATOM     14  H7  <0> d           5.133  -2.264  -2.693  0.00  0.00     0.162 HD
BRANCH  13  15
ATOM     15  C7  <0> d           6.213  -0.440  -2.574  0.00  0.00     0.124 C 
BRANCH  15  16
ATOM     16  C8  <0> d           7.298  -1.149  -3.387  0.00  0.00     0.041 C 
BRANCH  16  17
ATOM     17  C9  <0> d           8.464  -0.188  -3.628  0.00  0.00     0.152 C 
BRANCH  17  18
ATOM     18  N4  <0> d           9.503  -0.867  -4.407  0.00  0.00    -0.281 N 
ATOM     19  N5  <0> d          10.126  -2.076  -4.072  0.00  0.00    -0.185 NA
ATOM     20  C12 <0> d          10.993  -2.363  -5.010  0.00  0.00     0.140 A 
ATOM     21  C11 <0> d          10.957  -1.342  -5.965  0.00  0.00     0.040 A 
ATOM     22  C10 <0> d          10.033  -0.435  -5.570  0.00  0.00     0.113 A 
ENDBRANCH  17  18
ENDBRANCH  16  17
ENDBRANCH  15  16
ENDBRANCH  13  15
ENDBRANCH  10  11
ENDBRANCH   5  10
BRANCH   2  23
ATOM     23  C13 <0> d          -1.401  -0.551  -0.040  0.00  0.00     0.021 A 
ATOM     24  C18 <0> d          -2.230  -0.250  -1.107  0.00  0.00     0.125 A 
ATOM     25  C17 <0> d          -3.518  -0.757  -1.148  0.00  0.00     0.046 A 
ATOM     26  F1  <0> d          -1.781   0.534  -2.111  0.00  0.00    -0.205 F 
ATOM     27  C16 <0> d          -3.979  -1.555  -0.119  0.00  0.00     0.045 A 
ATOM     28  C15 <0> d          -3.152  -1.852   0.951  0.00  0.00     0.117 A 
ATOM     29  C14 <0> d          -1.863  -1.350   0.990  0.00  0.00     0.055 A 
ATOM     30  F2  <0> d          -3.603  -2.633   1.958  0.00  0.00    -0.206 F 
ENDBRANCH   2  23
TORSDOF 7
