REMARK  6 active torsions:
REMARK  status: ('A' for Active; 'I' for Inactive)
REMARK    1  A    between atoms: C3_3  and  O3_27 
REMARK    2  A    between atoms: C8_10  and  S1_11 
REMARK    3  A    between atoms: S1_11  and  C9_12 
REMARK    4  A    between atoms: C11_14  and  C19_23 
REMARK    5  A    between atoms: C12_15  and  O2_22 
REMARK    6  A    between atoms: C13_16  and  C15_18 
ROOT
ATOM      1  C9  <0> d          -3.061  -2.417   1.471  0.00  0.00     0.004 A 
ATOM      2  C10 <0> d          -3.353  -2.921   0.210  0.00  0.00     0.029 A 
ATOM      3  C11 <0> d          -4.384  -3.824   0.049  0.00  0.00    -0.016 A 
ATOM      4  C12 <0> d          -5.137  -4.220   1.145  0.00  0.00     0.079 A 
ATOM      5  C13 <0> d          -4.850  -3.714   2.404  0.00  0.00    -0.016 A 
ATOM      6  C14 <0> d          -3.815  -2.814   2.568  0.00  0.00     0.029 A 
ENDROOT
BRANCH   1   7
ATOM      7  S1  <0> d          -1.741  -1.268   1.679  0.00  0.00    -0.093 SA
BRANCH   7   8
ATOM      8  C8  <0> d          -1.071  -1.063   0.006  0.00  0.00     0.224 C 
ATOM      9  C4  <0> d           0.002  -0.004   0.002  0.00  0.00     0.026 A 
ATOM     10  C3  <0> d          -0.017   1.381   0.010  0.00  0.00     0.100 A 
ATOM     11  C5  <0> d           1.228  -0.655  -0.013  0.00  0.00    -0.004 A 
ATOM     12  C2  <0> d           1.193   2.065   0.002  0.00  0.00     0.064 A 
ATOM     13  C1  <0> d           1.196   3.572   0.010  0.00  0.00     0.073 C 
ATOM     14  N1  <0> d           2.337   1.411  -0.012  0.00  0.00    -0.262 NA
ATOM     15  C6  <0> d           2.387   0.091  -0.019  0.00  0.00     0.127 A 
ATOM     16  C7  <0> d           0.946  -2.137  -0.018  0.00  0.00     0.210 C 
ATOM     17  O1  <0> d          -0.428  -2.279  -0.424  0.00  0.00    -0.366 OA
BRANCH  10  18
ATOM     18  O3  <0> d          -1.195   2.058   0.019  0.00  0.00    -0.358 OA
ATOM     19  H29 <0> d          -1.532   2.248   0.905  0.00  0.00     0.217 HD
ENDBRANCH  10  18
ENDBRANCH   7   8
ENDBRANCH   1   7
BRANCH   5  20
ATOM     20  C15 <0> d          -5.668  -4.146   3.594  0.00  0.00    -0.021 C 
ATOM     21  C16 <0> d          -5.149  -3.446   4.851  0.00  0.00     0.019 C 
ATOM     22  C17 <0> d          -7.134  -3.769   3.369  0.00  0.00     0.019 C 
ATOM     23  C18 <0> d          -5.552  -5.662   3.769  0.00  0.00     0.019 C 
ENDBRANCH   5  20
BRANCH   3  24
ATOM     24  C19 <0> d          -4.697  -4.375  -1.318  0.00  0.00    -0.021 C 
ATOM     25  C20 <0> d          -3.726  -3.781  -2.341  0.00  0.00     0.019 C 
ATOM     26  C21 <0> d          -4.549  -5.898  -1.300  0.00  0.00     0.019 C 
ATOM     27  C22 <0> d          -6.131  -4.006  -1.702  0.00  0.00     0.019 C 
ENDBRANCH   3  24
BRANCH   4  28
ATOM     28  O2  <0> d          -6.156  -5.107   0.985  0.00  0.00    -0.360 OA
ATOM     29  H19 <0> d          -7.010  -4.694   0.797  0.00  0.00     0.217 HD
ENDBRANCH   4  28
TORSDOF 6
