REMARK  4 active torsions:
REMARK  status: ('A' for Active; 'I' for Inactive)
REMARK    1  A    between atoms: C6_6  and  O1_7 
REMARK    2  A    between atoms: O1_7  and  C7_8 
REMARK    3  A    between atoms: C10_11  and  N2_15 
REMARK    4  A    between atoms: C12_13  and  N1_14 
ROOT
ATOM      1  C7  <0> d          -1.101  -2.054  -0.103  0.00  0.00     0.102 A 
ATOM      2  C8  <0> d           0.129  -2.693  -0.111  0.00  0.00     0.042 A 
ATOM      3  C9  <0> d           0.193  -4.069  -0.225  0.00  0.00     0.039 A 
ATOM      4  C10 <0> d          -0.968  -4.812  -0.332  0.00  0.00     0.105 A 
ATOM      5  C11 <0> d          -2.199  -4.183  -0.324  0.00  0.00     0.068 A 
ATOM      6  C12 <0> d          -2.271  -2.803  -0.204  0.00  0.00     0.062 A 
ENDROOT
BRANCH   1   7
ATOM      7  O1  <0> d          -1.165  -0.701   0.010  0.00  0.00    -0.309 OA
BRANCH   7   8
ATOM      8  C6  <0> d           0.001  -0.002  -0.018  0.00  0.00     0.076 A 
ATOM      9  C1  <0> d           0.750   0.053  -1.184  0.00  0.00     0.038 A 
ATOM     10  C2  <0> d           1.935   0.764  -1.209  0.00  0.00     0.021 A 
ATOM     11  C3  <0> d           2.373   1.421  -0.073  0.00  0.00     0.006 A 
ATOM     12  C4  <0> d           1.627   1.367   1.090  0.00  0.00     0.021 A 
ATOM     13  I1  <0> d           4.169   2.498  -0.116  0.00  0.00    -0.045 I 
ATOM     14  C5  <0> d           0.443   0.657   1.121  0.00  0.00     0.038 A 
ENDBRANCH   7   8
ENDBRANCH   1   7
BRANCH   6  15
ATOM     15  N1  <0> d          -3.516  -2.164  -0.192  0.00  0.00    -0.397 N 
ATOM     16  H8  <0> d          -3.565  -1.198  -0.112  0.00  0.00     0.156 HD
ATOM     17  H9  <0> d          -4.330  -2.686  -0.262  0.00  0.00     0.156 HD
ENDBRANCH   6  15
BRANCH   4  18
ATOM     18  N2  <0> d          -0.893  -6.286  -0.455  0.00  0.00    -0.116 N 
ATOM     19  O2  <0> d           0.182  -6.838  -0.463  0.00  0.00    -0.532 OA
ATOM     20  O3  <0> d          -1.907  -6.937  -0.549  0.00  0.00    -0.532 OA
ENDBRANCH   4  18
TORSDOF 4
