REMARK  5 active torsions:
REMARK  status: ('A' for Active; 'I' for Inactive)
REMARK    1  A    between atoms: C8_9  and  C9_11 
REMARK       I    between atoms: C9_11  and  N1_13 
REMARK    2  A    between atoms: N1_13  and  C10_14 
REMARK    3  A    between atoms: N2_17  and  C15_20 
REMARK    4  A    between atoms: C15_20  and  C16_21 
REMARK    5  A    between atoms: C17_23  and  C18_26 
ROOT
ATOM      1  C10 <0> d           6.410  -4.549  -0.137  0.00  0.00     0.087 C 
ATOM      2  C11 <0> d           7.475  -4.245   0.921  0.00  0.00     0.053 C 
ATOM      3  C12 <0> d           8.774  -4.965   0.550  0.00  0.00     0.237 C 
ATOM      4  N2  <0> d           8.536  -6.412   0.495  0.00  0.00    -0.064 N 
ATOM      5  C13 <0> d           7.569  -6.718  -0.565  0.00  0.00     0.237 C 
ATOM      6  C14 <0> d           6.224  -6.066  -0.238  0.00  0.00     0.053 C 
ATOM      7  H24 <0> d           8.172  -6.726   1.382  0.00  0.00     0.280 HD
ENDROOT
BRANCH   1   8
ATOM      8  N1  <0> d           5.143  -3.925   0.251  0.00  0.00    -0.354 N 
ATOM      9  C9  <0> d           4.898  -2.639  -0.071  0.00  0.00     0.249 C 
ATOM     10  O3  <0> d           5.727  -1.999  -0.682  0.00  0.00    -0.271 OA
ATOM     11  H8  <0> d           4.479  -4.437   0.740  0.00  0.00     0.162 HD
BRANCH   9  12
ATOM     12  C8  <0> d           3.594  -1.997   0.328  0.00  0.00     0.244 C 
ATOM     13  C7  <0> d           2.434  -2.685  -0.404  0.00  0.00     0.218 C 
ATOM     14  O1  <0> d           1.214  -2.044  -0.013  0.00  0.00    -0.345 OA
ATOM     15  C5  <0> d           1.212  -0.683  -0.013  0.00  0.00     0.102 A 
ATOM     16  C4  <0> d           2.404   0.031  -0.023  0.00  0.00     0.103 A 
ATOM     17  C6  <0> d           0.002  -0.004   0.002  0.00  0.00     0.039 A 
ATOM     18  C3  <0> d           2.378   1.418  -0.014  0.00  0.00     0.040 A 
ATOM     19  O2  <0> d           3.602  -0.615  -0.043  0.00  0.00    -0.331 OA
ATOM     20  C2  <0> d           1.170   2.088   0.002  0.00  0.00     0.003 A 
ATOM     21  C1  <0> d          -0.017   1.378   0.010  0.00  0.00     0.003 A 
ENDBRANCH   9  12
ENDBRANCH   1   8
BRANCH   4  22
ATOM     22  C15 <0> d           9.802  -7.104   0.216  0.00  0.00     0.323 C 
BRANCH  22  23
ATOM     23  C16 <0> d           9.585  -8.594   0.281  0.00  0.00     0.199 A 
ATOM     24  O4  <0> d           9.712  -9.357   1.374  0.00  0.00    -0.194 OA
ATOM     25  N4  <0> d           9.412 -10.685   0.973  0.00  0.00    -0.105 NA
ATOM     26  C17 <0> d           9.139 -10.634  -0.307  0.00  0.00     0.189 A 
ATOM     27  N3  <0> d           9.247  -9.358  -0.719  0.00  0.00    -0.202 NA
BRANCH  26  28
ATOM     28  C18 <0> d           8.772 -11.791  -1.162  0.00  0.00     0.017 A 
ATOM     29  C22 <0> d           8.690 -13.079  -0.628  0.00  0.00     0.034 A 
ATOM     30  C21 <0> d           8.340 -14.127  -1.456  0.00  0.00     0.117 A 
ATOM     31  N5  <0> d           8.096 -13.924  -2.737  0.00  0.00    -0.273 NA
ATOM     32  C20 <0> d           8.168 -12.725  -3.281  0.00  0.00     0.117 A 
ATOM     33  C19 <0> d           8.505 -11.622  -2.522  0.00  0.00     0.034 A 
ENDBRANCH  26  28
ENDBRANCH  22  23
ENDBRANCH   4  22
TORSDOF 5
