REMARK  5 active torsions:
REMARK  status: ('A' for Active; 'I' for Inactive)
REMARK    1  A    between atoms: C3_3  and  C11_15 
REMARK    2  A    between atoms: N1_5  and  C5_7 
REMARK    3  A    between atoms: C5_7  and  C6_8 
REMARK    4  A    between atoms: C11_15  and  C12_16 
REMARK    5  A    between atoms: C12_16  and  N3_18 
ROOT
ATOM      1  C1  <0> d          -0.018   1.503   0.010  0.00  0.00     0.073 C 
ATOM      2  C2  <0> d           0.002  -0.004   0.002  0.00  0.00     0.059 A 
ATOM      3  C3  <0> d           0.008  -0.818  -1.135  0.00  0.00    -0.006 A 
ATOM      4  C4  <0> d           0.028  -2.107  -0.725  0.00  0.00     0.035 A 
ATOM      5  N1  <0> d           0.034  -2.109   0.625  0.00  0.00    -0.269 N 
ATOM      6  N2  <0> d           0.023  -0.777   1.058  0.00  0.00    -0.177 NA
ATOM      7  C10 <0> d           0.040  -3.323  -1.615  0.00  0.00     0.070 C 
ENDROOT
BRANCH   3   8
ATOM      8  C11 <0> d          -0.006  -0.343  -2.566  0.00  0.00     0.075 C 
BRANCH   8   9
ATOM      9  C12 <0> d           1.431  -0.162  -3.057  0.00  0.00     0.183 C 
ATOM     10  C13 <0> d           1.417   0.438  -4.465  0.00  0.00     0.040 C 
BRANCH   9  11
ATOM     11  N3  <0> d           2.106  -1.466  -3.087  0.00  0.00    -0.075 N 
ATOM     12  H17 <0> d           1.613  -2.086  -3.712  0.00  0.00     0.274 HD
ATOM     13  H18 <0> d           3.054  -1.347  -3.412  0.00  0.00     0.274 HD
ATOM     14  H19 <0> d           2.116  -1.862  -2.159  0.00  0.00     0.274 HD
ENDBRANCH   9  11
ENDBRANCH   8   9
ENDBRANCH   3   8
BRANCH   5  15
ATOM     15  C5  <0> d           0.055  -3.295   1.485  0.00  0.00     0.197 C 
BRANCH  15  16
ATOM     16  C6  <0> d           1.482  -3.682   1.773  0.00  0.00     0.004 A 
ATOM     17  S1  <0> d           2.553  -4.785   0.866  0.00  0.00    -0.086 SA
ATOM     18  C9  <0> d           4.001  -4.637   1.899  0.00  0.00     0.051 A 
ATOM     19  C8  <0> d           3.576  -3.776   2.857  0.00  0.00     0.028 A 
ATOM     20 Br1  <0> d           5.688  -5.471   1.712  0.00  0.00    -0.043 Br
ATOM     21  C7  <0> d           2.284  -3.287   2.791  0.00  0.00     0.018 A 
ENDBRANCH  15  16
ENDBRANCH   5  15
TORSDOF 5
