REMARK  3 active torsions:
REMARK  status: ('A' for Active; 'I' for Inactive)
REMARK    1  A    between atoms: C3_3  and  C7_9 
REMARK    2  A    between atoms: C7_9  and  N3_11 
REMARK    3  A    between atoms: C9_12  and  N5_18 
ROOT
ATOM      1  N3  <0> d          -0.780   0.744  -2.802  0.00  0.00    -0.244 N 
ATOM      2  C9  <0> d          -1.791   0.676  -3.706  0.00  0.00     0.138 A 
ATOM      3  C10 <0> d          -2.477   1.851  -3.640  0.00  0.00     0.082 A 
ATOM      4  C11 <0> d          -1.866   2.651  -2.671  0.00  0.00     0.072 A 
ATOM      5  N4  <0> d          -0.856   1.989  -2.165  0.00  0.00    -0.174 NA
ATOM      6  C12 <0> d          -2.300   4.037  -2.270  0.00  0.00     0.074 C 
ATOM      7 Br1  <0> d          -3.989   2.317  -4.676  0.00  0.00    -0.045 Br
ENDROOT
BRANCH   1   8
ATOM      8  C7  <0> d           0.211  -0.302  -2.536  0.00  0.00     0.145 C 
ATOM      9  C8  <0> d           1.617   0.298  -2.603  0.00  0.00     0.040 C 
BRANCH   8  10
ATOM     10  C3  <0> d          -0.024  -0.879  -1.163  0.00  0.00     0.016 A 
ATOM     11  C2  <0> d          -0.257  -2.225  -0.865  0.00  0.00     0.061 A 
ATOM     12  C1  <0> d          -0.318  -3.353  -1.862  0.00  0.00     0.073 C 
ATOM     13  N2  <0> d          -0.418  -2.335   0.429  0.00  0.00    -0.177 NA
ATOM     14  N1  <0> d          -0.284  -1.062   0.996  0.00  0.00    -0.278 N 
ATOM     15  C4  <0> d          -0.046  -0.185  -0.002  0.00  0.00     0.036 A 
ATOM     16  C5  <0> d          -0.390  -0.738   2.421  0.00  0.00     0.179 C 
ATOM     17  C6  <0> d           0.159   1.300   0.151  0.00  0.00     0.070 C 
ENDBRANCH   8  10
ENDBRANCH   1   8
BRANCH   2  18
ATOM     18  N5  <0> d          -2.074  -0.397  -4.548  0.00  0.00    -0.383 N 
ATOM     19  H17 <0> d          -1.522  -1.194  -4.519  0.00  0.00     0.157 HD
ATOM     20  H18 <0> d          -2.823  -0.347  -5.162  0.00  0.00     0.157 HD
ENDBRANCH   2  18
TORSDOF 3
