REMARK  7 active torsions:
REMARK  status: ('A' for Active; 'I' for Inactive)
REMARK    1  A    between atoms: C6_6  and  S1_8 
REMARK    2  A    between atoms: S1_8  and  N1_11 
REMARK    3  A    between atoms: N1_11  and  C8_12 
REMARK    4  A    between atoms: C8_12  and  C9_13 
REMARK    5  A    between atoms: C9_13  and  N2_14 
REMARK    6  A    between atoms: N2_14  and  C10_15 
REMARK    7  A    between atoms: C10_15  and  C11_16 
ROOT
ATOM      1  C9  <0> d          -2.381  -5.949   0.889  0.00  0.00     0.253 C 
ENDROOT
BRANCH   1   2
ATOM      2  C8  <0> d          -1.316  -4.857   0.773  0.00  0.00     0.159 C 
BRANCH   2   3
ATOM      3  N1  <0> d          -1.394  -3.974   1.939  0.00  0.00    -0.314 N 
ATOM      4  H7  <0> d          -2.169  -4.006   2.521  0.00  0.00     0.172 HD
BRANCH   3   5
ATOM      5  S1  <0> d          -0.158  -2.919   2.263  0.00  0.00     0.259 S 
ATOM      6  O1  <0> d           1.048  -3.664   2.162  0.00  0.00    -0.201 OA
ATOM      7  O2  <0> d          -0.523  -2.216   3.442  0.00  0.00    -0.201 OA
BRANCH   5   8
ATOM      8  C6  <0> d          -0.129  -1.735   0.959  0.00  0.00     0.086 A 
ATOM      9  C5  <0> d          -1.213  -0.901   0.758  0.00  0.00    -0.039 A 
ATOM     10  C4  <0> d          -1.190   0.029  -0.265  0.00  0.00     0.009 A 
ATOM     11  C17 <0> d          -2.420  -1.006   1.654  0.00  0.00     0.050 C 
ATOM     12  C3  <0> d          -0.083   0.125  -1.086  0.00  0.00     0.007 A 
ATOM     13  C2  <0> d           1.002  -0.708  -0.885  0.00  0.00    -0.060 A 
ATOM     14  C1  <0> d           2.209  -0.603  -1.781  0.00  0.00     0.048 C 
ATOM     15  C7  <0> d           0.977  -1.641   0.134  0.00  0.00     0.032 A 
ENDBRANCH   5   8
ENDBRANCH   3   5
ENDBRANCH   2   3
ENDBRANCH   1   2
BRANCH   1  16
ATOM     16  N2  <0> d          -2.303  -6.835  -0.281  0.00  0.00    -0.070 N 
ATOM     17  H12 <0> d          -2.461  -6.299  -1.120  0.00  0.00     0.277 HD
ATOM     18  H25 <0> d          -1.388  -7.260  -0.320  0.00  0.00     0.277 HD
BRANCH  16  19
ATOM     19  C10 <0> d          -3.325  -7.884  -0.170  0.00  0.00     0.278 C 
BRANCH  19  20
ATOM     20  C11 <0> d          -3.245  -8.793  -1.369  0.00  0.00     0.051 A 
ATOM     21  C14 <0> d          -3.918  -8.458  -2.569  0.00  0.00     0.260 A 
ATOM     22  N4  <0> d          -3.827  -9.284  -3.631  0.00  0.00    -0.270 N 
ATOM     23  O4  <0> d          -4.569  -7.432  -2.642  0.00  0.00    -0.267 OA
ATOM     24  C13 <0> d          -3.112 -10.421  -3.546  0.00  0.00     0.330 A 
ATOM     25  C15 <0> d          -4.514  -8.945  -4.880  0.00  0.00     0.164 C 
ATOM     26  N3  <0> d          -2.473 -10.754  -2.410  0.00  0.00    -0.313 N 
ATOM     27  O3  <0> d          -3.043 -11.159  -4.511  0.00  0.00    -0.246 OA
ATOM     28  C12 <0> d          -2.535  -9.940  -1.312  0.00  0.00     0.109 A 
ATOM     29  C16 <0> d          -1.703 -11.998  -2.348  0.00  0.00     0.160 C 
ENDBRANCH  19  20
ENDBRANCH  16  19
ENDBRANCH   1  16
TORSDOF 7
