REMARK  2 active torsions:
REMARK  status: ('A' for Active; 'I' for Inactive)
REMARK    1  A    between atoms: C5_5  and  C8_8 
REMARK    2  A    between atoms: C11_13  and  N4_27 
ROOT
ATOM      1  C8  <0> d           0.059  -4.275  -0.021  0.00  0.00     0.100 C 
ATOM      2  C9  <0> d          -1.161  -4.797   0.693  0.00  0.00     0.070 A 
ATOM      3  C10 <0> d          -2.417  -4.705   0.050  0.00  0.00     0.294 A 
ATOM      4  O1  <0> d          -2.499  -4.213  -1.066  0.00  0.00    -0.265 OA
ATOM      5  N1  <0> d          -3.517  -5.159   0.667  0.00  0.00    -0.023 NA
ATOM      6  C11 <0> d          -3.446  -5.692   1.869  0.00  0.00     0.703 A 
ATOM      7  N2  <0> d          -2.257  -5.801   2.520  0.00  0.00    -0.174 N 
ATOM      8  C12 <0> d          -1.100  -5.354   1.931  0.00  0.00     0.134 A 
ATOM      9  N3  <0> d           0.090  -5.493   2.619  0.00  0.00    -0.340 N 
ATOM     10  C13 <0> d           1.269  -5.332   1.928  0.00  0.00     0.056 A 
ATOM     11  C14 <0> d           1.300  -4.766   0.679  0.00  0.00     0.034 A 
ATOM     12  C15 <0> d           2.630  -4.732   0.206  0.00  0.00     0.192 A 
ATOM     13  O2  <0> d           3.001  -4.295  -0.867  0.00  0.00    -0.287 OA
ATOM     14  C16 <0> d           3.490  -5.324   1.254  0.00  0.00     0.027 A 
ATOM     15  C17 <0> d           2.635  -5.694   2.322  0.00  0.00     0.005 A 
ATOM     16  C18 <0> d           3.143  -6.283   3.469  0.00  0.00     0.014 A 
ATOM     17  C19 <0> d           4.524  -6.491   3.517  0.00  0.00     0.001 A 
ATOM     18  C20 <0> d           5.350  -6.131   2.479  0.00  0.00     0.001 A 
ATOM     19  C21 <0> d           4.854  -5.537   1.314  0.00  0.00     0.016 A 
ATOM     20  H9  <0> d           0.094  -5.700   3.567  0.00  0.00     0.167 HD
ATOM     21  H16 <0> d          -2.227  -6.195   3.406  0.00  0.00     0.186 HD
ENDROOT
BRANCH   1  22
ATOM     22  C5  <0> d           0.040  -2.768  -0.013  0.00  0.00    -0.045 A 
ATOM     23  C4  <0> d           0.025  -2.071  -1.206  0.00  0.00     0.009 A 
ATOM     24  C3  <0> d           0.006  -0.689  -1.199  0.00  0.00     0.007 A 
ATOM     25  C2  <0> d           0.002  -0.004   0.002  0.00  0.00    -0.062 A 
ATOM     26  C1  <0> d          -0.018   1.503   0.010  0.00  0.00     0.048 C 
ATOM     27  C7  <0> d           0.023  -0.702   1.195  0.00  0.00     0.007 A 
ATOM     28  C6  <0> d           0.037  -2.084   1.188  0.00  0.00     0.009 A 
ENDBRANCH   1  22
BRANCH   6  29
ATOM     29  N4  <0> d          -4.589  -6.145   2.473  0.00  0.00    -0.233 N 
ATOM     30  H14 <0> d          -5.441  -6.072   2.016  0.00  0.00     0.174 HD
ATOM     31  H15 <0> d          -4.546  -6.539   3.358  0.00  0.00     0.174 HD
ENDBRANCH   6  29
TORSDOF 2
