REMARK  3 active torsions:
REMARK  status: ('A' for Active; 'I' for Inactive)
REMARK    1  A    between atoms: N5_16  and  C9_17 
REMARK    2  A    between atoms: C9_17  and  C10_18 
REMARK    3  A    between atoms: C10_18  and  N6_23 
ROOT
ATOM      1  C1  <0> d          -1.206  -0.904   0.009  0.00  0.00     0.071 C 
ATOM      2  C2  <0> d           0.002  -0.004   0.002  0.00  0.00     0.048 A 
ATOM      3  C3  <0> d          -0.016   1.326   0.009  0.00  0.00     0.054 A 
ATOM      4  N1  <0> d           1.292   1.779  -0.001  0.00  0.00    -0.138 N 
ATOM      5  C4  <0> d           2.102   2.904  -0.003  0.00  0.00     0.172 A 
ATOM      6  C5  <0> d           1.863   4.288   0.006  0.00  0.00     0.281 A 
ATOM      7  O1  <0> d           0.722   4.716   0.019  0.00  0.00    -0.265 OA
ATOM      8  N2  <0> d           2.910   5.139   0.000  0.00  0.00    -0.273 N 
ATOM      9  H1  <0> d           2.742   6.125   0.006  0.00  0.00     0.173 HD
ATOM     10  C6  <0> d           4.174   4.684  -0.014  0.00  0.00     0.330 A 
ATOM     11  O2  <0> d           5.092   5.481  -0.019  0.00  0.00    -0.246 OA
ATOM     12  N3  <0> d           4.450   3.365  -0.024  0.00  0.00    -0.286 N 
ATOM     13  C7  <0> d           3.416   2.441  -0.018  0.00  0.00     0.186 A 
ATOM     14  N4  <0> d           3.372   1.111  -0.024  0.00  0.00    -0.043 NA
ATOM     15  C8  <0> d           2.111   0.702  -0.014  0.00  0.00     0.716 A 
ATOM     16  N5  <0> d           1.321  -0.417  -0.013  0.00  0.00    -0.181 N 
ATOM     17  C13 <0> d           5.842   2.908  -0.040  0.00  0.00     0.163 C 
ATOM     18  C14 <0> d          -1.250   2.191   0.020  0.00  0.00     0.071 C 
ENDROOT
BRANCH  16  19
ATOM     19  C9  <0> d           1.790  -1.805  -0.025  0.00  0.00     0.175 C 
BRANCH  19  20
ATOM     20  C10 <0> d           1.940  -2.280  -1.471  0.00  0.00     0.254 C 
BRANCH  20  21
ATOM     21  N6  <0> d           2.393  -3.687  -1.466  0.00  0.00    -0.077 N 
ATOM     22  C11 <0> d           2.340  -4.240  -2.836  0.00  0.00     0.269 C 
ATOM     23  C12 <0> d           3.771  -3.772  -0.940  0.00  0.00     0.269 C 
ATOM     24  H21 <0> d           1.770  -4.236  -0.862  0.00  0.00     0.279 HD
ENDBRANCH  20  21
ENDBRANCH  19  20
ENDBRANCH  16  19
TORSDOF 3
