REMARK  9 active torsions:
REMARK  status: ('A' for Active; 'I' for Inactive)
REMARK    1  A    between atoms: N1_10  and  C10_11 
REMARK    2  A    between atoms: C10_11  and  C11_12 
REMARK    3  A    between atoms: C11_12  and  C12_13 
REMARK    4  A    between atoms: C11_12  and  O2_19 
REMARK    5  A    between atoms: C12_13  and  N2_14 
REMARK    6  A    between atoms: N2_14  and  C13_15 
REMARK    7  A    between atoms: C13_15  and  C14_16 
REMARK    8  A    between atoms: C14_16  and  C15_17 
REMARK    9  A    between atoms: C15_17  and  O1_18 
ROOT
ATOM      1  C10 <0> d          -0.013   1.086   0.008  0.00  0.00     0.162 C 
ENDROOT
BRANCH   1   2
ATOM      2  N1  <0> d          -0.698   1.558   1.213  0.00  0.00    -0.347 N 
ATOM      3  C5  <0> d          -0.427   2.740   1.866  0.00  0.00     0.045 A 
ATOM      4  C4  <0> d           0.479   3.772   1.642  0.00  0.00     0.031 A 
ATOM      5  C6  <0> d          -1.302   2.818   2.965  0.00  0.00    -0.001 A 
ATOM      6  C3  <0> d           0.510   4.852   2.496  0.00  0.00     0.009 A 
ATOM      7  C2  <0> d          -0.353   4.922   3.581  0.00  0.00    -0.061 A 
ATOM      8  C1  <0> d          -0.299   6.113   4.503  0.00  0.00     0.048 C 
ATOM      9  C7  <0> d          -1.256   3.924   3.815  0.00  0.00     0.021 A 
ATOM     10  C8  <0> d          -2.108   1.595   2.927  0.00  0.00    -0.027 A 
ATOM     11  C9  <0> d          -1.700   0.888   1.861  0.00  0.00     0.015 A 
ATOM     12  C17 <0> d          -3.191   1.205   3.900  0.00  0.00     0.051 C 
ATOM     13  C16 <0> d          -2.262  -0.445   1.441  0.00  0.00     0.069 C 
ENDBRANCH   1   2
BRANCH   1  14
ATOM     14  C11 <0> d          -0.753   1.593  -1.232  0.00  0.00     0.162 C 
BRANCH  14  15
ATOM     15  C12 <0> d          -0.111   0.998  -2.487  0.00  0.00     0.265 C 
BRANCH  15  16
ATOM     16  N2  <0> d          -0.822   1.485  -3.677  0.00  0.00    -0.073 N 
ATOM     17  H12 <0> d          -1.877   1.179  -3.625  0.00  0.00     0.277 HD
ATOM     18  H27 <0> d          -0.760   2.582  -3.718  0.00  0.00     0.277 HD
BRANCH  16  19
ATOM     19  C13 <0> d          -0.232   0.933  -4.904  0.00  0.00     0.234 C 
BRANCH  19  20
ATOM     20  C14 <0> d          -0.997   1.462  -6.120  0.00  0.00     0.053 C 
BRANCH  20  21
ATOM     21  C15 <0> d          -0.383   0.887  -7.398  0.00  0.00     0.165 C 
BRANCH  21  22
ATOM     22  O1  <0> d          -1.097   1.381  -8.533  0.00  0.00    -0.401 OA
ATOM     23  H19 <0> d          -0.798   1.075  -9.546  0.00  0.00     0.209 HD
ENDBRANCH  21  22
ENDBRANCH  20  21
ENDBRANCH  19  20
ENDBRANCH  16  19
ENDBRANCH  15  16
ENDBRANCH  14  15
BRANCH  14  24
ATOM     24  O2  <0> d          -0.672   3.018  -1.285  0.00  0.00    -0.392 OA
ATOM     25  H20 <0> d          -1.148   3.566  -2.111  0.00  0.00     0.210 HD
ENDBRANCH  14  24
ENDBRANCH   1  14
TORSDOF 9
