REMARK  5 active torsions:
REMARK  status: ('A' for Active; 'I' for Inactive)
REMARK    1  A    between atoms: C3_3  and  C12_22 
REMARK    2  A    between atoms: C6_9  and  S2_13 
REMARK    3  A    between atoms: S2_13  and  C8_14 
REMARK    4  A    between atoms: C8_14  and  C9_15 
REMARK       I    between atoms: C9_15  and  N3_17 
REMARK    5  A    between atoms: N3_17  and  N4_18 
REMARK       I    between atoms: N4_18  and  C10_19 
ROOT
ATOM      1  C1  <0> d          -5.129   1.958   0.063  0.00  0.00     0.057 C 
ATOM      2  C2  <0> d          -3.654   2.263   0.050  0.00  0.00    -0.007 A 
ATOM      3  C3  <0> d          -2.617   1.393   0.036  0.00  0.00     0.005 A 
ATOM      4  C4  <0> d          -1.256   1.921   0.018  0.00  0.00     0.080 A 
ATOM      5  C5  <0> d          -0.015   1.215   0.009  0.00  0.00     0.261 A 
ATOM      6  O1  <0> d           0.002  -0.004   0.002  0.00  0.00    -0.267 OA
ATOM      7  N1  <0> d           1.137   1.912   0.002  0.00  0.00    -0.302 N 
ATOM      8  H1  <0> d           2.100   1.382  -0.010  0.00  0.00     0.171 HD
ATOM      9  C6  <0> d           1.137   3.276   0.008  0.00  0.00     0.170 A 
ATOM     10  N2  <0> d           0.006   3.952   0.022  0.00  0.00    -0.216 NA
ATOM     11  C7  <0> d          -1.164   3.324   0.031  0.00  0.00     0.117 A 
ATOM     12  S1  <0> d          -2.856   3.857   0.050  0.00  0.00    -0.073 SA
ENDROOT
BRANCH   9  13
ATOM     13  S2  <0> d           2.670   4.146  -0.002  0.00  0.00    -0.083 SA
BRANCH  13  14
ATOM     14  C8  <0> d           2.064   5.851   0.012  0.00  0.00     0.186 C 
BRANCH  14  15
ATOM     15  C9  <0> d           3.234   6.800   0.006  0.00  0.00     0.245 C 
ATOM     16  O2  <0> d           4.367   6.366  -0.007  0.00  0.00    -0.271 OA
ATOM     17  N3  <0> d           3.023   8.131   0.015  0.00  0.00    -0.267 N 
ATOM     18  H7  <0> d           1.996   8.525   0.027  0.00  0.00     0.190 HD
BRANCH  17  19
ATOM     19  N4  <0> d           4.111   9.014   0.009  0.00  0.00    -0.268 N 
ATOM     20  C10 <0> d           3.900  10.345   0.017  0.00  0.00     0.232 C 
ATOM     21  O3  <0> d           2.767  10.779   0.030  0.00  0.00    -0.272 OA
ATOM     22  C11 <0> d           5.070  11.294   0.011  0.00  0.00     0.119 C 
ATOM     23  H8  <0> d           5.138   8.620  -0.004  0.00  0.00     0.190 HD
ENDBRANCH  17  19
ENDBRANCH  14  15
ENDBRANCH  13  14
ENDBRANCH   9  13
BRANCH   3  24
ATOM     24  C12 <0> d          -2.859  -0.069   0.031  0.00  0.00    -0.024 A 
ATOM     25  C17 <0> d          -3.487  -0.671  -1.058  0.00  0.00     0.012 A 
ATOM     26  C16 <0> d          -3.710  -2.033  -1.057  0.00  0.00     0.001 A 
ATOM     27  C15 <0> d          -3.311  -2.801   0.023  0.00  0.00     0.000 A 
ATOM     28  C14 <0> d          -2.688  -2.209   1.107  0.00  0.00     0.001 A 
ATOM     29  C13 <0> d          -2.454  -0.849   1.114  0.00  0.00     0.012 A 
ENDBRANCH   3  24
TORSDOF 5
