REMARK  4 active torsions:
REMARK  status: ('A' for Active; 'I' for Inactive)
REMARK    1  A    between atoms: C5_5  and  C10_12 
REMARK       I    between atoms: C10_12  and  N1_14 
REMARK    2  A    between atoms: N1_14  and  C11_15 
REMARK    3  A    between atoms: C20_24  and  N2_25 
REMARK       I    between atoms: N2_25  and  C21_26 
REMARK    4  A    between atoms: C21_26  and  C22_28 
ROOT
ATOM      1  C11 <0> d           2.089  -5.434   1.485  0.00  0.00     0.046 A 
ATOM      2  C12 <0> d           2.276  -5.265   2.840  0.00  0.00     0.030 A 
ATOM      3  C13 <0> d           2.896  -6.252   3.600  0.00  0.00     0.003 A 
ATOM      4  C14 <0> d           3.335  -7.408   3.029  0.00  0.00     0.014 A 
ATOM      5  C15 <0> d           3.163  -7.618   1.651  0.00  0.00     0.003 A 
ATOM      6  C16 <0> d           2.528  -6.624   0.867  0.00  0.00     0.003 A 
ATOM      7  C17 <0> d           2.352  -6.837  -0.509  0.00  0.00     0.014 A 
ATOM      8  C18 <0> d           2.785  -7.995  -1.080  0.00  0.00     0.003 A 
ATOM      9  C19 <0> d           3.405  -8.982  -0.319  0.00  0.00     0.030 A 
ATOM     10  C20 <0> d           3.607  -8.806   1.033  0.00  0.00     0.046 A 
ENDROOT
BRANCH   1  11
ATOM     11  N1  <0> d           1.465  -4.437   0.731  0.00  0.00    -0.324 N 
ATOM     12  C10 <0> d           0.618  -3.573   1.324  0.00  0.00     0.258 C 
ATOM     13  O3  <0> d           0.320  -3.721   2.490  0.00  0.00    -0.270 OA
ATOM     14  H14 <0> d           1.642  -4.367  -0.221  0.00  0.00     0.169 HD
BRANCH  12  15
ATOM     15  C5  <0> d           0.042  -2.423   0.539  0.00  0.00     0.159 C 
ATOM     16  C4  <0> d          -1.253  -2.733  -0.275  0.00  0.00     0.051 C 
ATOM     17  C3  <0> d          -1.860  -1.337  -0.557  0.00  0.00     0.024 C 
ATOM     18  C2  <0> d          -0.837  -0.354   0.098  0.00  0.00     0.055 C 
ATOM     19  C1  <0> d          -1.310   1.083   0.319  0.00  0.00     0.027 C 
ATOM     20  C6  <0> d          -0.430  -1.179   1.374  0.00  0.00     0.010 C 
ATOM     21  C9  <0> d           0.450  -0.542  -0.722  0.00  0.00     0.269 C 
ATOM     22  C7  <0> d          -1.630  -1.516   2.260  0.00  0.00     0.020 C 
ATOM     23  C8  <0> d           0.701  -0.516   2.163  0.00  0.00     0.020 C 
ATOM     24  O1  <0> d           0.928  -1.782  -0.419  0.00  0.00    -0.299 OA
ATOM     25  O2  <0> d           0.926   0.250  -1.500  0.00  0.00    -0.264 OA
ENDBRANCH  12  15
ENDBRANCH   1  11
BRANCH  10  26
ATOM     26  N2  <0> d           4.231  -9.802   1.787  0.00  0.00    -0.324 N 
ATOM     27  C21 <0> d           4.192 -11.084   1.373  0.00  0.00     0.258 C 
ATOM     28  O4  <0> d           3.533 -11.389   0.402  0.00  0.00    -0.270 OA
ATOM     29  H21 <0> d           4.693  -9.571   2.608  0.00  0.00     0.169 HD
BRANCH  27  30
ATOM     30  C22 <0> d           4.968 -12.140   2.118  0.00  0.00     0.159 C 
ATOM     31  C26 <0> d           4.433 -13.612   1.996  0.00  0.00     0.010 C 
ATOM     32  C25 <0> d           5.528 -14.194   2.964  0.00  0.00     0.055 C 
ATOM     33  C27 <0> d           3.010 -13.763   2.535  0.00  0.00     0.020 C 
ATOM     34  C28 <0> d           4.574 -14.170   0.578  0.00  0.00     0.020 C 
ATOM     35  C24 <0> d           6.827 -13.731   2.230  0.00  0.00     0.024 C 
ATOM     36  C29 <0> d           5.385 -13.182   4.112  0.00  0.00     0.269 C 
ATOM     37  C30 <0> d           5.428 -15.680   3.314  0.00  0.00     0.027 C 
ATOM     38  C23 <0> d           6.452 -12.335   1.677  0.00  0.00     0.051 C 
ATOM     39  O5  <0> d           5.555 -13.405   5.288  0.00  0.00    -0.264 OA
ATOM     40  O6  <0> d           5.017 -11.993   3.563  0.00  0.00    -0.299 OA
ENDBRANCH  27  30
ENDBRANCH  10  26
TORSDOF 4
