REMARK  3 active torsions:
REMARK  status: ('A' for Active; 'I' for Inactive)
REMARK    1  A    between atoms: C2_2  and  C4_4 
REMARK    2  A    between atoms: C11_13  and  C12_15 
REMARK    3  A    between atoms: C12_15  and  N2_16 
ROOT
ATOM      1  C4  <0> d          -1.412  -0.526   0.013  0.00  0.00    -0.052 A 
ATOM      2  C5  <0> d          -2.258  -0.203   1.058  0.00  0.00     0.010 A 
ATOM      3  C6  <0> d          -3.559  -0.672   1.071  0.00  0.00     0.040 A 
ATOM      4  C7  <0> d          -4.015  -1.471   0.036  0.00  0.00     0.097 A 
ATOM      5  C8  <0> d          -3.159  -1.805  -1.011  0.00  0.00     0.070 A 
ATOM      6  C9  <0> d          -1.861  -1.321  -1.025  0.00  0.00     0.040 A 
ATOM      7  N1  <0> d          -3.619  -2.642  -2.037  0.00  0.00    -0.318 N 
ATOM      8  C10 <0> d          -4.797  -3.283  -1.887  0.00  0.00     0.255 C 
ATOM      9  O1  <0> d          -5.263  -3.923  -2.805  0.00  0.00    -0.270 OA
ATOM     10  C11 <0> d          -5.532  -3.199  -0.573  0.00  0.00     0.246 C 
ATOM     11  O2  <0> d          -5.297  -1.924   0.029  0.00  0.00    -0.332 OA
ATOM     12  C13 <0> d          -2.829  -2.819  -3.258  0.00  0.00     0.159 C 
ENDROOT
BRANCH  10  13
ATOM     13  C12 <0> d          -5.031  -4.302   0.362  0.00  0.00     0.271 C 
BRANCH  13  14
ATOM     14  N2  <0> d          -5.828  -4.297   1.596  0.00  0.00    -0.076 N 
ATOM     15  H14 <0> d          -6.798  -4.461   1.371  0.00  0.00     0.274 HD
ATOM     16  H15 <0> d          -5.498  -5.024   2.212  0.00  0.00     0.274 HD
ATOM     17  H19 <0> d          -5.736  -3.402   2.052  0.00  0.00     0.274 HD
ENDBRANCH  13  14
ENDBRANCH  10  13
BRANCH   1  18
ATOM     18  C2  <0> d           0.002  -0.004   0.002  0.00  0.00     0.010 C 
ATOM     19  C1  <0> d          -0.019   1.526   0.010  0.00  0.00     0.015 C 
ATOM     20  C3  <0> d           0.742  -0.511   1.242  0.00  0.00     0.015 C 
ENDBRANCH   1  18
TORSDOF 3
