REMARK  5 active torsions:
REMARK  status: ('A' for Active; 'I' for Inactive)
REMARK    1  A    between atoms: C4_6  and  C5_7 
REMARK    2  A    between atoms: C5_7  and  N3_8 
REMARK    3  A    between atoms: N3_8  and  S1_10 
REMARK    4  A    between atoms: S1_10  and  C7_13 
REMARK    5  A    between atoms: C9_15  and  N4_20 
ROOT
ATOM      1  S1  <0> d           2.218  -1.459   3.664  0.00  0.00     0.264 S 
ATOM      2  O1  <0> d           1.575  -2.584   3.080  0.00  0.00    -0.200 OA
ATOM      3  O2  <0> d           3.623  -1.261   3.590  0.00  0.00    -0.200 OA
ENDROOT
BRANCH   1   4
ATOM      4  N3  <0> d           1.515  -0.115   2.999  0.00  0.00    -0.304 N 
ATOM      5  C6  <0> d           2.289   1.121   2.855  0.00  0.00     0.163 C 
BRANCH   4   6
ATOM      6  C5  <0> d           0.120  -0.161   2.555  0.00  0.00     0.211 C 
BRANCH   6   7
ATOM      7  C4  <0> d           0.072  -0.489   1.085  0.00  0.00     0.101 A 
ATOM      8  N1  <0> d           0.174   0.402   0.076  0.00  0.00    -0.348 N 
ATOM      9  C1  <0> d           0.352   1.850   0.209  0.00  0.00     0.157 C 
ATOM     10  C2  <0> d           0.087  -0.301  -1.096  0.00  0.00     0.108 A 
ATOM     11  C3  <0> d          -0.070  -1.596  -0.762  0.00  0.00     0.106 A 
ATOM     12  N2  <0> d          -0.080  -1.682   0.576  0.00  0.00    -0.353 N 
ATOM     13  H16 <0> d          -0.179  -2.501   1.086  0.00  0.00     0.166 HD
ENDBRANCH   6   7
ENDBRANCH   4   6
ENDBRANCH   1   4
BRANCH   1  14
ATOM     14  C7  <0> d           1.801  -1.472   5.376  0.00  0.00     0.120 A 
ATOM     15  C12 <0> d           2.274  -0.475   6.211  0.00  0.00     0.139 A 
ATOM     16  C11 <0> d           1.943  -0.480   7.556  0.00  0.00     0.046 A 
ATOM     17  F1  <0> d           3.057   0.507   5.713  0.00  0.00    -0.204 F 
ATOM     18  C10 <0> d           1.149  -1.486   8.069  0.00  0.00     0.032 A 
ATOM     19  C9  <0> d           0.677  -2.491   7.233  0.00  0.00     0.027 A 
ATOM     20  C8  <0> d           1.006  -2.481   5.884  0.00  0.00     0.057 A 
BRANCH  19  21
ATOM     21  N4  <0> d          -0.128  -3.510   7.750  0.00  0.00    -0.399 N 
ATOM     22  H14 <0> d          -0.458  -4.211   7.167  0.00  0.00     0.156 HD
ATOM     23  H15 <0> d          -0.357  -3.516   8.693  0.00  0.00     0.156 HD
ENDBRANCH  19  21
ENDBRANCH   1  14
TORSDOF 5
