REMARK  2 active torsions:
REMARK  status: ('A' for Active; 'I' for Inactive)
REMARK    1  A    between atoms: C4_4  and  C7_7 
REMARK    2  A    between atoms: C10_11  and  N3_15 
ROOT
ATOM      1  C7  <0> d           3.601  -0.918  -0.219  0.00  0.00     0.001 A 
ATOM      2  C8  <0> d           3.961  -1.709   0.869  0.00  0.00     0.044 A 
ATOM      3  C9  <0> d           5.277  -2.145   0.999  0.00  0.00     0.047 A 
ATOM      4  N1  <0> d           6.194  -1.854   0.079  0.00  0.00    -0.331 N 
ATOM      5  C10 <0> d           5.900  -1.088  -0.964  0.00  0.00     0.123 A 
ATOM      6  C11 <0> d           4.603  -0.589  -1.157  0.00  0.00     0.099 A 
ATOM      7  C12 <0> d           4.303   0.245  -2.282  0.00  0.00     0.104 C 
ATOM      8  N2  <0> d           4.065   0.906  -3.175  0.00  0.00    -0.191 NA
ATOM      9  C13 <0> d           7.547  -2.412   0.168  0.00  0.00     0.135 C 
ATOM     10  C14 <0> d           8.037  -2.449   1.612  0.00  0.00     0.060 C 
ATOM     11  C15 <0> d           7.008  -3.125   2.481  0.00  0.00    -0.041 A 
ATOM     12  C16 <0> d           5.657  -2.963   2.176  0.00  0.00    -0.000 A 
ATOM     13  C17 <0> d           4.684  -3.566   2.970  0.00  0.00     0.054 A 
ATOM     14  C18 <0> d           5.072  -4.328   4.057  0.00  0.00     0.102 A 
ATOM     15  C19 <0> d           6.420  -4.491   4.353  0.00  0.00     0.102 A 
ATOM     16  C20 <0> d           7.389  -3.889   3.562  0.00  0.00     0.047 A 
ATOM     17  O1  <0> d           6.786  -5.248   5.427  0.00  0.00    -0.348 OA
ATOM     18  C21 <0> d           6.462  -4.711   6.710  0.00  0.00     0.178 C 
ATOM     19  C22 <0> d           5.033  -5.059   7.096  0.00  0.00     0.053 C 
ATOM     20  C23 <0> d           4.011  -4.415   6.173  0.00  0.00     0.178 C 
ATOM     21  O2  <0> d           4.132  -4.927   4.845  0.00  0.00    -0.348 OA
ENDROOT
BRANCH   1  22
ATOM     22  C4  <0> d           2.208  -0.441  -0.389  0.00  0.00    -0.024 A 
ATOM     23  C3  <0> d           1.956   0.906  -0.642  0.00  0.00     0.012 A 
ATOM     24  C2  <0> d           0.656   1.344  -0.800  0.00  0.00     0.001 A 
ATOM     25  C1  <0> d          -0.394   0.449  -0.709  0.00  0.00     0.000 A 
ATOM     26  C6  <0> d          -0.150  -0.889  -0.458  0.00  0.00     0.001 A 
ATOM     27  C5  <0> d           1.145  -1.339  -0.298  0.00  0.00     0.012 A 
ENDBRANCH   1  22
BRANCH   5  28
ATOM     28  N3  <0> d           6.890  -0.781  -1.882  0.00  0.00    -0.384 N 
ATOM     29  H7  <0> d           7.747  -1.234  -1.841  0.00  0.00     0.157 HD
ATOM     30  H8  <0> d           6.726  -0.114  -2.567  0.00  0.00     0.157 HD
ENDBRANCH   5  28
TORSDOF 2
