REMARK  3 active torsions:
REMARK  status: ('A' for Active; 'I' for Inactive)
REMARK    1  A    between atoms: C2_2  and  C3_3 
REMARK    2  A    between atoms: C2_2  and  N1_6 
REMARK    3  A    between atoms: C6_10  and  C7_11 
ROOT
ATOM      1  N1  <0> d           0.713  -0.472   1.200  0.00  0.00    -0.283 N 
ATOM      2  C4  <0> d           0.087  -1.285   2.036  0.00  0.00     0.267 A 
ATOM      3  O3  <0> d          -1.046  -1.671   1.826  0.00  0.00    -0.266 OA
ATOM      4  C5  <0> d           0.845  -1.700   3.244  0.00  0.00     0.076 A 
ATOM      5  C6  <0> d           0.464  -2.528   4.281  0.00  0.00     0.034 C 
ATOM      6  S1  <0> d           2.387  -0.832   2.986  0.00  0.00    -0.055 SA
ATOM      7  C15 <0> d           1.972  -0.052   1.435  0.00  0.00     0.149 A 
ATOM      8  S2  <0> d           2.941   0.985   0.476  0.00  0.00    -0.052 SA
ENDROOT
BRANCH   5   9
ATOM      9  C7  <0> d          -0.863  -2.953   4.384  0.00  0.00    -0.027 A 
ATOM     10  C14 <0> d          -1.980  -2.712   3.392  0.00  0.00     0.159 A 
ATOM     11  N2  <0> d          -3.169  -3.359   3.956  0.00  0.00    -0.385 N 
ATOM     12  C13 <0> d          -2.860  -3.906   5.111  0.00  0.00     0.039 A 
ATOM     13  H12 <0> d          -4.046  -3.378   3.544  0.00  0.00     0.160 HD
ATOM     14  C8  <0> d          -1.437  -3.682   5.425  0.00  0.00    -0.002 A 
ATOM     15  C12 <0> d          -3.644  -4.637   6.046  0.00  0.00     0.030 A 
ATOM     16  C9  <0> d          -0.915  -4.197   6.630  0.00  0.00     0.014 A 
ATOM     17  C10 <0> d          -1.724  -4.885   7.475  0.00  0.00     0.001 A 
ATOM     18  C11 <0> d          -3.075  -5.101   7.183  0.00  0.00     0.002 A 
ENDBRANCH   5   9
BRANCH   1  19
ATOM     19  C2  <0> d           0.024  -0.024  -0.012  0.00  0.00     0.191 C 
ATOM     20  C1  <0> d          -0.081   1.502  -0.004  0.00  0.00     0.044 C 
BRANCH  19  21
ATOM     21  C3  <0> d           0.800  -0.468  -1.225  0.00  0.00     0.197 C 
ATOM     22  O1  <0> d           1.918  -0.937  -1.095  0.00  0.00    -0.646 OA
ATOM     23  O2  <0> d           0.310  -0.358  -2.336  0.00  0.00    -0.646 OA
ENDBRANCH  19  21
ENDBRANCH   1  19
TORSDOF 3
