REMARK  8 active torsions:
REMARK  status: ('A' for Active; 'I' for Inactive)
REMARK    1  A    between atoms: C2_2  and  N1_3 
REMARK    2  A    between atoms: C3_4  and  C5_9 
REMARK    3  A    between atoms: C5_9  and  N4_10 
REMARK       I    between atoms: N4_10  and  C6_11 
REMARK    4  A    between atoms: C6_11  and  C7_13 
REMARK    5  A    between atoms: C7_13  and  C8_14 
REMARK    6  A    between atoms: C8_14  and  N5_15 
REMARK    7  A    between atoms: N5_15  and  S2_16 
REMARK    8  A    between atoms: S2_16  and  C9_19 
ROOT
ATOM      1  C7  <0> d          -3.983  -1.106   5.793  0.00  0.00     0.123 C 
ENDROOT
BRANCH   1   2
ATOM      2  C6  <0> d          -2.989  -0.514   4.827  0.00  0.00     0.219 C 
ATOM      3  N4  <0> d          -3.272  -0.472   3.510  0.00  0.00    -0.354 N 
ATOM      4  H9  <0> d          -4.116  -0.823   3.183  0.00  0.00     0.162 HD
ATOM      5  O1  <0> d          -1.935  -0.076   5.234  0.00  0.00    -0.274 OA
BRANCH   3   6
ATOM      6  C5  <0> d          -2.306   0.103   2.571  0.00  0.00     0.203 C 
BRANCH   6   7
ATOM      7  C3  <0> d          -2.861   0.029   1.171  0.00  0.00     0.146 A 
ATOM      8  N1  <0> d          -2.228   0.475   0.037  0.00  0.00    -0.308 N 
ATOM      9  C4  <0> d          -3.036   0.243  -1.018  0.00  0.00     0.196 A 
ATOM     10  N3  <0> d          -4.154  -0.348  -0.548  0.00  0.00    -0.251 N 
ATOM     11  S1  <0> d          -2.702   0.625  -2.653  0.00  0.00    -0.039 SA
ATOM     12  N2  <0> d          -4.011  -0.465   0.842  0.00  0.00    -0.157 NA
ATOM     13  H6  <0> d          -4.917  -0.636  -1.073  0.00  0.00     0.191 HD
BRANCH   8  14
ATOM     14  C2  <0> d          -0.905   1.101  -0.018  0.00  0.00     0.128 C 
ATOM     15  C1  <0> d          -1.050   2.615   0.142  0.00  0.00     0.027 C 
ENDBRANCH   8  14
ENDBRANCH   6   7
ENDBRANCH   3   6
ENDBRANCH   1   2
BRANCH   1  16
ATOM     16  C8  <0> d          -3.420  -1.031   7.213  0.00  0.00     0.141 C 
BRANCH  16  17
ATOM     17  N5  <0> d          -4.386  -1.607   8.152  0.00  0.00    -0.315 N 
ATOM     18  H14 <0> d          -5.305  -1.749   7.876  0.00  0.00     0.172 HD
BRANCH  17  19
ATOM     19  S2  <0> d          -3.910  -2.014   9.685  0.00  0.00     0.259 S 
ATOM     20  O2  <0> d          -5.067  -2.493  10.356  0.00  0.00    -0.201 OA
ATOM     21  O3  <0> d          -2.730  -2.795   9.549  0.00  0.00    -0.201 OA
BRANCH  19  22
ATOM     22  C9  <0> d          -3.437  -0.524  10.497  0.00  0.00     0.086 A 
ATOM     23  C14 <0> d          -4.378   0.457  10.745  0.00  0.00    -0.039 A 
ATOM     24  C13 <0> d          -4.008   1.624  11.386  0.00  0.00     0.009 A 
ATOM     25  C15 <0> d          -5.810   0.252  10.321  0.00  0.00     0.050 C 
ATOM     26  C12 <0> d          -2.694   1.815  11.771  0.00  0.00     0.007 A 
ATOM     27  C11 <0> d          -1.751   0.836  11.519  0.00  0.00    -0.060 A 
ATOM     28  C10 <0> d          -2.122  -0.333  10.881  0.00  0.00     0.032 A 
ATOM     29  C16 <0> d          -0.319   1.043  11.938  0.00  0.00     0.048 C 
ENDBRANCH  19  22
ENDBRANCH  17  19
ENDBRANCH  16  17
ENDBRANCH   1  16
TORSDOF 8
