REMARK  4 active torsions:
REMARK  status: ('A' for Active; 'I' for Inactive)
REMARK    1  A    between atoms: C2_2  and  C3_3 
REMARK    2  A    between atoms: C3_3  and  N1_4 
REMARK    3  A    between atoms: C10_12  and  C12_15 
REMARK    4  A    between atoms: C12_15  and  N2_16 
ROOT
ATOM      1  N1  <0> d          -1.318  -1.700  -1.126  0.00  0.00    -0.310 N 
ATOM      2  C4  <0> d          -1.838  -1.291  -2.362  0.00  0.00     0.071 A 
ATOM      3  C5  <0> d          -2.124   0.044  -2.599  0.00  0.00     0.033 A 
ATOM      4  C6  <0> d          -2.624   0.433  -3.827  0.00  0.00     0.002 A 
ATOM      5  C7  <0> d          -2.839  -0.506  -4.819  0.00  0.00     0.003 A 
ATOM      6  C8  <0> d          -2.561  -1.841  -4.588  0.00  0.00     0.039 A 
ATOM      7  C9  <0> d          -2.064  -2.238  -3.358  0.00  0.00     0.097 A 
ATOM      8  O1  <0> d          -1.816  -3.552  -3.107  0.00  0.00    -0.332 OA
ATOM      9  C10 <0> d          -0.747  -3.849  -2.206  0.00  0.00     0.246 C 
ATOM     10  C11 <0> d          -0.835  -2.953  -0.997  0.00  0.00     0.256 C 
ATOM     11  O2  <0> d          -0.477  -3.360   0.088  0.00  0.00    -0.270 OA
ENDROOT
BRANCH   9  12
ATOM     12  C12 <0> d           0.592  -3.616  -2.909  0.00  0.00     0.271 C 
BRANCH  12  13
ATOM     13  N2  <0> d           0.685  -4.490  -4.086  0.00  0.00    -0.076 N 
ATOM     14  H13 <0> d           1.568  -4.336  -4.550  0.00  0.00     0.274 HD
ATOM     15  H14 <0> d           0.622  -5.454  -3.795  0.00  0.00     0.274 HD
ATOM     16  H15 <0> d          -0.069  -4.280  -4.722  0.00  0.00     0.274 HD
ENDBRANCH  12  13
ENDBRANCH   9  12
BRANCH   1  17
ATOM     17  C3  <0> d          -1.293  -0.775   0.010  0.00  0.00     0.158 C 
BRANCH  17  18
ATOM     18  C2  <0> d           0.002  -0.004   0.002  0.00  0.00    -0.017 C 
ATOM     19  C1  <0> d          -0.016   1.306   0.009  0.00  0.00     0.008 C 
ENDBRANCH  17  18
ENDBRANCH   1  17
TORSDOF 4
