REMARK  5 active torsions:
REMARK  status: ('A' for Active; 'I' for Inactive)
REMARK    1  A    between atoms: C2_2  and  N1_4 
REMARK    2  A    between atoms: N1_4  and  S1_5 
REMARK    3  A    between atoms: S1_5  and  C4_8 
REMARK    4  A    between atoms: C6_10  and  C9_14 
REMARK       I    between atoms: C9_14  and  N3_16 
REMARK    5  A    between atoms: C12_19  and  C15_22 
ROOT
ATOM      1  C9  <0> d           2.004  -5.684   0.013  0.00  0.00     0.270 C 
ATOM      2  O3  <0> d           2.828  -5.597  -0.878  0.00  0.00    -0.266 OA
ATOM      3  N3  <0> d           2.054  -6.717   0.879  0.00  0.00    -0.343 N 
ATOM      4  C10 <0> d           3.115  -7.735   0.794  0.00  0.00     0.131 C 
ATOM      5  C11 <0> d           3.932  -7.677   2.087  0.00  0.00     0.059 C 
ATOM      6  C12 <0> d           3.022  -7.611   3.278  0.00  0.00    -0.050 C 
ATOM      7  C13 <0> d           1.746  -7.246   3.223  0.00  0.00     0.001 C 
ATOM      8  C14 <0> d           1.056  -6.866   1.947  0.00  0.00     0.154 C 
ENDROOT
BRANCH   1   9
ATOM      9  C6  <0> d           0.957  -4.666   0.146  0.00  0.00     0.104 A 
ATOM     10  C5  <0> d          -0.267  -4.831   0.758  0.00  0.00     0.062 A 
ATOM     11  C4  <0> d          -0.945  -3.612   0.657  0.00  0.00     0.097 A 
ATOM     12  C7  <0> d          -0.143  -2.744  -0.006  0.00  0.00     0.116 A 
ATOM     13  N2  <0> d           1.018  -3.371  -0.316  0.00  0.00    -0.355 N 
ATOM     14  C8  <0> d           2.148  -2.771  -1.031  0.00  0.00     0.156 C 
BRANCH  11  15
ATOM     15  S1  <0> d          -2.559  -3.268   1.275  0.00  0.00     0.260 S 
ATOM     16  O1  <0> d          -2.631  -1.861   1.461  0.00  0.00    -0.200 OA
ATOM     17  O2  <0> d          -2.794  -4.189   2.331  0.00  0.00    -0.200 OA
BRANCH  15  18
ATOM     18  N1  <0> d          -3.634  -3.642   0.072  0.00  0.00    -0.311 N 
ATOM     19  H8  <0> d          -4.167  -2.942  -0.336  0.00  0.00     0.172 HD
BRANCH  18  20
ATOM     20  C2  <0> d          -3.778  -5.029  -0.376  0.00  0.00     0.085 C 
ATOM     21  C1  <0> d          -5.238  -5.295  -0.748  0.00  0.00     0.032 C 
ATOM     22  C3  <0> d          -2.889  -5.266  -1.598  0.00  0.00     0.032 C 
ENDBRANCH  18  20
ENDBRANCH  15  18
ENDBRANCH  11  15
ENDBRANCH   1   9
BRANCH   6  23
ATOM     23  C15 <0> d           3.555  -7.958   4.536  0.00  0.00    -0.022 A 
ATOM     24  C22 <0> d           2.806  -8.082   5.844  0.00  0.00     0.160 A 
ATOM     25  N4  <0> d           3.803  -8.467   6.848  0.00  0.00    -0.385 N 
ATOM     26  C21 <0> d           4.982  -8.560   6.272  0.00  0.00     0.039 A 
ATOM     27  H27 <0> d           3.623  -8.624   7.788  0.00  0.00     0.160 HD
ATOM     28  C16 <0> d           4.880  -8.252   4.834  0.00  0.00    -0.001 A 
ATOM     29  C20 <0> d           6.261  -8.891   6.796  0.00  0.00     0.030 A 
ATOM     30  C17 <0> d           6.050  -8.300   4.041  0.00  0.00     0.014 A 
ATOM     31  C18 <0> d           7.236  -8.624   4.612  0.00  0.00     0.001 A 
ATOM     32  C19 <0> d           7.338  -8.917   5.976  0.00  0.00     0.002 A 
ENDBRANCH   6  23
TORSDOF 5
