REMARK  5 active torsions:
REMARK  status: ('A' for Active; 'I' for Inactive)
REMARK    1  A    between atoms: C4_6  and  C5_7 
REMARK    2  A    between atoms: C5_7  and  C6_8 
REMARK    3  A    between atoms: C5_7  and  N3_14 
REMARK       I    between atoms: N3_14  and  C12_15 
REMARK    4  A    between atoms: C12_15  and  C13_17 
REMARK    5  A    between atoms: C13_17  and  N4_18 
ROOT
ATOM      1  N3  <0> d          -0.929  -1.151   3.291  0.00  0.00    -0.344 N 
ATOM      2  C12 <0> d          -2.229  -0.798   3.320  0.00  0.00     0.238 C 
ATOM      3  O1  <0> d          -2.606   0.180   2.708  0.00  0.00    -0.272 OA
ATOM      4  H12 <0> d          -0.627  -1.932   3.780  0.00  0.00     0.163 HD
ENDROOT
BRANCH   1   5
ATOM      5  C5  <0> d           0.030  -0.354   2.521  0.00  0.00     0.187 C 
BRANCH   5   6
ATOM      6  C4  <0> d           0.023  -0.811   1.085  0.00  0.00     0.133 A 
ATOM      7  N1  <0> d           0.002  -0.004   0.002  0.00  0.00    -0.346 N 
ATOM      8  C1  <0> d          -0.018   1.461   0.010  0.00  0.00     0.157 C 
ATOM      9  C2  <0> d           0.009  -0.810  -1.104  0.00  0.00     0.111 A 
ATOM     10  C3  <0> d           0.029  -2.081  -0.660  0.00  0.00     0.136 A 
ATOM     11  N2  <0> d           0.034  -2.052   0.681  0.00  0.00    -0.243 NA
ENDBRANCH   5   6
BRANCH   5  12
ATOM     12  C6  <0> d           1.410  -0.533   3.098  0.00  0.00    -0.028 A 
ATOM     13  C11 <0> d           2.264   0.550   3.197  0.00  0.00     0.009 A 
ATOM     14  C10 <0> d           3.528   0.387   3.731  0.00  0.00     0.001 A 
ATOM     15  C9  <0> d           3.943  -0.861   4.158  0.00  0.00     0.000 A 
ATOM     16  C8  <0> d           3.091  -1.945   4.054  0.00  0.00     0.001 A 
ATOM     17  C7  <0> d           1.825  -1.781   3.524  0.00  0.00     0.009 A 
ENDBRANCH   5  12
ENDBRANCH   1   5
BRANCH   2  18
ATOM     18  C13 <0> d          -3.215  -1.617   4.112  0.00  0.00     0.254 C 
BRANCH  18  19
ATOM     19  N4  <0> d          -4.551  -1.031   3.983  0.00  0.00    -0.260 N 
ATOM     20  N5  <0> d          -4.921  -0.144   4.831  0.00  0.00    -0.180 NA
ATOM     21  C21 <0> d          -6.077   0.452   4.819  0.00  0.00     0.194 A 
ATOM     22  C20 <0> d          -7.041   0.128   3.825  0.00  0.00     0.203 A 
ATOM     23  C19 <0> d          -6.650  -0.892   2.837  0.00  0.00     0.044 A 
ATOM     24  O2  <0> d          -8.135   0.667   3.792  0.00  0.00    -0.286 OA
ATOM     25  C14 <0> d          -5.364  -1.455   2.962  0.00  0.00     0.067 A 
ATOM     26  C18 <0> d          -7.499  -1.302   1.812  0.00  0.00     0.018 A 
ATOM     27  C15 <0> d          -4.955  -2.423   2.050  0.00  0.00     0.032 A 
ATOM     28  C16 <0> d          -5.810  -2.814   1.044  0.00  0.00     0.002 A 
ATOM     29  C17 <0> d          -7.076  -2.255   0.927  0.00  0.00     0.001 A 
ENDBRANCH  18  19
ENDBRANCH   2  18
TORSDOF 5
