REMARK  6 active torsions:
REMARK  status: ('A' for Active; 'I' for Inactive)
REMARK    1  A    between atoms: C2_2  and  C3_3 
REMARK    2  A    between atoms: C2_2  and  N1_10 
REMARK    3  A    between atoms: N1_10  and  C9_11 
REMARK    4  A    between atoms: C9_11  and  C10_12 
REMARK    5  A    between atoms: C10_12  and  C11_13 
REMARK    6  A    between atoms: C11_13  and  N2_14 
ROOT
ATOM      1  N1  <0> d          -1.376  -0.512   0.012  0.00  0.00    -0.065 N 
ATOM      2  H10 <0> d          -1.363  -1.518   0.090  0.00  0.00     0.278 HD
ATOM      3  H24 <0> d          -1.873  -0.121   0.799  0.00  0.00     0.278 HD
ENDROOT
BRANCH   1   4
ATOM      4  C2  <0> d           0.002  -0.004   0.002  0.00  0.00     0.214 C 
ATOM      5  C1  <0> d          -0.019   1.526   0.010  0.00  0.00     0.045 C 
BRANCH   4   6
ATOM      6  C3  <0> d           0.731  -0.503   1.223  0.00  0.00    -0.027 A 
ATOM      7  C8  <0> d           2.048  -0.911   1.123  0.00  0.00     0.028 A 
ATOM      8  C7  <0> d           2.718  -1.365   2.245  0.00  0.00     0.011 A 
ATOM      9  C6  <0> d           2.067  -1.419   3.464  0.00  0.00     0.019 A 
ATOM     10 Br1  <0> d           4.522  -1.915   2.110  0.00  0.00    -0.051 Br
ATOM     11  C5  <0> d           0.749  -1.016   3.562  0.00  0.00     0.002 A 
ATOM     12  C4  <0> d           0.081  -0.558   2.442  0.00  0.00     0.009 A 
ENDBRANCH   4   6
ENDBRANCH   1   4
BRANCH   1  13
ATOM     13  C9  <0> d          -2.050  -0.126  -1.234  0.00  0.00     0.269 C 
BRANCH  13  14
ATOM     14  C10 <0> d          -3.485  -0.656  -1.224  0.00  0.00     0.211 C 
ATOM     15  O1  <0> d          -3.467  -2.080  -1.114  0.00  0.00    -0.232 OA
BRANCH  14  16
ATOM     16  C11 <0> d          -4.187  -0.253  -2.522  0.00  0.00     0.271 C 
BRANCH  16  17
ATOM     17  N2  <0> d          -5.598  -0.657  -2.461  0.00  0.00    -0.069 N 
ATOM     18  C15 <0> d          -6.263  -0.384  -3.754  0.00  0.00     0.235 C 
ATOM     19  C14 <0> d          -7.706   0.051  -3.437  0.00  0.00     0.029 C 
ATOM     20  C13 <0> d          -7.802   0.037  -1.894  0.00  0.00     0.029 C 
ATOM     21  C12 <0> d          -6.322   0.160  -1.454  0.00  0.00     0.235 C 
ATOM     22  H23 <0> d          -5.671  -1.637  -2.233  0.00  0.00     0.280 HD
ENDBRANCH  16  17
ENDBRANCH  14  16
ENDBRANCH  13  14
ENDBRANCH   1  13
TORSDOF 6
