REMARK  4 active torsions:
REMARK  status: ('A' for Active; 'I' for Inactive)
REMARK    1  A    between atoms: C5_9  and  N4_26 
REMARK    2  A    between atoms: C7_11  and  C8_12 
REMARK    3  A    between atoms: C10_14  and  C12_17 
REMARK    4  A    between atoms: C12_17  and  N5_29 
ROOT
ATOM      1  C1  <0> d          -1.040  -1.591   8.152  0.00  0.00     0.070 C 
ATOM      2  C2  <0> d          -0.297  -0.450   8.797  0.00  0.00     0.035 A 
ATOM      3  C3  <0> d          -0.378   0.844   8.450  0.00  0.00     0.035 A 
ATOM      4  C4  <0> d           0.473   1.581   9.303  0.00  0.00     0.199 A 
ATOM      5  N1  <0> d           1.038   0.746  10.126  0.00  0.00    -0.148 NA
ATOM      6  N2  <0> d           0.571  -0.544   9.830  0.00  0.00    -0.280 N 
ATOM      7  H1  <0> d           0.834  -1.386  10.301  0.00  0.00     0.189 HD
ATOM      8  O1  <0> d           0.605   2.930   9.200  0.00  0.00    -0.272 OA
ATOM      9  C5  <0> d          -0.298   3.586   8.443  0.00  0.00     0.161 C 
ATOM     10  C6  <0> d          -1.153   2.992   7.585  0.00  0.00     0.086 C 
ATOM     11  C7  <0> d          -1.194   1.500   7.366  0.00  0.00     0.113 C 
ATOM     12  C19 <0> d          -2.062   3.816   6.847  0.00  0.00     0.100 C 
ATOM     13  N3  <0> d          -2.784   4.469   6.262  0.00  0.00    -0.191 NA
ENDROOT
BRANCH   9  14
ATOM     14  N4  <0> d          -0.350   4.953   8.553  0.00  0.00    -0.379 N 
ATOM     15  H22 <0> d           0.250   5.415   9.159  0.00  0.00     0.158 HD
ATOM     16  H23 <0> d          -0.987   5.458   8.023  0.00  0.00     0.158 HD
ENDBRANCH   9  14
BRANCH  11  17
ATOM     17  C8  <0> d          -0.610   1.167   6.018  0.00  0.00    -0.003 A 
ATOM     18  S1  <0> d           1.021   1.516   5.381  0.00  0.00    -0.105 SA
ATOM     19  C11 <0> d           0.825   0.776   3.768  0.00  0.00     0.059 A 
ATOM     20  C10 <0> d          -0.452   0.327   3.819  0.00  0.00    -0.025 A 
ATOM     21  C9  <0> d          -1.187   0.524   4.973  0.00  0.00     0.024 A 
BRANCH  20  22
ATOM     22  C12 <0> d          -1.060  -0.384   2.637  0.00  0.00     0.273 C 
BRANCH  22  23
ATOM     23  N5  <0> d          -1.740   0.616   1.800  0.00  0.00    -0.067 N 
ATOM     24  C13 <0> d          -0.725   1.575   1.240  0.00  0.00     0.235 C 
ATOM     25  C14 <0> d          -0.013   1.086   0.008  0.00  0.00     0.028 C 
ATOM     26  C15 <0> d          -0.767   1.601  -1.236  0.00  0.00     0.002 C 
ATOM     27  C16 <0> d          -1.962   0.814  -1.521  0.00  0.00     0.002 C 
ATOM     28  C17 <0> d          -2.981   0.861  -0.363  0.00  0.00     0.028 C 
ATOM     29  C18 <0> d          -2.519  -0.078   0.718  0.00  0.00     0.235 C 
ATOM     30  H24 <0> d          -2.398   1.146   2.384  0.00  0.00     0.280 HD
ENDBRANCH  22  23
ENDBRANCH  20  22
ENDBRANCH  11  17
TORSDOF 4
