REMARK  6 active torsions:
REMARK  status: ('A' for Active; 'I' for Inactive)
REMARK    1  A    between atoms: C3_3  and  C7_8 
REMARK    2  A    between atoms: C7_8  and  C8_9 
REMARK    3  A    between atoms: C7_8  and  N4_23 
REMARK    4  A    between atoms: C9_10  and  O2_22 
REMARK    5  A    between atoms: C11_15  and  C12_17 
REMARK    6  A    between atoms: C18_26  and  C21_29 
REMARK       I    between atoms: C21_29  and  N5_31 
ROOT
ATOM      1  C7  <0> d           3.672   2.183  -0.022  0.00  0.00     0.265 C 
ENDROOT
BRANCH   1   2
ATOM      2  C3  <0> d           2.378   1.411  -0.013  0.00  0.00    -0.021 A 
ATOM      3  C2  <0> d           1.171   2.086   0.002  0.00  0.00     0.010 A 
ATOM      4  C1  <0> d          -0.017   1.378   0.010  0.00  0.00     0.002 A 
ATOM      5  C6  <0> d           0.002  -0.004   0.002  0.00  0.00     0.019 A 
ATOM      6  C5  <0> d           1.210  -0.679  -0.014  0.00  0.00     0.011 A 
ATOM      7  C4  <0> d           2.397   0.029  -0.022  0.00  0.00     0.028 A 
ATOM      8 Br1  <0> d           1.236  -2.570  -0.025  0.00  0.00    -0.051 Br
ENDBRANCH   1   2
BRANCH   1   9
ATOM      9  C8  <0> d           4.244   2.221   1.372  0.00  0.00     0.074 A 
ATOM     10  S1  <0> d           4.847   0.875   2.379  0.00  0.00    -0.048 SA
ATOM     11  C10 <0> d           5.305   1.834   3.803  0.00  0.00     0.199 A 
ATOM     12  N1  <0> d           4.968   3.107   3.432  0.00  0.00    -0.183 N 
ATOM     13  N2  <0> d           5.801   1.843   5.008  0.00  0.00    -0.198 NA
ATOM     14  C9  <0> d           4.426   3.272   2.180  0.00  0.00     0.182 A 
ATOM     15  N3  <0> d           5.317   3.902   4.554  0.00  0.00    -0.140 NA
ATOM     16  C11 <0> d           5.812   3.100   5.473  0.00  0.00     0.206 A 
BRANCH  14  17
ATOM     17  O2  <0> d           4.073   4.516   1.758  0.00  0.00    -0.344 OA
ATOM     18  H20 <0> d           4.240   5.213   2.407  0.00  0.00     0.219 HD
ENDBRANCH  14  17
BRANCH  16  19
ATOM     19  C12 <0> d           6.301   3.519   6.803  0.00  0.00     0.124 A 
ATOM     20  O1  <0> d           6.316   4.779   7.279  0.00  0.00    -0.319 OA
ATOM     21  C15 <0> d           6.826   4.780   8.522  0.00  0.00     0.142 A 
ATOM     22  C14 <0> d           7.154   3.516   8.855  0.00  0.00     0.027 A 
ATOM     23  C13 <0> d           6.820   2.700   7.756  0.00  0.00     0.043 A 
ENDBRANCH  16  19
ENDBRANCH   1   9
BRANCH   1  24
ATOM     24  N4  <0> d           4.627   1.528  -0.926  0.00  0.00    -0.058 N 
ATOM     25  C20 <0> d           4.069   1.492  -2.283  0.00  0.00     0.237 C 
ATOM     26  C19 <0> d           5.024   0.738  -3.211  0.00  0.00     0.042 C 
ATOM     27  C18 <0> d           6.377   1.455  -3.233  0.00  0.00     0.081 C 
ATOM     28  C17 <0> d           6.915   1.552  -1.802  0.00  0.00     0.042 C 
ATOM     29  C16 <0> d           5.890   2.276  -0.926  0.00  0.00     0.237 C 
ATOM     30  H21 <0> d           4.797   0.585  -0.608  0.00  0.00     0.281 HD
BRANCH  27  31
ATOM     31  C21 <0> d           7.346   0.675  -4.084  0.00  0.00     0.219 C 
ATOM     32  O3  <0> d           8.368   0.240  -3.595  0.00  0.00    -0.273 OA
ATOM     33  N5  <0> d           7.079   0.462  -5.387  0.00  0.00    -0.370 N 
ATOM     34  H18 <0> d           6.262   0.810  -5.778  0.00  0.00     0.159 HD
ATOM     35  H19 <0> d           7.702  -0.040  -5.935  0.00  0.00     0.159 HD
ENDBRANCH  27  31
ENDBRANCH   1  24
TORSDOF 6
