REMARK  9 active torsions:
REMARK  status: ('A' for Active; 'I' for Inactive)
REMARK    1  A    between atoms: O1_2  and  C2_3 
REMARK    2  A    between atoms: C5_6  and  C8_10 
REMARK    3  A    between atoms: C8_10  and  N1_11 
REMARK    4  A    between atoms: N2_14  and  C15_20 
REMARK    5  A    between atoms: C11_15  and  C13_17 
REMARK    6  A    between atoms: C13_17  and  C14_18 
REMARK    7  A    between atoms: C14_18  and  O2_19 
REMARK    8  A    between atoms: C15_20  and  C16_21 
REMARK    9  A    between atoms: C19_24  and  O3_28 
ROOT
ATOM      1  N1  <0> d           1.589  -3.068   5.260  0.00  0.00    -0.063 N 
ATOM      2  C9  <0> d           0.766  -2.009   5.858  0.00  0.00     0.265 C 
ATOM      3  C10 <0> d          -0.304  -2.638   6.753  0.00  0.00     0.301 C 
ATOM      4  N2  <0> d           0.347  -3.430   7.806  0.00  0.00     0.100 N 
ATOM      5  C11 <0> d           1.194  -4.479   7.222  0.00  0.00     0.251 C 
ATOM      6  C12 <0> d           2.252  -3.835   6.323  0.00  0.00     0.271 C 
ATOM      7  H29 <0> d           1.002  -3.683   4.717  0.00  0.00     0.280 HD
ENDROOT
BRANCH   1   8
ATOM      8  C8  <0> d           2.604  -2.465   4.386  0.00  0.00     0.276 C 
BRANCH   8   9
ATOM      9  C5  <0> d           1.927  -1.781   3.227  0.00  0.00     0.006 A 
ATOM     10  C4  <0> d           1.837  -0.401   3.196  0.00  0.00     0.014 A 
ATOM     11  C3  <0> d           1.217   0.228   2.134  0.00  0.00     0.037 A 
ATOM     12  C2  <0> d           0.684  -0.524   1.097  0.00  0.00     0.071 A 
ATOM     13  C7  <0> d           0.770  -1.908   1.131  0.00  0.00     0.079 A 
ATOM     14  C6  <0> d           1.397  -2.534   2.193  0.00  0.00     0.127 A 
ATOM     15  F1  <0> d           1.487  -3.882   2.225  0.00  0.00    -0.205 F 
BRANCH  12  16
ATOM     16  O1  <0> d           0.074   0.094   0.051  0.00  0.00    -0.356 OA
ATOM     17  C1  <0> d           0.022   1.522   0.083  0.00  0.00     0.210 C 
ENDBRANCH  12  16
ENDBRANCH   8   9
ENDBRANCH   1   8
BRANCH   5  18
ATOM     18  C13 <0> d           1.883  -5.261   8.342  0.00  0.00     0.063 C 
BRANCH  18  19
ATOM     19  C14 <0> d           2.721  -6.389   7.736  0.00  0.00     0.166 C 
BRANCH  19  20
ATOM     20  O2  <0> d           3.266  -7.194   8.783  0.00  0.00    -0.401 OA
ATOM     21  H20 <0> d           3.810  -7.930   8.471  0.00  0.00     0.209 HD
ENDBRANCH  19  20
ENDBRANCH  18  19
ENDBRANCH   5  18
BRANCH   4  22
ATOM     22  C15 <0> d          -0.647  -4.005   8.722  0.00  0.00     0.314 C 
BRANCH  22  23
ATOM     23  C16 <0> d          -1.249  -2.909   9.563  0.00  0.00     0.009 A 
ATOM     24  C21 <0> d          -2.248  -2.105   9.040  0.00  0.00     0.127 A 
ATOM     25  C20 <0> d          -2.805  -1.102   9.813  0.00  0.00     0.079 A 
ATOM     26  F2  <0> d          -2.681  -2.303   7.775  0.00  0.00    -0.205 F 
ATOM     27  C19 <0> d          -2.355  -0.896  11.108  0.00  0.00     0.071 A 
ATOM     28  C18 <0> d          -1.350  -1.700  11.628  0.00  0.00     0.037 A 
ATOM     29  C17 <0> d          -0.800  -2.704  10.855  0.00  0.00     0.015 A 
BRANCH  27  30
ATOM     30  O3  <0> d          -2.897   0.092  11.868  0.00  0.00    -0.356 OA
ATOM     31  C22 <0> d          -3.927   0.880  11.268  0.00  0.00     0.210 C 
ENDBRANCH  27  30
ENDBRANCH  22  23
ENDBRANCH   4  22
TORSDOF 9
