REMARK  7 active torsions:
REMARK  status: ('A' for Active; 'I' for Inactive)
REMARK    1  A    between atoms: N1_5  and  C7_8 
REMARK    2  A    between atoms: C7_8  and  C8_9 
REMARK    3  A    between atoms: C9_11  and  N3_14 
REMARK       I    between atoms: N3_14  and  C11_15 
REMARK    4  A    between atoms: C11_15  and  C12_17 
REMARK    5  A    between atoms: C12_17  and  C13_18 
REMARK    6  A    between atoms: C12_17  and  N5_28 
REMARK    7  A    between atoms: C13_18  and  C14_19 
REMARK       I    between atoms: N5_28  and  C22_29 
ROOT
ATOM      1  N3  <0> d           5.243  -2.930   2.954  0.00  0.00    -0.328 N 
ATOM      2  C11 <0> d           6.046  -2.906   4.035  0.00  0.00     0.243 C 
ATOM      3  O1  <0> d           5.792  -3.601   4.996  0.00  0.00    -0.271 OA
ATOM      4  H19 <0> d           5.447  -2.374   2.186  0.00  0.00     0.165 HD
ENDROOT
BRANCH   2   5
ATOM      5  C12 <0> d           7.262  -2.016   4.051  0.00  0.00     0.180 C 
BRANCH   5   6
ATOM      6  C13 <0> d           8.395  -2.686   3.271  0.00  0.00     0.071 C 
BRANCH   6   7
ATOM      7  C14 <0> d           9.569  -1.745   3.182  0.00  0.00    -0.048 A 
ATOM      8  C21 <0> d           9.784  -0.654   2.156  0.00  0.00     0.155 A 
ATOM      9  N4  <0> d          11.064  -0.025   2.500  0.00  0.00    -0.385 N 
ATOM     10  C20 <0> d          11.558  -0.631   3.553  0.00  0.00     0.038 A 
ATOM     11  H32 <0> d          11.477   0.713   2.026  0.00  0.00     0.160 HD
ATOM     12  C15 <0> d          10.646  -1.708   3.999  0.00  0.00    -0.006 A 
ATOM     13  C19 <0> d          12.758  -0.425   4.287  0.00  0.00     0.030 A 
ATOM     14  C16 <0> d          11.032  -2.502   5.172  0.00  0.00     0.014 A 
ATOM     15  C17 <0> d          12.198  -2.224   5.798  0.00  0.00     0.001 A 
ATOM     16  C18 <0> d          13.045  -1.198   5.356  0.00  0.00     0.002 A 
ENDBRANCH   6   7
ENDBRANCH   5   6
BRANCH   5  17
ATOM     17  N5  <0> d           7.687  -1.794   5.435  0.00  0.00    -0.348 N 
ATOM     18  C22 <0> d           8.040  -2.840   6.208  0.00  0.00     0.214 C 
ATOM     19  O2  <0> d           8.006  -3.965   5.758  0.00  0.00    -0.274 OA
ATOM     20  C23 <0> d           8.477  -2.611   7.632  0.00  0.00     0.117 C 
ATOM     21  H28 <0> d           7.714  -0.893   5.796  0.00  0.00     0.163 HD
ENDBRANCH   5  17
ENDBRANCH   2   5
BRANCH   1  22
ATOM     22  C9  <0> d           4.061  -3.796   2.939  0.00  0.00     0.272 C 
ATOM     23  N2  <0> d           3.139  -3.421   1.847  0.00  0.00    -0.260 NA
ATOM     24  C8  <0> d           2.666  -4.297   1.082  0.00  0.00     0.047 C 
ATOM     25  C10 <0> d           3.059  -5.751   1.304  0.00  0.00     0.134 C 
ATOM     26  S1  <0> d           4.500  -5.518   2.438  0.00  0.00    -0.115 SA
BRANCH  24  27
ATOM     27  C7  <0> d           1.723  -3.918  -0.031  0.00  0.00     0.327 C 
BRANCH  27  28
ATOM     28  N1  <0> d           1.514  -2.464  -0.021  0.00  0.00     0.093 N 
ATOM     29  C4  <0> d           0.797  -2.028  -1.226  0.00  0.00     0.273 C 
ATOM     30  C3  <0> d           0.726  -0.499  -1.253  0.00  0.00     0.034 C 
ATOM     31  C2  <0> d           0.002  -0.004   0.002  0.00  0.00    -0.015 C 
ATOM     32  C1  <0> d          -0.019   1.526   0.010  0.00  0.00     0.010 C 
ATOM     33  C6  <0> d           0.742  -0.513   1.242  0.00  0.00     0.034 C 
ATOM     34  C5  <0> d           0.813  -2.041   1.197  0.00  0.00     0.273 C 
ENDBRANCH  27  28
ENDBRANCH  24  27
ENDBRANCH   1  22
TORSDOF 7
