REMARK  3 active torsions:
REMARK  status: ('A' for Active; 'I' for Inactive)
REMARK    1  A    between atoms: C2_2  and  O1_3 
REMARK    2  A    between atoms: O1_3  and  N1_4 
REMARK    3  A    between atoms: C9_12  and  O3_15 
ROOT
ATOM      1  N1  <0> d           0.769  -1.889   1.248  0.00  0.00    -0.179 N 
ATOM      2  C3  <0> d          -0.245  -2.576   1.903  0.00  0.00     0.141 A 
ATOM      3  C4  <0> d          -0.210  -3.954   2.019  0.00  0.00     0.092 A 
ATOM      4  C5  <0> d           0.907  -4.707   1.434  0.00  0.00     0.101 A 
ATOM      5  C6  <0> d           1.924  -3.984   0.772  0.00  0.00     0.068 A 
ATOM      6  C7  <0> d           1.818  -2.520   0.690  0.00  0.00     0.284 A 
ATOM      7  O2  <0> d           2.682  -1.878   0.121  0.00  0.00    -0.265 OA
ATOM      8  C8  <0> d           2.997  -4.675   0.209  0.00  0.00     0.057 A 
ATOM      9  C9  <0> d           3.014  -6.059   0.329  0.00  0.00     0.084 A 
ATOM     10  C10 <0> d           1.974  -6.703   0.996  0.00  0.00     0.153 A 
ATOM     11  N2  <0> d           0.973  -6.030   1.519  0.00  0.00    -0.255 NA
ATOM     12  N3  <0> d          -1.222  -4.616   2.688  0.00  0.00    -0.372 N 
ATOM     13  C11 <0> d          -1.962  -3.886   3.729  0.00  0.00     0.157 C 
ATOM     14  C12 <0> d          -2.468  -2.571   3.125  0.00  0.00     0.121 C 
ATOM     15  C13 <0> d          -1.323  -1.853   2.461  0.00  0.00     0.183 C 
ATOM     16  O4  <0> d          -1.326  -0.640   2.404  0.00  0.00    -0.291 OA
ATOM     17  I1  <0> d          -0.652  -3.468   5.397  0.00  0.00    -0.062 I 
ATOM     18  H10 <0> d          -1.439  -5.537   2.476  0.00  0.00     0.161 HD
ENDROOT
BRANCH   1  19
ATOM     19  O1  <0> d           0.693  -0.477   1.160  0.00  0.00    -0.270 OA
BRANCH  19  20
ATOM     20  C2  <0> d           0.002  -0.004   0.002  0.00  0.00     0.197 C 
ATOM     21  C1  <0> d          -0.019   1.526   0.010  0.00  0.00     0.036 C 
ENDBRANCH  19  20
ENDBRANCH   1  19
BRANCH   9  22
ATOM     22  O3  <0> d           4.036  -6.779  -0.202  0.00  0.00    -0.359 OA
ATOM     23  H9  <0> d           4.777  -6.917   0.404  0.00  0.00     0.217 HD
ENDBRANCH   9  22
TORSDOF 3
