REMARK  2 active torsions:
REMARK  status: ('A' for Active; 'I' for Inactive)
REMARK    1  A    between atoms: N1_7  and  C9_11 
REMARK    2  A    between atoms: C9_11  and  N2_12 
ROOT
ATOM      1  N2  <0> d          -0.577  -3.821   0.545  0.00  0.00    -0.240 N 
ATOM      2  C10 <0> d          -0.744  -3.986  -0.782  0.00  0.00     0.258 A 
ATOM      3  O2  <0> d          -0.927  -3.120  -1.610  0.00  0.00    -0.270 OA
ATOM      4  C11 <0> d          -0.654  -5.479  -1.023  0.00  0.00     0.125 A 
ATOM      5  C12 <0> d           0.532  -5.793  -1.931  0.00  0.00     0.052 C 
ATOM      6  C13 <0> d           0.280  -7.116  -2.708  0.00  0.00     0.077 C 
ATOM      7  S1  <0> d          -1.517  -6.916  -3.083  0.00  0.00    -0.166 SA
ATOM      8  C14 <0> d          -2.001  -5.990  -1.567  0.00  0.00     0.115 C 
ATOM      9  N3  <0> d          -0.426  -6.036   0.320  0.00  0.00    -0.324 N 
ATOM     10  C15 <0> d          -0.390  -4.991   1.168  0.00  0.00     0.327 A 
ATOM     11  O3  <0> d          -0.212  -5.098   2.365  0.00  0.00    -0.247 OA
ATOM     12  H23 <0> d          -0.318  -6.972   0.549  0.00  0.00     0.165 HD
ENDROOT
BRANCH   1  13
ATOM     13  C9  <0> d          -0.591  -2.522   1.222  0.00  0.00     0.410 C 
BRANCH  13  14
ATOM     14  N1  <0> d           0.771  -1.973   1.256  0.00  0.00     0.115 N 
ATOM     15  C5  <0> d           0.746  -0.509   1.369  0.00  0.00     0.254 C 
ATOM     16  C4  <0> d           2.182   0.022   1.334  0.00  0.00     0.154 C 
ATOM     17  C6  <0> d          -0.043   0.095   0.207  0.00  0.00     0.038 C 
ATOM     18  C3  <0> d           2.161   1.543   1.491  0.00  0.00     0.034 C 
ATOM     19  O1  <0> d           2.925  -0.572   2.400  0.00  0.00    -0.382 OA
ATOM     20  C2  <0> d           1.367   2.158   0.335  0.00  0.00     0.003 C 
ATOM     21  C1  <0> d          -0.065   1.619   0.350  0.00  0.00     0.002 C 
ATOM     22  C8  <0> d           2.974  -2.001   2.332  0.00  0.00     0.198 C 
ATOM     23  C7  <0> d           1.549  -2.561   2.358  0.00  0.00     0.301 C 
ENDBRANCH  13  14
ENDBRANCH   1  13
TORSDOF 2
