REMARK  4 active torsions:
REMARK  status: ('A' for Active; 'I' for Inactive)
REMARK    1  A    between atoms: N1_6  and  C7_8 
REMARK    2  A    between atoms: C7_8  and  C8_9 
REMARK    3  A    between atoms: C9_10  and  C15_19 
REMARK    4  A    between atoms: C12_15  and  N4_18 
ROOT
ATOM      1  C8  <0> d           2.948  -1.937   2.002  0.00  0.00     0.073 A 
ATOM      2  C9  <0> d           3.983  -2.772   1.704  0.00  0.00     0.094 A 
ATOM      3  N2  <0> d           5.131  -2.137   1.989  0.00  0.00    -0.228 NA
ATOM      4  C10 <0> d           4.853  -0.928   2.457  0.00  0.00     0.135 A 
ATOM      5  N3  <0> d           3.492  -0.775   2.471  0.00  0.00    -0.304 N 
ATOM      6  C11 <0> d           2.930   0.394   2.907  0.00  0.00     0.127 A 
ATOM      7  C12 <0> d           3.711   1.417   3.330  0.00  0.00     0.042 A 
ATOM      8  C13 <0> d           5.114   1.287   3.322  0.00  0.00     0.034 A 
ATOM      9  C14 <0> d           5.680   0.126   2.898  0.00  0.00     0.053 A 
ENDROOT
BRANCH   1  10
ATOM     10  C7  <0> d           1.480  -2.238   1.839  0.00  0.00     0.294 C 
BRANCH  10  11
ATOM     11  N1  <0> d           1.079  -1.979   0.449  0.00  0.00    -0.065 N 
ATOM     12  C5  <0> d          -0.319  -2.385   0.262  0.00  0.00     0.239 C 
ATOM     13  C4  <0> d          -0.718  -2.194  -1.203  0.00  0.00     0.008 C 
ATOM     14  C3  <0> d          -0.557  -0.718  -1.582  0.00  0.00     0.011 C 
ATOM     15  C21 <0> d          -2.176  -2.615  -1.396  0.00  0.00     0.011 C 
ATOM     16  C2  <0> d           0.887  -0.286  -1.312  0.00  0.00     0.008 C 
ATOM     17  C1  <0> d           1.039   1.206  -1.613  0.00  0.00     0.011 C 
ATOM     18  C6  <0> d           1.227  -0.549   0.157  0.00  0.00     0.239 C 
ATOM     19  H26 <0> d           1.669  -2.511  -0.173  0.00  0.00     0.280 HD
ENDBRANCH  10  11
ENDBRANCH   1  10
BRANCH   2  20
ATOM     20  C15 <0> d           3.862  -4.147   1.159  0.00  0.00    -0.005 A 
ATOM     21  C20 <0> d           2.911  -5.023   1.677  0.00  0.00     0.017 A 
ATOM     22  C19 <0> d           2.799  -6.299   1.164  0.00  0.00     0.043 A 
ATOM     23  C18 <0> d           3.638  -6.713   0.142  0.00  0.00     0.116 A 
ATOM     24  C17 <0> d           4.588  -5.846  -0.373  0.00  0.00     0.043 A 
ATOM     25  F1  <0> d           3.528  -7.965  -0.354  0.00  0.00    -0.206 F 
ATOM     26  C16 <0> d           4.704  -4.567   0.130  0.00  0.00     0.017 A 
ENDBRANCH   2  20
BRANCH   7  27
ATOM     27  N4  <0> d           3.122   2.609   3.774  0.00  0.00    -0.398 N 
ATOM     28  H17 <0> d           2.156   2.700   3.780  0.00  0.00     0.156 HD
ATOM     29  H18 <0> d           3.680   3.342   4.077  0.00  0.00     0.156 HD
ENDBRANCH   7  27
TORSDOF 4
