REMARK  5 active torsions:
REMARK  status: ('A' for Active; 'I' for Inactive)
REMARK    1  A    between atoms: C8_9  and  N2_11 
REMARK    2  A    between atoms: N2_11  and  C10_12 
REMARK    3  A    between atoms: C11_13  and  N7_29 
REMARK    4  A    between atoms: C12_14  and  N5_18 
REMARK    5  A    between atoms: N5_18  and  C14_19 
ROOT
ATOM      1  C10 <0> d           0.004  -2.792   0.054  0.00  0.00     0.159 A 
ATOM      2  C11 <0> d           0.004  -4.185   0.164  0.00  0.00     0.119 A 
ATOM      3  C12 <0> d          -1.224  -4.835   0.298  0.00  0.00     0.159 A 
ATOM      4  N3  <0> d          -2.340  -4.110   0.316  0.00  0.00    -0.222 NA
ATOM      5  C13 <0> d          -2.295  -2.797   0.210  0.00  0.00     0.237 A 
ATOM      6  N4  <0> d          -1.158  -2.144   0.086  0.00  0.00    -0.222 NA
ENDROOT
BRANCH   1   7
ATOM      7  N2  <0> d           1.199  -2.095  -0.081  0.00  0.00    -0.337 N 
ATOM      8  H7  <0> d           2.035  -2.578  -0.168  0.00  0.00     0.167 HD
BRANCH   7   9
ATOM      9  C8  <0> d           1.194  -0.700  -0.091  0.00  0.00     0.063 A 
ATOM     10  C7  <0> d           2.265   0.019   0.485  0.00  0.00     0.093 A 
ATOM     11  C3  <0> d           2.234   1.435   0.460  0.00  0.00    -0.005 A 
ATOM     12  N1  <0> d           3.296  -0.615   1.048  0.00  0.00    -0.258 NA
ATOM     13  C2  <0> d           1.148   2.098  -0.133  0.00  0.00     0.014 A 
ATOM     14  C4  <0> d           3.302   2.150   1.036  0.00  0.00     0.015 A 
ATOM     15  C1  <0> d           0.130   1.378  -0.681  0.00  0.00     0.003 A 
ATOM     16  C9  <0> d           0.146  -0.013  -0.664  0.00  0.00     0.032 A 
ATOM     17  C5  <0> d           4.326   1.440   1.595  0.00  0.00     0.020 A 
ATOM     18  C6  <0> d           4.292   0.047   1.585  0.00  0.00     0.117 A 
ENDBRANCH   7   9
ENDBRANCH   1   7
BRANCH   2  19
ATOM     19  N7  <0> d           1.206  -4.910   0.140  0.00  0.00    -0.393 N 
ATOM     20  H16 <0> d           2.051  -4.444   0.045  0.00  0.00     0.156 HD
ATOM     21  H17 <0> d           1.190  -5.877   0.217  0.00  0.00     0.156 HD
ENDBRANCH   2  19
BRANCH   3  22
ATOM     22  N5  <0> d          -1.280  -6.220   0.411  0.00  0.00    -0.338 N 
ATOM     23  H9  <0> d          -0.462  -6.734   0.486  0.00  0.00     0.167 HD
BRANCH  22  24
ATOM     24  C14 <0> d          -2.513  -6.869   0.416  0.00  0.00     0.046 A 
ATOM     25  C19 <0> d          -2.649  -8.136   1.021  0.00  0.00     0.019 A 
ATOM     26  C18 <0> d          -3.912  -8.778   1.022  0.00  0.00     0.069 A 
ATOM     27  C20 <0> d          -1.556  -8.776   1.630  0.00  0.00     0.017 A 
ATOM     28  C17 <0> d          -5.004  -8.143   0.408  0.00  0.00     0.032 A 
ATOM     29  N6  <0> d          -4.047  -9.977   1.600  0.00  0.00    -0.260 NA
ATOM     30  C16 <0> d          -4.846  -6.922  -0.174  0.00  0.00     0.005 A 
ATOM     31  C15 <0> d          -3.612  -6.280  -0.175  0.00  0.00     0.030 A 
ATOM     32  C22 <0> d          -3.027 -10.583   2.158  0.00  0.00     0.117 A 
ATOM     33  C21 <0> d          -1.761 -10.003   2.196  0.00  0.00     0.020 A 
ENDBRANCH  22  24
ENDBRANCH   3  22
TORSDOF 5
