REMARK  5 active torsions:
REMARK  status: ('A' for Active; 'I' for Inactive)
REMARK    1  A    between atoms: C5_5  and  C9_10 
REMARK    2  A    between atoms: C7_7  and  O1_8 
REMARK       I    between atoms: C9_10  and  N1_12 
REMARK    3  A    between atoms: N1_12  and  C10_13 
REMARK    4  A    between atoms: C10_13  and  C11_14 
REMARK    5  A    between atoms: N4_18  and  C13_19 
ROOT
ATOM      1  C9  <0> d           0.061  -4.255  -0.027  0.00  0.00     0.252 C 
ATOM      2  O2  <0> d           0.074  -4.872   1.020  0.00  0.00    -0.268 OA
ATOM      3  N1  <0> d           0.064  -4.919  -1.200  0.00  0.00    -0.350 N 
ATOM      4  H10 <0> d           0.053  -4.427  -2.036  0.00  0.00     0.163 HD
ENDROOT
BRANCH   3   5
ATOM      5  C10 <0> d           0.084  -6.384  -1.213  0.00  0.00     0.203 C 
BRANCH   5   6
ATOM      6  C11 <0> d           0.083  -6.874  -2.638  0.00  0.00     0.147 A 
ATOM      7  N4  <0> d           0.099  -8.190  -3.030  0.00  0.00    -0.304 N 
ATOM      8  C12 <0> d           0.089  -8.231  -4.378  0.00  0.00     0.196 A 
ATOM      9  N3  <0> d           0.076  -6.956  -4.820  0.00  0.00    -0.251 N 
ATOM     10  S1  <0> d           0.098  -9.641  -5.349  0.00  0.00    -0.039 SA
ATOM     11  N2  <0> d           0.073  -6.123  -3.692  0.00  0.00    -0.157 NA
ATOM     12  H20 <0> d           0.071  -6.669  -5.747  0.00  0.00     0.191 HD
BRANCH   7  13
ATOM     13  C13 <0> d           0.120  -9.351  -2.137  0.00  0.00     0.086 C 
ATOM     14  C14 <0> d          -1.119 -10.212  -2.391  0.00  0.00     0.032 C 
ATOM     15  C15 <0> d           1.379 -10.177  -2.404  0.00  0.00     0.032 C 
ENDBRANCH   7  13
ENDBRANCH   5   6
ENDBRANCH   3   5
BRANCH   1  16
ATOM     16  C5  <0> d           0.041  -2.776  -0.015  0.00  0.00     0.034 A 
ATOM     17  C4  <0> d           0.025  -2.066  -1.216  0.00  0.00     0.018 A 
ATOM     18  C3  <0> d           0.006  -0.686  -1.201  0.00  0.00     0.010 A 
ATOM     19  C2  <0> d           0.002  -0.004   0.002  0.00  0.00    -0.029 A 
ATOM     20  C1  <0> d          -0.018   1.503   0.010  0.00  0.00     0.051 C 
ATOM     21  C7  <0> d           0.023  -0.702   1.202  0.00  0.00     0.075 A 
ATOM     22  C6  <0> d           0.037  -2.087   1.198  0.00  0.00     0.054 A 
BRANCH  21  23
ATOM     23  O1  <0> d           0.025  -0.026   2.381  0.00  0.00    -0.355 OA
ATOM     24  C8  <0> d           0.047  -0.808   3.577  0.00  0.00     0.210 C 
ENDBRANCH  21  23
ENDBRANCH   1  16
TORSDOF 5
