REMARK  6 active torsions:
REMARK  status: ('A' for Active; 'I' for Inactive)
REMARK    1  A    between atoms: C5_5  and  N1_9 
REMARK    2  A    between atoms: C10_13  and  S1_14 
REMARK    3  A    between atoms: S1_14  and  C11_15 
REMARK    4  A    between atoms: C11_15  and  C12_16 
REMARK       I    between atoms: C12_16  and  N4_18 
REMARK    5  A    between atoms: N4_18  and  C13_19 
REMARK    6  A    between atoms: C14_20  and  C21_28 
REMARK       I    between atoms: C21_28  and  N5_30 
ROOT
ATOM      1  C12 <0> d           1.984   3.586   0.002  0.00  0.00     0.232 C 
ATOM      2  O1  <0> d           1.037   4.344   0.015  0.00  0.00    -0.272 OA
ATOM      3  N4  <0> d           3.240   4.076  -0.007  0.00  0.00    -0.320 N 
ATOM      4  H13 <0> d           4.098   3.388  -0.019  0.00  0.00     0.169 HD
ENDROOT
BRANCH   1   5
ATOM      5  C11 <0> d           1.756   2.096  -0.004  0.00  0.00     0.185 C 
BRANCH   5   6
ATOM      6  S1  <0> d          -0.022   1.758   0.012  0.00  0.00    -0.081 SA
BRANCH   6   7
ATOM      7  C10 <0> d           0.002  -0.004   0.002  0.00  0.00     0.196 A 
ATOM      8  N1  <0> d          -1.086  -0.833   0.008  0.00  0.00    -0.281 N 
ATOM      9  C9  <0> d          -0.581  -2.106  -0.004  0.00  0.00     0.241 A 
ATOM     10  N2  <0> d           0.718  -2.007  -0.016  0.00  0.00    -0.142 NA
ATOM     11  N3  <0> d           1.068  -0.771  -0.018  0.00  0.00    -0.123 NA
BRANCH   8  12
ATOM     12  C5  <0> d          -2.438  -0.457   0.022  0.00  0.00     0.048 A 
ATOM     13  C4  <0> d          -3.234  -0.765   1.117  0.00  0.00     0.031 A 
ATOM     14  C3  <0> d          -4.564  -0.394   1.128  0.00  0.00     0.009 A 
ATOM     15  C2  <0> d          -5.103   0.285   0.051  0.00  0.00    -0.061 A 
ATOM     16  C1  <0> d          -6.554   0.690   0.066  0.00  0.00     0.048 C 
ATOM     17  C7  <0> d          -4.312   0.593  -1.041  0.00  0.00     0.015 A 
ATOM     18  C6  <0> d          -2.980   0.229  -1.056  0.00  0.00    -0.034 A 
ATOM     19  C8  <0> d          -2.118   0.571  -2.243  0.00  0.00     0.050 C 
ENDBRANCH   8  12
ENDBRANCH   6   7
ENDBRANCH   5   6
ENDBRANCH   1   5
BRANCH   3  20
ATOM     20  C13 <0> d           3.449   5.446  -0.002  0.00  0.00     0.093 A 
ATOM     21  S2  <0> d           2.270   6.716   0.017  0.00  0.00    -0.075 SA
ATOM     22  C16 <0> d           3.356   8.114   0.015  0.00  0.00    -0.008 A 
ATOM     23  C15 <0> d           4.599   7.586  -0.000  0.00  0.00    -0.026 A 
ATOM     24  C17 <0> d           2.991   9.567   0.028  0.00  0.00     0.047 C 
ATOM     25  C14 <0> d           4.654   6.134  -0.004  0.00  0.00     0.072 A 
ATOM     26  C20 <0> d           5.832   8.482  -0.007  0.00  0.00     0.041 C 
ATOM     27  C19 <0> d           5.418   9.886  -0.452  0.00  0.00     0.005 C 
ATOM     28  C18 <0> d           4.242  10.376   0.399  0.00  0.00     0.005 C 
BRANCH  25  29
ATOM     29  C21 <0> d           5.936   5.423  -0.013  0.00  0.00     0.252 C 
ATOM     30  O2  <0> d           6.463   5.133  -1.071  0.00  0.00    -0.268 OA
ATOM     31  N5  <0> d           6.530   5.089   1.149  0.00  0.00    -0.366 N 
ATOM     32  H22 <0> d           7.492   4.555   1.142  0.00  0.00     0.159 HD
ATOM     33  H23 <0> d           6.054   5.351   2.106  0.00  0.00     0.159 HD
ENDBRANCH  25  29
ENDBRANCH   3  20
TORSDOF 6
