REMARK  4 active torsions:
REMARK  status: ('A' for Active; 'I' for Inactive)
REMARK    1  A    between atoms: C5_5  and  C9_9 
REMARK    2  A    between atoms: N1_16  and  C15_19 
REMARK    3  A    between atoms: C15_19  and  C16_20 
REMARK       I    between atoms: C16_20  and  N3_22 
REMARK       I    between atoms: N3_22  and  C17_23 
REMARK       I    between atoms: C17_23  and  N4_25 
REMARK    4  A    between atoms: N4_25  and  C18_26 
ROOT
ATOM      1  C9  <0> d          -0.087   0.189  11.113  0.00  0.00    -0.001 A 
ATOM      2  C10 <0> d          -0.758   0.345  12.279  0.00  0.00     0.065 A 
ATOM      3  S1  <0> d          -1.309   2.040  12.214  0.00  0.00    -0.080 SA
ATOM      4  C11 <0> d          -0.632   2.493  10.638  0.00  0.00     0.115 A 
ATOM      5  C12 <0> d           0.005   1.321  10.199  0.00  0.00     0.080 A 
ATOM      6  C13 <0> d           0.650   1.406   8.924  0.00  0.00     0.263 A 
ATOM      7  O1  <0> d           1.230   0.440   8.458  0.00  0.00    -0.267 OA
ATOM      8  N1  <0> d           0.606   2.568   8.247  0.00  0.00    -0.299 N 
ATOM      9  C14 <0> d          -0.031   3.656   8.753  0.00  0.00     0.214 A 
ATOM     10  N2  <0> d          -0.633   3.607   9.911  0.00  0.00    -0.235 NA
ENDROOT
BRANCH   8  11
ATOM     11  C15 <0> d           1.263   2.664   6.941  0.00  0.00     0.236 C 
BRANCH  11  12
ATOM     12  C16 <0> d           0.287   2.282   5.858  0.00  0.00     0.243 C 
ATOM     13  O2  <0> d          -0.846   1.961   6.149  0.00  0.00    -0.271 OA
ATOM     14  N3  <0> d           0.673   2.296   4.567  0.00  0.00    -0.278 N 
ATOM     15  C17 <0> d          -0.200   1.954   3.599  0.00  0.00     0.323 C 
ATOM     16  H14 <0> d           1.700   2.587   4.304  0.00  0.00     0.173 HD
ATOM     17  O3  <0> d          -1.335   1.633   3.890  0.00  0.00    -0.247 OA
ATOM     18  N4  <0> d           0.186   1.969   2.308  0.00  0.00    -0.338 N 
ATOM     19  H15 <0> d           1.214   2.260   2.044  0.00  0.00     0.164 HD
BRANCH  18  20
ATOM     20  C18 <0> d          -0.763   1.597   1.255  0.00  0.00     0.086 C 
ATOM     21  C22 <0> d          -1.531   2.845   0.750  0.00  0.00     0.025 C 
ATOM     22  C21 <0> d          -1.978   2.421  -0.670  0.00  0.00     0.002 C 
ATOM     23  C20 <0> d          -0.784   1.609  -1.216  0.00  0.00     0.002 C 
ATOM     24  C19 <0> d          -0.013   1.086   0.008  0.00  0.00     0.025 C 
ENDBRANCH  18  20
ENDBRANCH  11  12
ENDBRANCH   8  11
BRANCH   1  25
ATOM     25  C5  <0> d           0.541  -1.110  10.772  0.00  0.00    -0.024 A 
ATOM     26  C4  <0> d           0.303  -1.698   9.530  0.00  0.00     0.013 A 
ATOM     27  C3  <0> d           0.895  -2.904   9.216  0.00  0.00     0.008 A 
ATOM     28  C2  <0> d           1.714  -3.536  10.135  0.00  0.00    -0.056 A 
ATOM     29  C1  <0> d           2.353  -4.856   9.789  0.00  0.00     0.049 C 
ATOM     30  C7  <0> d           1.949  -2.960  11.371  0.00  0.00    -0.055 A 
ATOM     31  C6  <0> d           1.367  -1.751  11.694  0.00  0.00     0.019 A 
ATOM     32  C8  <0> d           2.843  -3.654  12.366  0.00  0.00     0.049 C 
ENDBRANCH   1  25
TORSDOF 4
