REMARK  3 active torsions:
REMARK  status: ('A' for Active; 'I' for Inactive)
REMARK    1  A    between atoms: N1_5  and  C5_7 
REMARK    2  A    between atoms: C5_7  and  C6_8 
REMARK       I    between atoms: C6_8  and  N3_10 
REMARK    3  A    between atoms: N3_10  and  C7_11 
ROOT
ATOM      1  C6  <0> d           1.396   1.982  -0.001  0.00  0.00     0.242 C 
ATOM      2  O1  <0> d           2.329   1.207  -0.014  0.00  0.00    -0.271 OA
ATOM      3  N3  <0> d           1.624   3.311   0.004  0.00  0.00    -0.323 N 
ATOM      4  H6  <0> d           0.779   4.014   0.016  0.00  0.00     0.169 HD
ENDROOT
BRANCH   1   5
ATOM      5  C5  <0> d          -0.018   1.461   0.010  0.00  0.00     0.254 C 
BRANCH   5   6
ATOM      6  N1  <0> d           0.002  -0.004   0.002  0.00  0.00    -0.264 N 
ATOM      7  C4  <0> d           0.023  -0.804   1.089  0.00  0.00     0.046 A 
ATOM      8  C3  <0> d           0.036  -2.087   0.657  0.00  0.00     0.060 A 
ATOM      9  C12 <0> d           0.032  -0.350   2.526  0.00  0.00     0.071 C 
ATOM     10  C2  <0> d           0.022  -2.070  -0.742  0.00  0.00     0.070 A 
ATOM     11 Br1  <0> d           0.068  -3.629   1.751  0.00  0.00    -0.047 Br
ATOM     12  C1  <0> d           0.028  -3.280  -1.640  0.00  0.00     0.074 C 
ATOM     13  N2  <0> d          -0.004  -0.822  -1.135  0.00  0.00    -0.176 NA
ENDBRANCH   5   6
ENDBRANCH   1   5
BRANCH   3  14
ATOM     14  C7  <0> d           2.945   3.798  -0.006  0.00  0.00     0.078 A 
ATOM     15  C9  <0> d           3.315   5.104  -0.008  0.00  0.00     0.054 A 
ATOM     16  N5  <0> d           4.673   5.145  -0.016  0.00  0.00    -0.277 N 
ATOM     17  C10 <0> d           2.388   6.292   0.001  0.00  0.00     0.072 C 
ATOM     18  N4  <0> d           5.143   3.826  -0.028  0.00  0.00    -0.183 NA
ATOM     19  C11 <0> d           5.499   6.355  -0.018  0.00  0.00     0.179 C 
ATOM     20  C8  <0> d           4.112   3.020  -0.021  0.00  0.00     0.170 A 
ENDBRANCH   3  14
TORSDOF 3
