REMARK  4 active torsions:
REMARK  status: ('A' for Active; 'I' for Inactive)
REMARK    1  A    between atoms: C4_4  and  C17_20 
REMARK    2  A    between atoms: N1_6  and  C6_7 
REMARK    3  A    between atoms: C9_10  and  N2_13 
REMARK    4  A    between atoms: C17_20  and  C18_21 
ROOT
ATOM      1  C1  <0> d           1.419  -2.029   0.375  0.00  0.00     0.068 C 
ATOM      2  C2  <0> d           1.027  -0.574   0.382  0.00  0.00     0.014 A 
ATOM      3  C3  <0> d          -0.199  -0.096   0.104  0.00  0.00     0.038 A 
ATOM      4  C4  <0> d          -0.118   1.365   0.232  0.00  0.00    -0.009 A 
ATOM      5  C5  <0> d           1.188   1.644   0.585  0.00  0.00     0.023 A 
ATOM      6  N1  <0> d           1.861   0.469   0.670  0.00  0.00    -0.319 N 
ATOM      7  C16 <0> d           1.765   3.015   0.831  0.00  0.00     0.069 C 
ENDROOT
BRANCH   6   8
ATOM      8  C6  <0> d           3.217   0.344   1.006  0.00  0.00     0.039 A 
ATOM      9  C11 <0> d           4.120  -0.147   0.073  0.00  0.00     0.032 A 
ATOM     10  C10 <0> d           5.455  -0.271   0.403  0.00  0.00     0.026 A 
ATOM     11  C9  <0> d           5.894   0.095   1.669  0.00  0.00     0.010 A 
ATOM     12  C8  <0> d           4.990   0.586   2.602  0.00  0.00     0.026 A 
ATOM     13  C7  <0> d           3.657   0.715   2.270  0.00  0.00     0.032 A 
BRANCH  11  14
ATOM     14  N2  <0> d           7.246  -0.031   2.003  0.00  0.00    -0.279 NA
ATOM     15  C15 <0> d           7.490   0.410   3.384  0.00  0.00     0.122 C 
ATOM     16  C14 <0> d           8.987   0.312   3.688  0.00  0.00     0.182 C 
ATOM     17  O1  <0> d           9.428  -1.029   3.463  0.00  0.00    -0.389 OA
ATOM     18  C13 <0> d           9.206  -1.492   2.128  0.00  0.00     0.182 C 
ATOM     19  C12 <0> d           7.711  -1.412   1.808  0.00  0.00     0.122 C 
ENDBRANCH  11  14
ENDBRANCH   6   8
BRANCH   4  20
ATOM     20  C17 <0> d          -1.201   2.330   0.021  0.00  0.00     0.048 C 
BRANCH  20  21
ATOM     21  C18 <0> d          -2.322   1.958  -0.651  0.00  0.00     0.104 A 
ATOM     22  N4  <0> d          -2.552   0.745  -1.318  0.00  0.00    -0.329 N 
ATOM     23  C20 <0> d          -3.789   0.796  -1.844  0.00  0.00     0.179 A 
ATOM     24  H22 <0> d          -1.931   0.004  -1.388  0.00  0.00     0.168 HD
ATOM     25  N3  <0> d          -4.383   1.965  -1.562  0.00  0.00    -0.298 N 
ATOM     26  S1  <0> d          -4.509  -0.465  -2.751  0.00  0.00    -0.040 SA
ATOM     27  C19 <0> d          -3.555   2.735  -0.828  0.00  0.00     0.274 A 
ATOM     28  H21 <0> d          -5.277   2.217  -1.841  0.00  0.00     0.171 HD
ATOM     29  O2  <0> d          -3.782   3.852  -0.400  0.00  0.00    -0.266 OA
ENDBRANCH  20  21
ENDBRANCH   4  20
TORSDOF 4
