REMARK  4 active torsions:
REMARK  status: ('A' for Active; 'I' for Inactive)
REMARK    1  A    between atoms: C5_5  and  C12_18 
REMARK    2  A    between atoms: N2_9  and  C8_11 
REMARK    3  A    between atoms: C12_18  and  C13_20 
REMARK    4  A    between atoms: C18_25  and  O4_26 
ROOT
ATOM      1  C1  <0> d           0.980   6.517   0.952  0.00  0.00     0.073 C 
ATOM      2  C2  <0> d          -0.038   5.409   0.868  0.00  0.00     0.065 A 
ATOM      3  C3  <0> d           0.243   3.997   0.626  0.00  0.00     0.038 A 
ATOM      4  C4  <0> d           1.410   3.260   0.414  0.00  0.00     0.034 A 
ATOM      5  C5  <0> d           1.288   1.884   0.213  0.00  0.00     0.034 A 
ATOM      6  C6  <0> d           0.012   1.301   0.231  0.00  0.00     0.134 A 
ATOM      7  N1  <0> d          -1.065   2.023   0.427  0.00  0.00    -0.240 NA
ATOM      8  C7  <0> d          -1.004   3.336   0.630  0.00  0.00     0.158 A 
ATOM      9  N2  <0> d          -1.951   4.294   0.858  0.00  0.00    -0.245 N 
ATOM     10  N3  <0> d          -1.327   5.537   0.997  0.00  0.00    -0.174 NA
ENDROOT
BRANCH   5  11
ATOM     11  C12 <0> d           2.486   1.053  -0.017  0.00  0.00     0.196 C 
ATOM     12  O3  <0> d           2.525  -0.087   0.405  0.00  0.00    -0.286 OA
BRANCH  11  13
ATOM     13  C13 <0> d           3.635   1.605  -0.757  0.00  0.00     0.051 A 
ATOM     14  C18 <0> d           4.825   0.869  -0.863  0.00  0.00     0.080 A 
ATOM     15  C17 <0> d           5.900   1.397  -1.562  0.00  0.00     0.040 A 
ATOM     16  C16 <0> d           5.800   2.642  -2.151  0.00  0.00     0.045 A 
ATOM     17  C15 <0> d           4.625   3.374  -2.049  0.00  0.00     0.117 A 
ATOM     18  C14 <0> d           3.544   2.862  -1.362  0.00  0.00     0.060 A 
ATOM     19  F1  <0> d           4.538   4.591  -2.629  0.00  0.00    -0.206 F 
BRANCH  14  20
ATOM     20  O4  <0> d           4.923  -0.354  -0.284  0.00  0.00    -0.360 OA
ATOM     21  H16 <0> d           4.653  -1.084  -0.859  0.00  0.00     0.217 HD
ENDBRANCH  14  20
ENDBRANCH  11  13
ENDBRANCH   5  11
BRANCH   9  22
ATOM     22  C8  <0> d          -3.393   4.055   0.943  0.00  0.00     0.127 C 
ATOM     23  C11 <0> d          -3.916   4.491   2.341  0.00  0.00     0.167 C 
ATOM     24  S1  <0> d          -5.715   4.678   1.986  0.00  0.00     0.146 S 
ATOM     25  C10 <0> d          -5.643   4.898   0.162  0.00  0.00     0.142 C 
ATOM     26  O1  <0> d          -6.373   3.453   2.278  0.00  0.00    -0.228 OA
ATOM     27  O2  <0> d          -6.181   5.881   2.580  0.00  0.00    -0.228 OA
ATOM     28  C9  <0> d          -4.122   4.891  -0.122  0.00  0.00     0.043 C 
ENDBRANCH   9  22
TORSDOF 4
