REMARK  4 active torsions:
REMARK  status: ('A' for Active; 'I' for Inactive)
REMARK    1  A    between atoms: C3_3  and  N1_14 
REMARK    2  A    between atoms: C4_4  and  O2_13 
REMARK    3  A    between atoms: N1_14  and  C12_16 
REMARK    4  A    between atoms: C12_16  and  C13_17 
ROOT
ATOM      1  C1  <0> d          -0.043   1.499   0.005  0.00  0.00     0.048 C 
ATOM      2  C2  <0> d          -0.017  -0.031  -0.025  0.00  0.00     0.092 C 
ATOM      3  C3  <0> d           0.632  -0.511  -1.329  0.00  0.00     0.255 C 
ATOM      4  C4  <0> d           0.543  -2.038  -1.377  0.00  0.00     0.188 C 
ATOM      5  C5  <0> d           1.009  -2.615  -0.064  0.00  0.00     0.009 A 
ATOM      6  C6  <0> d           1.365  -3.953  -0.014  0.00  0.00     0.055 A 
ATOM      7  C7  <0> d           1.793  -4.516   1.174  0.00  0.00     0.117 A 
ATOM      8  C8  <0> d           1.867  -3.742   2.319  0.00  0.00     0.045 A 
ATOM      9  C9  <0> d           1.515  -2.408   2.272  0.00  0.00     0.040 A 
ATOM     10  C10 <0> d           1.086  -1.838   1.078  0.00  0.00     0.079 A 
ATOM     11  O1  <0> d           0.758  -0.520   1.070  0.00  0.00    -0.338 OA
ATOM     12  F1  <0> d           2.139  -5.822   1.217  0.00  0.00    -0.206 F 
ATOM     13  C14 <0> d          -1.444  -0.573   0.071  0.00  0.00     0.048 C 
ENDROOT
BRANCH   3  14
ATOM     14  N1  <0> d           2.041  -0.095  -1.364  0.00  0.00    -0.056 N 
ATOM     15  C11 <0> d           2.599  -0.365  -2.696  0.00  0.00     0.271 C 
ATOM     16  H18 <0> d           2.105   0.892  -1.166  0.00  0.00     0.280 HD
BRANCH  14  17
ATOM     17  C12 <0> d           2.798  -0.847  -0.354  0.00  0.00     0.347 C 
BRANCH  17  18
ATOM     18  C13 <0> d           4.246  -0.432  -0.401  0.00  0.00     0.199 C 
ATOM     19  O3  <0> d           4.613   0.411  -1.201  0.00  0.00    -0.647 OA
ATOM     20  O4  <0> d           5.050  -0.940   0.362  0.00  0.00    -0.647 OA
ENDBRANCH  17  18
ENDBRANCH  14  17
ENDBRANCH   3  14
BRANCH   4  21
ATOM     21  O2  <0> d          -0.812  -2.428  -1.613  0.00  0.00    -0.389 OA
ATOM     22  H9  <0> d          -0.944  -3.385  -1.655  0.00  0.00     0.210 HD
ENDBRANCH   4  21
TORSDOF 4
