REMARK  7 active torsions:
REMARK  status: ('A' for Active; 'I' for Inactive)
REMARK    1  A    between atoms: S1_2  and  C2_5 
REMARK    2  A    between atoms: C2_5  and  C3_6 
REMARK    3  A    between atoms: C3_6  and  C4_7 
REMARK    4  A    between atoms: N1_10  and  C7_14 
REMARK    5  A    between atoms: C7_14  and  C8_15 
REMARK       I    between atoms: C8_15  and  N3_17 
REMARK    6  A    between atoms: N3_17  and  C9_18 
REMARK    7  A    between atoms: N3_17  and  C12_21 
ROOT
ATOM      1  C4  <0> d           1.093   1.978  -0.121  0.00  0.00     0.179 A 
ATOM      2  C5  <0> d           1.185   3.490  -0.060  0.00  0.00     0.251 A 
ATOM      3  O3  <0> d           0.763   4.215   0.816  0.00  0.00    -0.271 OA
ATOM      4  N1  <0> d           1.831   3.862  -1.183  0.00  0.00    -0.260 N 
ATOM      5  C6  <0> d           2.158   2.806  -1.937  0.00  0.00     0.326 A 
ATOM      6  O4  <0> d           2.746   2.889  -2.997  0.00  0.00    -0.247 OA
ATOM      7  N2  <0> d           1.762   1.642  -1.390  0.00  0.00    -0.329 N 
ATOM      8  H9  <0> d           1.892   0.755  -1.760  0.00  0.00     0.165 HD
ENDROOT
BRANCH   4   9
ATOM      9  C7  <0> d           2.138   5.250  -1.534  0.00  0.00     0.240 C 
BRANCH   9  10
ATOM     10  C8  <0> d           1.001   5.829  -2.337  0.00  0.00     0.243 C 
ATOM     11  O5  <0> d           0.072   5.122  -2.668  0.00  0.00    -0.271 OA
ATOM     12  N3  <0> d           1.015   7.130  -2.685  0.00  0.00    -0.316 N 
BRANCH  12  13
ATOM     13  C9  <0> d           2.193   7.953  -2.397  0.00  0.00     0.093 A 
ATOM     14  C11 <0> d           3.525   7.521  -3.014  0.00  0.00     0.028 A 
ATOM     15  C10 <0> d           2.795   8.755  -3.552  0.00  0.00     0.028 A 
ENDBRANCH  12  13
BRANCH  12  16
ATOM     16  C12 <0> d          -0.088   7.693  -3.320  0.00  0.00     0.011 C 
ATOM     17  C17 <0> d          -1.306   6.837  -3.509  0.00  0.00     0.057 C 
ATOM     18  C16 <0> d          -2.524   7.715  -3.813  0.00  0.00     0.006 C 
ATOM     19  C15 <0> d          -2.150   8.685  -4.941  0.00  0.00     0.004 C 
ATOM     20  C14 <0> d          -1.110   9.672  -4.407  0.00  0.00     0.029 C 
ATOM     21  C13 <0> d          -0.000   8.932  -3.719  0.00  0.00    -0.002 C 
ENDBRANCH  12  16
ENDBRANCH   9  10
ENDBRANCH   4   9
BRANCH   1  22
ATOM     22  C3  <0> d          -0.369   1.528  -0.147  0.00  0.00     0.050 C 
BRANCH  22  23
ATOM     23  C2  <0> d          -0.431  -0.000  -0.193  0.00  0.00     0.142 C 
BRANCH  23  24
ATOM     24  S1  <0> d          -2.164  -0.534  -0.224  0.00  0.00     0.140 S 
ATOM     25  C1  <0> d          -2.026  -2.342  -0.276  0.00  0.00     0.161 C 
ATOM     26  O1  <0> d          -2.770  -0.165   1.007  0.00  0.00    -0.228 OA
ATOM     27  O2  <0> d          -2.749  -0.093  -1.442  0.00  0.00    -0.228 OA
ENDBRANCH  23  24
ENDBRANCH  22  23
ENDBRANCH   1  22
TORSDOF 7
