REMARK  5 active torsions:
REMARK  status: ('A' for Active; 'I' for Inactive)
REMARK    1  A    between atoms: C3_3  and  C7_9 
REMARK    2  A    between atoms: C7_9  and  C8_11 
REMARK       I    between atoms: C8_11  and  N3_13 
REMARK    3  A    between atoms: N3_13  and  C9_14 
REMARK    4  A    between atoms: C10_15  and  C16_22 
REMARK       I    between atoms: C16_22  and  N4_24 
REMARK    5  A    between atoms: N4_24  and  C17_25 
ROOT
ATOM      1  C9  <0> d           0.121   2.460  -4.755  0.00  0.00     0.093 A 
ATOM      2  C10 <0> d           0.029   2.966  -6.039  0.00  0.00     0.073 A 
ATOM      3  C11 <0> d           0.188   4.409  -6.203  0.00  0.00    -0.026 A 
ATOM      4  C12 <0> d           0.412   5.071  -5.053  0.00  0.00    -0.008 A 
ATOM      5  S1  <0> d           0.398   3.812  -3.802  0.00  0.00    -0.075 SA
ATOM      6  C13 <0> d           0.573   6.550  -5.279  0.00  0.00     0.047 C 
ATOM      7  C14 <0> d           0.847   6.685  -6.793  0.00  0.00     0.010 C 
ATOM      8  C15 <0> d           0.171   5.416  -7.351  0.00  0.00     0.041 C 
ENDROOT
BRANCH   1   9
ATOM      9  N3  <0> d           0.006   1.142  -4.349  0.00  0.00    -0.314 N 
ATOM     10  C8  <0> d           0.119   0.826  -3.043  0.00  0.00     0.297 C 
ATOM     11  O2  <0> d           0.322   1.698  -2.223  0.00  0.00    -0.264 OA
ATOM     12  H10 <0> d          -0.156   0.445  -5.004  0.00  0.00     0.170 HD
BRANCH  10  13
ATOM     13  C7  <0> d          -0.005  -0.594  -2.606  0.00  0.00     0.253 C 
ATOM     14  O1  <0> d          -0.111  -1.477  -3.433  0.00  0.00    -0.281 OA
BRANCH  13  15
ATOM     15  C3  <0> d          -0.000  -0.925  -1.174  0.00  0.00     0.070 A 
ATOM     16  C2  <0> d          -1.135  -1.085  -0.343  0.00  0.00     0.067 A 
ATOM     17  C1  <0> d          -2.573  -0.944  -0.771  0.00  0.00     0.073 C 
ATOM     18  N2  <0> d          -0.717  -1.369   0.859  0.00  0.00    -0.177 NA
ATOM     19  N1  <0> d           0.681  -1.415   0.857  0.00  0.00    -0.278 N 
ATOM     20  C4  <0> d           1.117  -1.141  -0.382  0.00  0.00     0.042 A 
ATOM     21  C5  <0> d           1.529  -1.708   2.015  0.00  0.00     0.179 C 
ATOM     22  C6  <0> d           2.554  -1.080  -0.830  0.00  0.00     0.071 C 
ENDBRANCH  13  15
ENDBRANCH  10  13
ENDBRANCH   1   9
BRANCH   2  23
ATOM     23  C16 <0> d          -0.219   2.090  -7.188  0.00  0.00     0.255 C 
ATOM     24  O3  <0> d          -1.361   1.855  -7.540  0.00  0.00    -0.268 OA
ATOM     25  N4  <0> d           0.817   1.544  -7.856  0.00  0.00    -0.352 N 
ATOM     26  H17 <0> d           1.726   1.730  -7.575  0.00  0.00     0.163 HD
BRANCH  25  27
ATOM     27  C17 <0> d           0.569   0.668  -9.004  0.00  0.00     0.084 A 
ATOM     28  C19 <0> d           1.676   0.550 -10.054  0.00  0.00     0.027 A 
ATOM     29  C18 <0> d           1.394  -0.616  -9.104  0.00  0.00     0.027 A 
ENDBRANCH  25  27
ENDBRANCH   2  23
TORSDOF 5
