REMARK  4 active torsions:
REMARK  status: ('A' for Active; 'I' for Inactive)
REMARK    1  A    between atoms: C3_3  and  C5_6 
REMARK       I    between atoms: C5_6  and  N1_8 
REMARK    2  A    between atoms: N1_8  and  C6_9 
REMARK    3  A    between atoms: C9_12  and  C10_14 
REMARK       I    between atoms: C10_14  and  N2_16 
REMARK    4  A    between atoms: N2_16  and  C11_17 
ROOT
ATOM      1  C10 <0> d          -0.014   1.213   0.003  0.00  0.00     0.263 C 
ATOM      2  O3  <0> d           0.003  -0.004   0.001  0.00  0.00    -0.267 OA
ATOM      3  N2  <0> d           1.143   1.903   0.001  0.00  0.00    -0.321 N 
ATOM      4  H7  <0> d           1.129   3.001  -0.071  0.00  0.00     0.169 HD
ENDROOT
BRANCH   1   5
ATOM      5  C9  <0> d          -1.252   1.905   0.002  0.00  0.00     0.075 A 
ATOM      6  C8  <0> d          -2.541   1.389  -0.001  0.00  0.00     0.027 A 
ATOM      7  C7  <0> d          -3.576   2.284  -0.001  0.00  0.00     0.039 A 
ATOM      8  C6  <0> d          -3.287   3.632   0.002  0.00  0.00     0.077 A 
ATOM      9  S1  <0> d          -1.554   3.663   0.013  0.00  0.00    -0.067 SA
BRANCH   8  10
ATOM     10  N1  <0> d          -4.170   4.704   0.003  0.00  0.00    -0.315 N 
ATOM     11  C5  <0> d          -3.697   5.966   0.006  0.00  0.00     0.280 C 
ATOM     12  O2  <0> d          -2.497   6.166   0.009  0.00  0.00    -0.265 OA
ATOM     13  H4  <0> d          -5.255   4.523   0.000  0.00  0.00     0.170 HD
BRANCH  11  14
ATOM     14  C3  <0> d          -4.629   7.098   0.007  0.00  0.00     0.142 A 
ATOM     15  C2  <0> d          -4.286   8.420   0.010  0.00  0.00     0.045 A 
ATOM     16  C1  <0> d          -5.486   9.148   0.009  0.00  0.00     0.027 A 
ATOM     17  C4  <0> d          -6.496   8.250   0.005  0.00  0.00     0.143 A 
ATOM     18  O1  <0> d          -5.976   7.016  -0.002  0.00  0.00    -0.317 OA
ENDBRANCH  11  14
ENDBRANCH   8  10
ENDBRANCH   1   5
BRANCH   3  19
ATOM     19  C11 <0> d           2.364   1.223   0.092  0.00  0.00     0.055 A 
ATOM     20  C16 <0> d           3.426   1.789   0.786  0.00  0.00     0.040 A 
ATOM     21  C15 <0> d           4.631   1.118   0.875  0.00  0.00     0.061 A 
ATOM     22 Br1  <0> d           3.222   3.478   1.611  0.00  0.00    -0.049 Br
ATOM     23  C14 <0> d           4.784  -0.121   0.272  0.00  0.00     0.103 A 
ATOM     24  C13 <0> d           3.723  -0.691  -0.423  0.00  0.00     0.104 A 
ATOM     25  O4  <0> d           5.980  -0.766   0.366  0.00  0.00    -0.346 OA
ATOM     26  C12 <0> d           2.513  -0.020  -0.508  0.00  0.00     0.070 A 
ATOM     27  O5  <0> d           3.853  -1.909  -1.018  0.00  0.00    -0.346 OA
ATOM     28  C18 <0> d           5.188  -2.383  -1.226  0.00  0.00     0.202 C 
ATOM     29  C17 <0> d           5.982  -2.166   0.069  0.00  0.00     0.202 C 
ENDBRANCH   3  19
TORSDOF 4
