REMARK  5 active torsions:
REMARK  status: ('A' for Active; 'I' for Inactive)
REMARK    1  A    between atoms: C3_3  and  C5_6 
REMARK    2  A    between atoms: C6_8  and  C7_12 
REMARK    3  A    between atoms: C7_12  and  N4_13 
REMARK       I    between atoms: N4_13  and  C8_14 
REMARK    4  A    between atoms: C8_14  and  C9_16 
REMARK    5  A    between atoms: C9_16  and  C10_17 
ROOT
ATOM      1  N4  <0> d           7.773   1.057   1.298  0.00  0.00    -0.354 N 
ATOM      2  C8  <0> d           9.024   0.611   1.526  0.00  0.00     0.220 C 
ATOM      3  O1  <0> d           9.786   0.443   0.597  0.00  0.00    -0.274 OA
ATOM      4  H8  <0> d           7.164   1.191   2.041  0.00  0.00     0.162 HD
ENDROOT
BRANCH   1   5
ATOM      5  C7  <0> d           7.333   1.339  -0.070  0.00  0.00     0.202 C 
BRANCH   5   6
ATOM      6  C6  <0> d           5.906   1.821  -0.050  0.00  0.00     0.140 A 
ATOM      7  N1  <0> d           4.842   1.062  -0.044  0.00  0.00    -0.210 NA
ATOM      8  C5  <0> d           3.740   1.825  -0.024  0.00  0.00     0.188 A 
ATOM      9  N3  <0> d           4.104   3.091  -0.022  0.00  0.00    -0.152 NA
ATOM     10  N2  <0> d           5.508   3.106  -0.033  0.00  0.00    -0.261 N 
ATOM     11  H1  <0> d           6.080   3.890  -0.033  0.00  0.00     0.190 HD
BRANCH   8  12
ATOM     12  C3  <0> d           2.347   1.329  -0.013  0.00  0.00     0.054 A 
ATOM     13  C2  <0> d           1.178   2.041   0.002  0.00  0.00     0.023 A 
ATOM     14  C1  <0> d          -0.016   1.353   0.009  0.00  0.00     0.009 A 
ATOM     15  C4  <0> d           0.002  -0.004   0.002  0.00  0.00     0.050 A 
ATOM     16  S1  <0> d           1.752  -0.354  -0.017  0.00  0.00    -0.098 SA
ENDBRANCH   8  12
ENDBRANCH   5   6
ENDBRANCH   1   5
BRANCH   2  17
ATOM     17  C9  <0> d           9.477   0.320   2.933  0.00  0.00     0.139 C 
BRANCH  17  18
ATOM     18  C10 <0> d          10.926  -0.169   2.913  0.00  0.00     0.164 C 
ATOM     19  O2  <0> d          11.000  -1.428   2.238  0.00  0.00    -0.380 OA
ATOM     20  C16 <0> d          12.280  -2.064   2.280  0.00  0.00     0.173 C 
ATOM     21  C15 <0> d          12.539  -2.566   3.712  0.00  0.00     0.073 C 
ATOM     22  C14 <0> d          12.154  -1.470   4.651  0.00  0.00    -0.007 A 
ATOM     23  C11 <0> d          11.425  -0.360   4.342  0.00  0.00    -0.015 A 
ATOM     24  S2  <0> d          12.510  -1.277   6.373  0.00  0.00    -0.106 SA
ATOM     25  C12 <0> d          11.187   0.536   5.380  0.00  0.00     0.018 A 
ATOM     26  C13 <0> d          11.671   0.282   6.619  0.00  0.00     0.051 A 
ENDBRANCH  17  18
ENDBRANCH   2  17
TORSDOF 5
