REMARK  5 active torsions:
REMARK  status: ('A' for Active; 'I' for Inactive)
REMARK    1  A    between atoms: C6_6  and  C7_7 
REMARK    2  A    between atoms: C7_7  and  N1_8 
REMARK    3  A    between atoms: C12_13  and  C13_14 
REMARK    4  A    between atoms: C13_14  and  N2_15 
REMARK    5  A    between atoms: N2_15  and  C14_16 
ROOT
ATOM      1  N1  <0> d          -1.774  -0.971  -1.496  0.00  0.00    -0.061 N 
ATOM      2  C8  <0> d          -0.747  -1.738  -2.210  0.00  0.00     0.235 C 
ATOM      3  C9  <0> d          -1.224  -2.037  -3.633  0.00  0.00     0.028 C 
ATOM      4  C10 <0> d          -2.520  -2.851  -3.571  0.00  0.00     0.004 C 
ATOM      5  C11 <0> d          -3.561  -2.073  -2.760  0.00  0.00     0.035 C 
ATOM      6  C12 <0> d          -2.997  -1.774  -1.369  0.00  0.00     0.214 C 
ATOM      7  H24 <0> d          -1.979  -0.127  -2.009  0.00  0.00     0.280 HD
ENDROOT
BRANCH   1   8
ATOM      8  C7  <0> d          -1.280  -0.621  -0.158  0.00  0.00     0.273 C 
BRANCH   8   9
ATOM      9  C6  <0> d          -0.105   0.314  -0.285  0.00  0.00    -0.033 A 
ATOM     10  C1  <0> d          -0.308   1.681  -0.315  0.00  0.00     0.010 A 
ATOM     11  C2  <0> d           0.769   2.538  -0.432  0.00  0.00     0.019 A 
ATOM     12  C3  <0> d           2.052   2.028  -0.519  0.00  0.00     0.011 A 
ATOM     13  C4  <0> d           2.256   0.660  -0.489  0.00  0.00     0.019 A 
ATOM     14 Br1  <0> d           3.527   3.200  -0.679  0.00  0.00    -0.051 Br
ATOM     15  C5  <0> d           1.177  -0.197  -0.372  0.00  0.00     0.010 A 
ENDBRANCH   8   9
ENDBRANCH   1   8
BRANCH   6  16
ATOM     16  C13 <0> d          -4.034  -0.997  -0.556  0.00  0.00     0.266 C 
BRANCH  16  17
ATOM     17  N2  <0> d          -4.252   0.319  -1.169  0.00  0.00    -0.069 N 
ATOM     18  H18 <0> d          -3.370   0.803  -1.251  0.00  0.00     0.277 HD
ATOM     19  H25 <0> d          -4.657   0.200  -2.086  0.00  0.00     0.277 HD
BRANCH  17  20
ATOM     20  C14 <0> d          -5.166   1.106  -0.330  0.00  0.00     0.186 A 
ATOM     21  C16 <0> d          -5.429   2.556  -0.738  0.00  0.00     0.035 A 
ATOM     22  C15 <0> d          -6.517   1.498  -0.931  0.00  0.00     0.035 A 
ENDBRANCH  17  20
ENDBRANCH  16  17
ENDBRANCH   6  16
TORSDOF 5
