REMARK  7 active torsions:
REMARK  status: ('A' for Active; 'I' for Inactive)
REMARK    1  A    between atoms: C2_2  and  C3_3 
REMARK    2  A    between atoms: C3_3  and  O1_4 
REMARK    3  A    between atoms: O1_4  and  C4_5 
REMARK    4  A    between atoms: C7_8  and  C12_14 
REMARK    5  A    between atoms: C9_10  and  O2_11 
REMARK    6  A    between atoms: O2_11  and  C10_12 
REMARK    7  A    between atoms: C16_20  and  N3_24 
ROOT
ATOM      1  C4  <0> d          -1.407   5.002   2.404  0.00  0.00     0.102 A 
ATOM      2  C5  <0> d          -2.023   5.620   3.483  0.00  0.00     0.040 A 
ATOM      3  C6  <0> d          -2.583   4.862   4.489  0.00  0.00     0.018 A 
ATOM      4  C7  <0> d          -2.532   3.468   4.424  0.00  0.00     0.013 A 
ATOM      5  C8  <0> d          -1.917   2.845   3.336  0.00  0.00     0.055 A 
ATOM      6  C9  <0> d          -1.352   3.612   2.333  0.00  0.00     0.102 A 
ENDROOT
BRANCH   4   7
ATOM      7  C12 <0> d          -3.132   2.654   5.501  0.00  0.00     0.139 A 
ATOM      8  N2  <0> d          -3.139   1.343   5.541  0.00  0.00    -0.228 NA
ATOM      9  C18 <0> d          -3.770   0.924   6.665  0.00  0.00     0.088 A 
ATOM     10  C13 <0> d          -4.178   2.073   7.365  0.00  0.00     0.063 A 
ATOM     11  C17 <0> d          -4.053  -0.340   7.191  0.00  0.00     0.063 A 
ATOM     12  N1  <0> d          -3.758   3.154   6.611  0.00  0.00    -0.338 N 
ATOM     13  C14 <0> d          -4.857   1.949   8.569  0.00  0.00     0.034 A 
ATOM     14  H1  <0> d          -3.841   4.242   6.751  0.00  0.00     0.167 HD
ATOM     15  C15 <0> d          -5.131   0.698   9.079  0.00  0.00     0.031 A 
ATOM     16  C16 <0> d          -4.730  -0.447   8.392  0.00  0.00     0.028 A 
BRANCH  16  17
ATOM     17  N3  <0> d          -5.015  -1.711   8.920  0.00  0.00    -0.399 N 
ATOM     18  H20 <0> d          -4.699  -2.616   8.380  0.00  0.00     0.156 HD
ATOM     19  H21 <0> d          -5.554  -1.799   9.874  0.00  0.00     0.156 HD
ENDBRANCH  16  17
ENDBRANCH   4   7
BRANCH   6  20
ATOM     20  O2  <0> d          -0.748   3.008   1.275  0.00  0.00    -0.349 OA
BRANCH  20  21
ATOM     21  C10 <0> d          -0.729   1.579   1.267  0.00  0.00     0.171 C 
ATOM     22  C11 <0> d          -0.013   1.086   0.008  0.00  0.00     0.034 C 
ENDBRANCH  20  21
ENDBRANCH   6  20
BRANCH   1  23
ATOM     23  O1  <0> d          -0.856   5.754   1.415  0.00  0.00    -0.348 OA
BRANCH  23  24
ATOM     24  C3  <0> d          -0.948   7.173   1.552  0.00  0.00     0.175 C 
BRANCH  24  25
ATOM     25  C2  <0> d          -0.278   7.845   0.352  0.00  0.00     0.022 C 
ATOM     26  C1  <0> d          -0.376   9.365   0.498  0.00  0.00     0.007 C 
ENDBRANCH  24  25
ENDBRANCH  23  24
ENDBRANCH   1  23
TORSDOF 7
