REMARK  3 active torsions:
REMARK  status: ('A' for Active; 'I' for Inactive)
REMARK    1  A    between atoms: N1_7  and  S1_8 
REMARK    2  A    between atoms: S1_8  and  C7_11 
REMARK    3  A    between atoms: C7_11  and  C8_12 
ROOT
ATOM      1  S1  <0> d           3.201  -0.163   2.493  0.00  0.00     0.229 S 
ATOM      2  O1  <0> d           2.747  -1.250   3.287  0.00  0.00    -0.206 OA
ATOM      3  O2  <0> d           4.429  -0.249   1.782  0.00  0.00    -0.206 OA
ENDROOT
BRANCH   1   4
ATOM      4  N1  <0> d           2.046   0.015   1.319  0.00  0.00    -0.306 N 
ATOM      5  C3  <0> d           2.240   0.596  -0.040  0.00  0.00     0.096 C 
ATOM      6  C2  <0> d           1.475   1.955  -0.002  0.00  0.00     0.026 C 
ATOM      7  C4  <0> d           1.258  -0.269  -0.905  0.00  0.00     0.032 C 
ATOM      8  C1  <0> d          -0.019   1.556   0.011  0.00  0.00     0.008 C 
ATOM      9  C5  <0> d           0.002  -0.004   0.002  0.00  0.00     0.006 C 
ATOM     10  C6  <0> d           0.606  -0.380   1.391  0.00  0.00     0.140 C 
ENDBRANCH   1   4
BRANCH   1  11
ATOM     11  C7  <0> d           3.138   1.378   3.448  0.00  0.00     0.168 C 
BRANCH  11  12
ATOM     12  C8  <0> d           4.175   1.324   4.572  0.00  0.00     0.004 C 
ATOM     13  C12 <0> d           4.038   2.569   5.454  0.00  0.00     0.033 C 
ATOM     14  C11 <0> d           5.128   2.548   6.527  0.00  0.00     0.232 C 
ATOM     15  N2  <0> d           6.449   2.542   5.888  0.00  0.00    -0.075 N 
ATOM     16  C10 <0> d           6.615   1.317   5.097  0.00  0.00     0.232 C 
ATOM     17  H18 <0> d           7.166   2.583   6.598  0.00  0.00     0.277 HD
ATOM     18  H23 <0> d           6.533   3.345   5.283  0.00  0.00     0.277 HD
ATOM     19  C9  <0> d           5.582   1.290   3.969  0.00  0.00     0.033 C 
ENDBRANCH  11  12
ENDBRANCH   1  11
TORSDOF 3
