REMARK  5 active torsions:
REMARK  status: ('A' for Active; 'I' for Inactive)
REMARK    1  A    between atoms: C3_4  and  C4_7 
REMARK    2  A    between atoms: C4_7  and  C5_8 
REMARK    3  A    between atoms: C5_8  and  C6_9 
REMARK    4  A    between atoms: C6_9  and  C7_10 
REMARK       I    between atoms: C7_10  and  N3_12 
REMARK    5  A    between atoms: N3_12  and  C8_13 
ROOT
ATOM      1  C7  <0> d           2.920  -5.144  -3.309  0.00  0.00     0.218 C 
ATOM      2  O2  <0> d           3.836  -4.519  -2.818  0.00  0.00    -0.274 OA
ATOM      3  N3  <0> d           3.177  -6.171  -4.144  0.00  0.00    -0.351 N 
ATOM      4  H10 <0> d           2.444  -6.671  -4.537  0.00  0.00     0.163 HD
ENDROOT
BRANCH   1   5
ATOM      5  C6  <0> d           1.496  -4.773  -2.987  0.00  0.00     0.103 C 
BRANCH   5   6
ATOM      6  C5  <0> d           1.484  -3.583  -2.025  0.00  0.00     0.017 C 
BRANCH   6   7
ATOM      7  C4  <0> d           0.038  -3.206  -1.697  0.00  0.00     0.089 C 
BRANCH   7   8
ATOM      8  C3  <0> d           0.026  -2.034  -0.750  0.00  0.00     0.172 A 
ATOM      9  N1  <0> d           0.008  -0.776  -1.091  0.00  0.00    -0.209 NA
ATOM     10  C2  <0> d           0.002  -0.004   0.002  0.00  0.00     0.152 A 
ATOM     11  C1  <0> d          -0.018   1.503   0.010  0.00  0.00     0.096 C 
ATOM     12  N2  <0> d           0.023  -0.767   1.057  0.00  0.00    -0.112 NA
ATOM     13  O1  <0> d           0.033  -2.107   0.587  0.00  0.00    -0.196 OA
ENDBRANCH   7   8
ENDBRANCH   6   7
ENDBRANCH   5   6
ENDBRANCH   1   5
BRANCH   3  14
ATOM     14  C8  <0> d           4.562  -6.532  -4.457  0.00  0.00     0.043 C 
ATOM     15  C11 <0> d           4.553  -7.730  -5.426  0.00  0.00     0.170 C 
ATOM     16  S1  <0> d           5.581  -7.141  -6.835  0.00  0.00     0.146 S 
ATOM     17  C10 <0> d           6.414  -5.731  -5.981  0.00  0.00     0.143 C 
ATOM     18  O3  <0> d           4.731  -6.633  -7.854  0.00  0.00    -0.228 OA
ATOM     19  O4  <0> d           6.549  -8.131  -7.154  0.00  0.00    -0.228 OA
ATOM     20  C9  <0> d           5.274  -5.301  -5.017  0.00  0.00     0.046 C 
ATOM     21  C12 <0> d           5.262  -6.953  -3.163  0.00  0.00     0.039 C 
ENDBRANCH   3  14
TORSDOF 5
