REMARK  7 active torsions:
REMARK  status: ('A' for Active; 'I' for Inactive)
REMARK    1  A    between atoms: C2_2  and  C5_5 
REMARK    2  A    between atoms: C5_5  and  N1_6 
REMARK    3  A    between atoms: N1_6  and  C7_8 
REMARK    4  A    between atoms: C7_8  and  C8_9 
REMARK    5  A    between atoms: C7_8  and  C9_11 
REMARK    6  A    between atoms: C8_9  and  N2_10 
REMARK    7  A    between atoms: C12_14  and  O1_18 
ROOT
ATOM      1  C7  <0> d           2.235  -0.296  -2.563  0.00  0.00     0.280 C 
ENDROOT
BRANCH   1   2
ATOM      2  N1  <0> d           1.414   0.686  -1.842  0.00  0.00     0.095 N 
ATOM      3  C6  <0> d           1.435   1.989  -2.521  0.00  0.00     0.310 C 
BRANCH   2   4
ATOM      4  C5  <0> d           0.037   0.201  -1.677  0.00  0.00     0.281 C 
BRANCH   4   5
ATOM      5  C2  <0> d          -0.118  -0.430  -0.291  0.00  0.00    -0.025 C 
ATOM      6  C1  <0> d           0.037   0.650   0.781  0.00  0.00     0.016 C 
ATOM      7  C3  <0> d           0.956  -1.501  -0.096  0.00  0.00     0.016 C 
ATOM      8  C4  <0> d          -1.503  -1.069  -0.175  0.00  0.00     0.016 C 
ENDBRANCH   4   5
ENDBRANCH   2   4
ENDBRANCH   1   2
BRANCH   1   9
ATOM      9  C8  <0> d           2.042  -0.114  -4.070  0.00  0.00     0.270 C 
BRANCH   9  10
ATOM     10  N2  <0> d           0.632  -0.341  -4.414  0.00  0.00    -0.077 N 
ATOM     11  H18 <0> d           0.352  -1.257  -4.098  0.00  0.00     0.274 HD
ATOM     12  H19 <0> d           0.060   0.359  -3.966  0.00  0.00     0.274 HD
ATOM     13  H26 <0> d           0.516  -0.280  -5.415  0.00  0.00     0.274 HD
ENDBRANCH   9  10
ENDBRANCH   1   9
BRANCH   1  14
ATOM     14  C9  <0> d           3.686  -0.091  -2.214  0.00  0.00    -0.022 A 
ATOM     15  C14 <0> d           4.592  -1.120  -2.395  0.00  0.00     0.031 A 
ATOM     16  C13 <0> d           5.925  -0.932  -2.081  0.00  0.00     0.044 A 
ATOM     17  C12 <0> d           6.351   0.287  -1.572  0.00  0.00     0.085 A 
ATOM     18 Br1  <0> d           7.165  -2.336  -2.337  0.00  0.00    -0.048 Br
ATOM     19  C11 <0> d           5.439   1.315  -1.386  0.00  0.00     0.039 A 
ATOM     20  C10 <0> d           4.109   1.124  -1.707  0.00  0.00     0.012 A 
BRANCH  17  21
ATOM     21  O1  <0> d           7.660   0.473  -1.258  0.00  0.00    -0.355 OA
ATOM     22  C15 <0> d           8.027   1.753  -0.740  0.00  0.00     0.210 C 
ENDBRANCH  17  21
ENDBRANCH   1  14
TORSDOF 7
