REMARK  8 active torsions:
REMARK  status: ('A' for Active; 'I' for Inactive)
REMARK    1  A    between atoms: C4_4  and  N1_7 
REMARK    2  A    between atoms: C7_8  and  C17_23 
REMARK    3  A    between atoms: C8_11  and  S1_12 
REMARK    4  A    between atoms: S1_12  and  C9_13 
REMARK    5  A    between atoms: C9_13  and  C10_14 
REMARK    6  A    between atoms: C10_14  and  C11_15 
REMARK    7  A    between atoms: C10_14  and  O1_22 
REMARK    8  A    between atoms: C17_23  and  N4_24 
ROOT
ATOM      1  N1  <0> d           3.624  -0.653  -0.036  0.00  0.00    -0.274 N 
ATOM      2  C7  <0> d           4.115  -1.449  -1.037  0.00  0.00     0.161 A 
ATOM      3  N2  <0> d           5.279  -1.886  -0.648  0.00  0.00    -0.132 NA
ATOM      4  N3  <0> d           5.558  -1.426   0.519  0.00  0.00    -0.122 NA
ATOM      5  C8  <0> d           4.580  -0.658   0.942  0.00  0.00     0.196 A 
ENDROOT
BRANCH   5   6
ATOM      6  S1  <0> d           4.512   0.200   2.479  0.00  0.00    -0.087 SA
BRANCH   6   7
ATOM      7  C9  <0> d           6.076  -0.229   3.291  0.00  0.00     0.119 C 
BRANCH   7   8
ATOM      8  C10 <0> d           6.148   0.459   4.656  0.00  0.00     0.160 C 
BRANCH   8   9
ATOM      9  C11 <0> d           7.447   0.103   5.331  0.00  0.00    -0.029 A 
ATOM     10  C16 <0> d           7.495  -0.948   6.227  0.00  0.00     0.013 A 
ATOM     11  C15 <0> d           8.687  -1.279   6.843  0.00  0.00     0.043 A 
ATOM     12  C14 <0> d           9.832  -0.551   6.569  0.00  0.00     0.116 A 
ATOM     13  C13 <0> d           9.782   0.505   5.675  0.00  0.00     0.043 A 
ATOM     14  F1  <0> d          10.997  -0.870   7.174  0.00  0.00    -0.206 F 
ATOM     15  C12 <0> d           8.590   0.831   5.057  0.00  0.00     0.013 A 
ENDBRANCH   8   9
BRANCH   8  16
ATOM     16  O1  <0> d           6.076   1.876   4.479  0.00  0.00    -0.390 OA
ATOM     17  H13 <0> d           6.788   2.241   3.937  0.00  0.00     0.210 HD
ENDBRANCH   8  16
ENDBRANCH   7   8
ENDBRANCH   6   7
ENDBRANCH   5   6
BRANCH   1  18
ATOM     18  C4  <0> d           2.399   0.031  -0.021  0.00  0.00     0.043 A 
ATOM     19  C3  <0> d           2.377   1.419  -0.013  0.00  0.00     0.030 A 
ATOM     20  C2  <0> d           1.170   2.089   0.002  0.00  0.00     0.002 A 
ATOM     21  C1  <0> d          -0.017   1.379   0.010  0.00  0.00     0.000 A 
ATOM     22  C6  <0> d           0.002  -0.004   0.002  0.00  0.00     0.002 A 
ATOM     23  C5  <0> d           1.207  -0.680  -0.013  0.00  0.00     0.030 A 
ENDBRANCH   1  18
BRANCH   2  24
ATOM     24  C17 <0> d           3.434  -1.762  -2.345  0.00  0.00     0.315 C 
BRANCH  24  25
ATOM     25  N4  <0> d           3.819  -0.762  -3.349  0.00  0.00    -0.064 N 
ATOM     26  C21 <0> d           3.068  -0.983  -4.604  0.00  0.00     0.235 C 
ATOM     27  C20 <0> d           4.018  -0.637  -5.766  0.00  0.00     0.029 C 
ATOM     28  C19 <0> d           5.351  -0.239  -5.093  0.00  0.00     0.029 C 
ATOM     29  C18 <0> d           5.254  -0.917  -3.703  0.00  0.00     0.235 C 
ATOM     30  H24 <0> d           3.645   0.169  -2.999  0.00  0.00     0.280 HD
ENDBRANCH  24  25
ENDBRANCH   2  24
TORSDOF 8
