REMARK  6 active torsions:
REMARK  status: ('A' for Active; 'I' for Inactive)
REMARK    1  A    between atoms: C2_2  and  N1_4 
REMARK    2  A    between atoms: N1_4  and  C4_5 
REMARK       I    between atoms: N1_4  and  C7_8 
REMARK    3  A    between atoms: C7_8  and  C8_10 
REMARK    4  A    between atoms: C8_10  and  S1_11 
REMARK    5  A    between atoms: S1_11  and  C9_12 
REMARK    6  A    between atoms: C12_17  and  N4_19 
ROOT
ATOM      1  S1  <0> d          -3.406   0.152   3.135  0.00  0.00    -0.081 SA
ENDROOT
BRANCH   1   2
ATOM      2  C8  <0> d          -1.985   0.254   2.011  0.00  0.00     0.185 C 
BRANCH   2   3
ATOM      3  C7  <0> d          -2.248  -0.590   0.791  0.00  0.00     0.230 C 
ATOM      4  N1  <0> d          -1.221  -1.168   0.137  0.00  0.00    -0.344 N 
ATOM      5  O1  <0> d          -3.385  -0.750   0.398  0.00  0.00    -0.273 OA
BRANCH   4   6
ATOM      6  C2  <0> d           0.158  -0.798   0.466  0.00  0.00     0.079 C 
ATOM      7  C1  <0> d           0.241   0.713   0.689  0.00  0.00     0.032 C 
ATOM      8  C3  <0> d           0.590  -1.526   1.740  0.00  0.00     0.032 C 
ENDBRANCH   4   6
BRANCH   4   9
ATOM      9  C4  <0> d          -1.484  -2.165  -0.904  0.00  0.00     0.079 C 
ATOM     10  C5  <0> d          -0.903  -1.679  -2.234  0.00  0.00     0.032 C 
ATOM     11  C6  <0> d          -0.828  -3.491  -0.516  0.00  0.00     0.032 C 
ENDBRANCH   4   9
ENDBRANCH   2   3
ENDBRANCH   1   2
BRANCH   1  12
ATOM     12  C9  <0> d          -2.950   1.178   4.493  0.00  0.00     0.193 A 
ATOM     13  N3  <0> d          -3.823   1.296   5.494  0.00  0.00    -0.209 NA
ATOM     14  C12 <0> d          -3.579   2.031   6.555  0.00  0.00     0.109 A 
ATOM     15  C11 <0> d          -2.253   2.768   6.606  0.00  0.00     0.183 A 
ATOM     16  C10 <0> d          -1.336   2.570   5.413  0.00  0.00     0.252 A 
ATOM     17  N2  <0> d          -1.771   1.775   4.436  0.00  0.00    -0.187 NA
ATOM     18  O2  <0> d          -0.251   3.114   5.351  0.00  0.00    -0.271 OA
BRANCH  14  19
ATOM     19  N4  <0> d          -4.476   2.131   7.560  0.00  0.00    -0.387 N 
ATOM     20  H19 <0> d          -4.279   2.683   8.333  0.00  0.00     0.157 HD
ATOM     21  H20 <0> d          -5.318   1.652   7.508  0.00  0.00     0.157 HD
ENDBRANCH  14  19
ENDBRANCH   1  12
TORSDOF 6
