REMARK  3 active torsions:
REMARK  status: ('A' for Active; 'I' for Inactive)
REMARK    1  A    between atoms: C2_3  and  N3_11 
REMARK    2  A    between atoms: N3_11  and  N4_12 
REMARK    3  A    between atoms: C7_13  and  C8_14 
ROOT
ATOM      1  N3  <0> d           1.375   0.228   2.824  0.00  0.00    -0.263 N 
ATOM      2  H8  <0> d           1.889  -0.213   2.130  0.00  0.00     0.190 HD
ENDROOT
BRANCH   1   3
ATOM      3  C2  <0> d           0.010   0.093   2.857  0.00  0.00     0.132 A 
ATOM      4  N1  <0> d          -0.625  -0.747   1.974  0.00  0.00    -0.288 N 
ATOM      5  C1  <0> d           0.159  -1.502   0.993  0.00  0.00     0.163 C 
ATOM      6  C5  <0> d          -1.965  -0.876   2.001  0.00  0.00     0.332 A 
ATOM      7  N2  <0> d          -2.708  -0.198   2.894  0.00  0.00    -0.271 N 
ATOM      8  O2  <0> d          -2.511  -1.620   1.209  0.00  0.00    -0.246 OA
ATOM      9  C4  <0> d          -2.126   0.636   3.778  0.00  0.00     0.254 A 
ATOM     10  C6  <0> d          -4.163  -0.364   2.903  0.00  0.00     0.164 C 
ATOM     11  C3  <0> d          -0.731   0.794   3.768  0.00  0.00     0.124 A 
ATOM     12  O1  <0> d          -2.807   1.251   4.581  0.00  0.00    -0.268 OA
ENDBRANCH   1   3
BRANCH   1  13
ATOM     13  N4  <0> d           2.026   1.002   3.793  0.00  0.00    -0.185 NA
ATOM     14  C7  <0> d           3.301   1.224   3.697  0.00  0.00     0.151 C 
BRANCH  14  15
ATOM     15  C8  <0> d           4.024   0.855   2.466  0.00  0.00     0.005 A 
ATOM     16  C13 <0> d           5.386   0.547   2.518  0.00  0.00     0.047 A 
ATOM     17  C12 <0> d           6.055   0.197   1.361  0.00  0.00     0.048 A 
ATOM     18 Cl1  <0> d           6.234   0.599   4.032  0.00  0.00    -0.083 Cl
ATOM     19  C11 <0> d           5.381   0.161   0.153  0.00  0.00     0.035 A 
ATOM     20  C10 <0> d           4.032   0.470   0.095  0.00  0.00     0.025 A 
ATOM     21 Cl2  <0> d           6.230  -0.274  -1.297  0.00  0.00    -0.084 Cl
ATOM     22  C9  <0> d           3.350   0.816   1.243  0.00  0.00     0.016 A 
ENDBRANCH  14  15
ENDBRANCH   1  13
TORSDOF 3
