REMARK  8 active torsions:
REMARK  status: ('A' for Active; 'I' for Inactive)
REMARK    1  A    between atoms: C5_5  and  N1_8 
REMARK       I    between atoms: N1_8  and  C8_9 
REMARK    2  A    between atoms: C8_9  and  C9_11 
REMARK    3  A    between atoms: C9_11  and  C10_12 
REMARK    4  A    between atoms: N3_17  and  N4_18 
REMARK    5  A    between atoms: C13_19  and  C14_20 
REMARK    6  A    between atoms: C17_23  and  O5_30 
REMARK    7  A    between atoms: C18_24  and  O4_28 
REMARK    8  A    between atoms: C19_25  and  C20_26 
ROOT
ATOM      1  C10 <0> d           0.946  -2.277  -0.121  0.00  0.00     0.156 A 
ATOM      2  C11 <0> d           2.212  -3.096  -0.317  0.00  0.00     0.238 A 
ATOM      3  O2  <0> d           3.133  -3.057   0.472  0.00  0.00    -0.272 OA
ATOM      4  N2  <0> d           2.246  -3.852  -1.400  0.00  0.00    -0.304 N 
ATOM      5  C12 <0> d           1.204  -3.900  -2.300  0.00  0.00     0.191 A 
ATOM      6  N3  <0> d           1.118  -4.608  -3.409  0.00  0.00    -0.125 NA
ATOM      7  S1  <0> d          -0.003  -2.778  -1.612  0.00  0.00    -0.075 SA
ATOM      8  H12 <0> d           3.034  -4.394  -1.568  0.00  0.00     0.171 HD
ENDROOT
BRANCH   6   9
ATOM      9  N4  <0> d           2.093  -5.377  -3.761  0.00  0.00    -0.159 NA
ATOM     10  C13 <0> d           2.008  -6.078  -4.861  0.00  0.00     0.153 C 
BRANCH  10  11
ATOM     11  C14 <0> d           3.116  -6.952  -5.261  0.00  0.00     0.003 A 
ATOM     12  C19 <0> d           4.281  -7.034  -4.464  0.00  0.00     0.088 A 
ATOM     13  C18 <0> d           5.327  -7.876  -4.858  0.00  0.00     0.119 A 
ATOM     14  C17 <0> d           5.216  -8.614  -6.032  0.00  0.00     0.102 A 
ATOM     15  C16 <0> d           4.072  -8.524  -6.812  0.00  0.00     0.040 A 
ATOM     16  C15 <0> d           3.029  -7.703  -6.436  0.00  0.00     0.017 A 
BRANCH  12  17
ATOM     17  C20 <0> d           4.390  -6.245  -3.229  0.00  0.00     0.213 C 
ATOM     18  O3  <0> d           4.007  -6.712  -2.174  0.00  0.00    -0.644 OA
ATOM     19  O6  <0> d           4.915  -5.003  -3.266  0.00  0.00    -0.644 OA
ENDBRANCH  12  17
BRANCH  13  20
ATOM     20  O4  <0> d           6.450  -7.968  -4.101  0.00  0.00    -0.352 OA
ATOM     21  C21 <0> d           7.506  -7.051  -4.392  0.00  0.00     0.210 C 
ENDBRANCH  13  20
BRANCH  14  22
ATOM     22  O5  <0> d           6.235  -9.428  -6.418  0.00  0.00    -0.353 OA
ATOM     23  C22 <0> d           6.057 -10.158  -7.634  0.00  0.00     0.210 C 
ENDBRANCH  14  22
ENDBRANCH  10  11
ENDBRANCH   6   9
BRANCH   1  24
ATOM     24  C9  <0> d           1.249  -0.777  -0.135  0.00  0.00     0.128 C 
BRANCH  24  25
ATOM     25  C8  <0> d          -0.038  -0.004  -0.003  0.00  0.00     0.223 C 
ATOM     26  N1  <0> d          -0.016   1.344   0.009  0.00  0.00    -0.327 N 
ATOM     27  H9  <0> d           0.832   1.815   0.001  0.00  0.00     0.169 HD
ATOM     28  O1  <0> d          -1.093  -0.594   0.093  0.00  0.00    -0.273 OA
BRANCH  26  29
ATOM     29  C5  <0> d          -1.216   2.062   0.029  0.00  0.00     0.034 A 
ATOM     30  C4  <0> d          -2.312   1.570   0.726  0.00  0.00     0.030 A 
ATOM     31  C3  <0> d          -3.495   2.282   0.743  0.00  0.00     0.009 A 
ATOM     32  C2  <0> d          -3.590   3.484   0.066  0.00  0.00    -0.062 A 
ATOM     33  C1  <0> d          -4.883   4.258   0.086  0.00  0.00     0.048 C 
ATOM     34  C7  <0> d          -2.502   3.977  -0.630  0.00  0.00     0.009 A 
ATOM     35  C6  <0> d          -1.313   3.273  -0.645  0.00  0.00     0.030 A 
ENDBRANCH  26  29
ENDBRANCH  24  25
ENDBRANCH   1  24
TORSDOF 8
