REMARK  4 active torsions:
REMARK  status: ('A' for Active; 'I' for Inactive)
REMARK    1  A    between atoms: C2_2  and  N1_3 
REMARK    2  A    between atoms: C8_10  and  N4_12 
REMARK    3  A    between atoms: C11_15  and  C14_18 
REMARK    4  A    between atoms: C14_18  and  N5_19 
ROOT
ATOM      1  N1  <0> d          -1.376  -0.512   0.012  0.00  0.00    -0.067 N 
ATOM      2  C3  <0> d          -2.025  -0.148   1.281  0.00  0.00     0.241 C 
ATOM      3  C4  <0> d          -3.528  -0.407   1.156  0.00  0.00     0.088 C 
ATOM      4  C5  <0> d          -3.759  -1.805   0.646  0.00  0.00     0.065 A 
ATOM      5  C6  <0> d          -2.747  -2.530   0.050  0.00  0.00     0.018 A 
ATOM      6  C7  <0> d          -3.026  -3.812  -0.403  0.00  0.00     0.059 A 
ATOM      7  N2  <0> d          -4.245  -4.300  -0.249  0.00  0.00    -0.067 NA
ATOM      8  C8  <0> d          -5.194  -3.579   0.329  0.00  0.00     0.725 A 
ATOM      9  N3  <0> d          -4.960  -2.352   0.770  0.00  0.00    -0.067 NA
ATOM     10  C15 <0> d          -1.952  -4.638  -1.063  0.00  0.00     0.072 C 
ATOM     11  C16 <0> d          -1.361  -1.973  -0.116  0.00  0.00     0.277 C 
ATOM     12  H29 <0> d          -1.889  -0.112  -0.758  0.00  0.00     0.280 HD
ENDROOT
BRANCH   8  13
ATOM     13  N4  <0> d          -6.460  -4.120   0.476  0.00  0.00    -0.214 N 
ATOM     14  C13 <0> d          -6.754  -5.478  -0.003  0.00  0.00     0.141 C 
ATOM     15  C12 <0> d          -7.360  -6.283   1.156  0.00  0.00     0.027 C 
ATOM     16  C11 <0> d          -8.575  -5.535   1.709  0.00  0.00     0.014 C 
ATOM     17  C10 <0> d          -8.136  -4.172   2.249  0.00  0.00     0.027 C 
ATOM     18  C9  <0> d          -7.537  -3.345   1.107  0.00  0.00     0.141 C 
BRANCH  16  19
ATOM     19  C14 <0> d          -9.206  -6.352   2.839  0.00  0.00     0.234 C 
BRANCH  19  20
ATOM     20  N5  <0> d          -9.735  -7.610   2.297  0.00  0.00    -0.079 N 
ATOM     21  H21 <0> d         -10.151  -8.149   3.043  0.00  0.00     0.274 HD
ATOM     22  H22 <0> d         -10.434  -7.408   1.599  0.00  0.00     0.274 HD
ATOM     23  H28 <0> d          -8.985  -8.139   1.879  0.00  0.00     0.274 HD
ENDBRANCH  19  20
ENDBRANCH  16  19
ENDBRANCH   8  13
BRANCH   1  24
ATOM     24  C2  <0> d           0.002  -0.004   0.002  0.00  0.00     0.231 C 
ATOM     25  C1  <0> d          -0.019   1.526   0.010  0.00  0.00     0.034 C 
ENDBRANCH   1  24
TORSDOF 4
