REMARK  5 active torsions:
REMARK  status: ('A' for Active; 'I' for Inactive)
REMARK    1  A    between atoms: C4_4  and  S2_20 
REMARK    2  A    between atoms: C5_5  and  N1_7 
REMARK       I    between atoms: N1_7  and  C7_8 
REMARK    3  A    between atoms: C7_8  and  C8_10 
REMARK       I    between atoms: C8_10  and  N2_12 
REMARK    4  A    between atoms: N2_12  and  C9_13 
REMARK    5  A    between atoms: S2_20  and  C13_21 
ROOT
ATOM      1  N1  <0> d           1.234  -2.080  -0.021  0.00  0.00    -0.318 N 
ATOM      2  C7  <0> d           0.083  -2.772   0.088  0.00  0.00     0.314 C 
ATOM      3  O1  <0> d          -0.979  -2.185   0.102  0.00  0.00    -0.262 OA
ATOM      4  H5  <0> d           2.077  -2.551  -0.113  0.00  0.00     0.169 HD
ENDROOT
BRANCH   2   5
ATOM      5  C8  <0> d           0.115  -4.261   0.191  0.00  0.00     0.310 C 
ATOM      6  O2  <0> d           1.177  -4.848   0.177  0.00  0.00    -0.262 OA
ATOM      7  N2  <0> d          -1.037  -4.954   0.300  0.00  0.00    -0.347 N 
ATOM      8  H6  <0> d          -1.886  -4.485   0.311  0.00  0.00     0.163 HD
BRANCH   7   9
ATOM      9  C9  <0> d          -1.006  -6.415   0.402  0.00  0.00     0.099 C 
ATOM     10  C12 <0> d          -2.348  -6.994  -0.106  0.00  0.00     0.165 C 
ATOM     11  S1  <0> d          -2.553  -8.504   0.924  0.00  0.00     0.146 S 
ATOM     12  C11 <0> d          -1.065  -8.344   1.998  0.00  0.00     0.142 C 
ATOM     13  O3  <0> d          -3.719  -8.362   1.724  0.00  0.00    -0.228 OA
ATOM     14  O4  <0> d          -2.406  -9.651   0.098  0.00  0.00    -0.228 OA
ATOM     15  C10 <0> d          -0.782  -6.820   1.868  0.00  0.00     0.041 C 
ENDBRANCH   7   9
ENDBRANCH   2   5
BRANCH   1  16
ATOM     16  C5  <0> d           1.214  -0.681  -0.002  0.00  0.00     0.052 A 
ATOM     17  C4  <0> d           2.242   0.042  -0.609  0.00  0.00     0.032 A 
ATOM     18  C3  <0> d           2.215   1.430  -0.586  0.00  0.00     0.021 A 
ATOM     19  C2  <0> d           1.172   2.090   0.036  0.00  0.00     0.002 A 
ATOM     20  C1  <0> d           0.153   1.373   0.636  0.00  0.00     0.002 A 
ATOM     21  C6  <0> d           0.171  -0.009   0.619  0.00  0.00     0.031 A 
BRANCH  17  22
ATOM     22  S2  <0> d           3.570  -0.803  -1.401  0.00  0.00    -0.059 SA
BRANCH  22  23
ATOM     23  C13 <0> d           4.630   0.531  -2.023  0.00  0.00     0.420 C 
ATOM     24  F1  <0> d           3.903   1.326  -2.917  0.00  0.00    -0.202 F 
ATOM     25  F2  <0> d           5.069   1.317  -0.952  0.00  0.00    -0.202 F 
ENDBRANCH  22  23
ENDBRANCH  17  22
ENDBRANCH   1  16
TORSDOF 5
