REMARK  7 active torsions:
REMARK  status: ('A' for Active; 'I' for Inactive)
REMARK    1  A    between atoms: C2_2  and  O1_3 
REMARK    2  A    between atoms: O1_3  and  C3_4 
REMARK    3  A    between atoms: C5_6  and  C13_19 
REMARK    4  A    between atoms: C8_9  and  O2_10 
REMARK    5  A    between atoms: O2_10  and  C9_11 
REMARK    6  A    between atoms: C9_11  and  C10_12 
REMARK    7  A    between atoms: C13_19  and  N3_20 
ROOT
ATOM      1  C3  <0> d          -1.498  -1.849   0.006  0.00  0.00     0.103 A 
ATOM      2  C4  <0> d          -0.389  -2.680  -0.003  0.00  0.00     0.048 A 
ATOM      3  C5  <0> d          -0.553  -4.052  -0.009  0.00  0.00    -0.029 A 
ATOM      4  C6  <0> d          -1.822  -4.600  -0.006  0.00  0.00     0.030 A 
ATOM      5  C7  <0> d          -2.934  -3.777   0.003  0.00  0.00     0.047 A 
ATOM      6  C8  <0> d          -2.776  -2.400   0.016  0.00  0.00     0.119 A 
ATOM      7 Br1  <0> d          -4.668  -4.531   0.006  0.00  0.00    -0.048 Br
ENDROOT
BRANCH   6   8
ATOM      8  O2  <0> d          -3.868  -1.589   0.030  0.00  0.00    -0.339 OA
BRANCH   8   9
ATOM      9  C9  <0> d          -4.401  -1.195  -1.236  0.00  0.00     0.264 C 
BRANCH   9  10
ATOM     10  C10 <0> d          -5.598  -0.305  -1.022  0.00  0.00     0.197 A 
ATOM     11  O3  <0> d          -6.868  -0.713  -0.910  0.00  0.00    -0.194 OA
ATOM     12  N2  <0> d          -7.646   0.459  -0.717  0.00  0.00    -0.112 NA
ATOM     13  C11 <0> d          -6.815   1.462  -0.735  0.00  0.00     0.152 A 
ATOM     14  N1  <0> d          -5.576   0.995  -0.920  0.00  0.00    -0.207 NA
ATOM     15  C12 <0> d          -7.190   2.913  -0.574  0.00  0.00     0.096 C 
ENDBRANCH   9  10
ENDBRANCH   8   9
ENDBRANCH   6   8
BRANCH   1  16
ATOM     16  O1  <0> d          -1.339  -0.499   0.012  0.00  0.00    -0.349 OA
BRANCH  16  17
ATOM     17  C2  <0> d           0.002  -0.004   0.002  0.00  0.00     0.171 C 
ATOM     18  C1  <0> d          -0.019   1.526   0.010  0.00  0.00     0.034 C 
ENDBRANCH  16  17
ENDBRANCH   1  16
BRANCH   3  19
ATOM     19  C13 <0> d           0.655  -4.954  -0.020  0.00  0.00     0.268 C 
BRANCH  19  20
ATOM     20  N3  <0> d           1.054  -5.253   1.362  0.00  0.00    -0.075 N 
ATOM     21  H15 <0> d           1.280  -4.394   1.841  0.00  0.00     0.274 HD
ATOM     22  H16 <0> d           0.294  -5.715   1.839  0.00  0.00     0.274 HD
ATOM     23  H17 <0> d           1.863  -5.857   1.355  0.00  0.00     0.274 HD
ENDBRANCH  19  20
ENDBRANCH   3  19
TORSDOF 7
