REMARK  6 active torsions:
REMARK  status: ('A' for Active; 'I' for Inactive)
REMARK    1  A    between atoms: C2_2  and  C4_4 
REMARK    2  A    between atoms: C7_7  and  N1_10 
REMARK    3  A    between atoms: C10_11  and  C16_23 
REMARK    4  A    between atoms: C12_14  and  S1_15 
REMARK    5  A    between atoms: S1_15  and  C13_16 
REMARK    6  A    between atoms: C13_16  and  C14_17 
REMARK       I    between atoms: C14_17  and  N3_19 
REMARK       I    between atoms: N3_19  and  C15_20 
REMARK       I    between atoms: C15_20  and  N4_22 
ROOT
ATOM      1  N1  <0> d          -0.685   3.172   0.025  0.00  0.00    -0.289 N 
ATOM      2  C10 <0> d          -1.125   1.857   0.017  0.00  0.00     0.069 A 
ATOM      3  C11 <0> d          -0.013   1.076   0.008  0.00  0.00     0.150 A 
ATOM      4  N2  <0> d           1.062   1.875   0.002  0.00  0.00    -0.234 NA
ATOM      5  C12 <0> d           0.678   3.132   0.012  0.00  0.00     0.174 A 
ENDROOT
BRANCH   5   6
ATOM      6  S1  <0> d           1.747   4.533   0.010  0.00  0.00    -0.082 SA
BRANCH   6   7
ATOM      7  C13 <0> d           3.355   3.701  -0.010  0.00  0.00     0.185 C 
BRANCH   7   8
ATOM      8  C14 <0> d           4.454   4.733  -0.015  0.00  0.00     0.235 C 
ATOM      9  O1  <0> d           4.177   5.913  -0.005  0.00  0.00    -0.272 OA
ATOM     10  N3  <0> d           5.744   4.343  -0.029  0.00  0.00    -0.279 N 
ATOM     11  C15 <0> d           6.726   5.265  -0.033  0.00  0.00     0.320 C 
ATOM     12  H15 <0> d           5.965   3.398  -0.036  0.00  0.00     0.173 HD
ATOM     13  O2  <0> d           6.449   6.448  -0.024  0.00  0.00    -0.247 OA
ATOM     14  N4  <0> d           8.016   4.875  -0.047  0.00  0.00    -0.352 N 
ATOM     15  H16 <0> d           8.238   3.931  -0.054  0.00  0.00     0.160 HD
ATOM     16  H17 <0> d           8.724   5.539  -0.050  0.00  0.00     0.160 HD
ENDBRANCH   7   8
ENDBRANCH   6   7
ENDBRANCH   5   6
BRANCH   1  17
ATOM     17  C7  <0> d          -1.488   4.321   0.037  0.00  0.00     0.042 A 
ATOM     18  C6  <0> d          -1.479   5.187  -1.048  0.00  0.00     0.030 A 
ATOM     19  C5  <0> d          -2.271   6.318  -1.032  0.00  0.00     0.010 A 
ATOM     20  C4  <0> d          -3.072   6.589   0.062  0.00  0.00    -0.055 A 
ATOM     21  C9  <0> d          -3.082   5.728   1.144  0.00  0.00     0.010 A 
ATOM     22  C8  <0> d          -2.297   4.592   1.133  0.00  0.00     0.030 A 
BRANCH  20  23
ATOM     23  C2  <0> d          -3.935   7.824   0.075  0.00  0.00     0.010 C 
ATOM     24  C1  <0> d          -5.404   7.418   0.212  0.00  0.00     0.015 C 
ATOM     25  C3  <0> d          -3.539   8.711   1.258  0.00  0.00     0.015 C 
ENDBRANCH  20  23
ENDBRANCH   1  17
BRANCH   2  26
ATOM     26  C16 <0> d          -2.528   1.395   0.021  0.00  0.00    -0.007 A 
ATOM     27  C21 <0> d          -2.818   0.033   0.120  0.00  0.00     0.014 A 
ATOM     28  C20 <0> d          -4.130  -0.392   0.123  0.00  0.00     0.001 A 
ATOM     29  C19 <0> d          -5.159   0.529   0.027  0.00  0.00     0.000 A 
ATOM     30  C18 <0> d          -4.879   1.881  -0.072  0.00  0.00     0.001 A 
ATOM     31  C17 <0> d          -3.571   2.319  -0.070  0.00  0.00     0.014 A 
ENDBRANCH   2  26
TORSDOF 6
