REMARK  9 active torsions:
REMARK  status: ('A' for Active; 'I' for Inactive)
REMARK    1  A    between atoms: C5_5  and  S1_8 
REMARK    2  A    between atoms: S1_8  and  C8_11 
REMARK    3  A    between atoms: C8_11  and  N1_12 
REMARK       I    between atoms: N1_12  and  C9_13 
REMARK    4  A    between atoms: C9_13  and  C10_15 
REMARK    5  A    between atoms: C10_15  and  C11_16 
REMARK    6  A    between atoms: C10_15  and  N2_23 
REMARK    7  A    between atoms: C15_20  and  O4_22 
REMARK    8  A    between atoms: N2_23  and  C17_24 
REMARK       I    between atoms: N2_23  and  C23_31 
REMARK    9  A    between atoms: C23_31  and  C24_33 
ROOT
ATOM      1  C10 <0> d           3.184  -4.647   3.759  0.00  0.00     0.218 C 
ENDROOT
BRANCH   1   2
ATOM      2  C9  <0> d           2.621  -4.004   2.518  0.00  0.00     0.246 C 
ATOM      3  N1  <0> d           2.538  -2.662   2.433  0.00  0.00    -0.345 N 
ATOM      4  H11 <0> d           2.841  -2.110   3.170  0.00  0.00     0.163 HD
ATOM      5  O3  <0> d           2.242  -4.695   1.596  0.00  0.00    -0.271 OA
BRANCH   3   6
ATOM      6  C8  <0> d           1.991  -2.037   1.226  0.00  0.00     0.268 C 
BRANCH   6   7
ATOM      7  S1  <0> d           0.226  -1.697   1.469  0.00  0.00     0.192 S 
ATOM      8  O1  <0> d          -0.423  -2.840   2.010  0.00  0.00    -0.221 OA
ATOM      9  O2  <0> d          -0.306  -1.033   0.331  0.00  0.00    -0.221 OA
BRANCH   7  10
ATOM     10  C5  <0> d           0.169  -0.496   2.757  0.00  0.00     0.060 A 
ATOM     11  C4  <0> d           0.203   0.851   2.449  0.00  0.00     0.024 A 
ATOM     12  C3  <0> d           0.158   1.793   3.459  0.00  0.00     0.008 A 
ATOM     13  C2  <0> d           0.078   1.388   4.779  0.00  0.00    -0.062 A 
ATOM     14  C1  <0> d           0.029   2.415   5.880  0.00  0.00     0.048 C 
ATOM     15  C7  <0> d           0.049   0.041   5.088  0.00  0.00     0.008 A 
ATOM     16  C6  <0> d           0.090  -0.901   4.077  0.00  0.00     0.024 A 
ENDBRANCH   7  10
ENDBRANCH   6   7
ENDBRANCH   3   6
ENDBRANCH   1   2
BRANCH   1  17
ATOM     17  C11 <0> d           2.503  -4.074   4.975  0.00  0.00    -0.023 A 
ATOM     18  C16 <0> d           2.763  -2.774   5.363  0.00  0.00     0.046 A 
ATOM     19  C15 <0> d           2.131  -2.245   6.479  0.00  0.00     0.066 A 
ATOM     20  C14 <0> d           1.249  -3.027   7.210  0.00  0.00     0.036 A 
ATOM     21  C13 <0> d           0.997  -4.329   6.821  0.00  0.00     0.003 A 
ATOM     22  C12 <0> d           1.623  -4.852   5.705  0.00  0.00     0.010 A 
BRANCH  19  23
ATOM     23  O4  <0> d           2.380  -0.964   6.859  0.00  0.00    -0.361 OA
ATOM     24  H16 <0> d           3.120  -0.873   7.475  0.00  0.00     0.217 HD
ENDBRANCH  19  23
ENDBRANCH   1  17
BRANCH   1  25
ATOM     25  N2  <0> d           2.955  -6.093   3.707  0.00  0.00    -0.299 N 
ATOM     26  C23 <0> d           1.725  -6.571   3.433  0.00  0.00     0.239 C 
ATOM     27  O5  <0> d           0.842  -5.813   3.091  0.00  0.00    -0.272 OA
BRANCH  25  28
ATOM     28  C17 <0> d           4.013  -6.979   3.942  0.00  0.00     0.040 A 
ATOM     29  C22 <0> d           3.795  -8.147   4.660  0.00  0.00     0.053 A 
ATOM     30  C21 <0> d           4.841  -9.022   4.885  0.00  0.00     0.036 A 
ATOM     31  C20 <0> d           6.106  -8.729   4.407  0.00  0.00     0.024 A 
ATOM     32 Cl1  <0> d           4.569 -10.488   5.775  0.00  0.00    -0.084 Cl
ATOM     33  C19 <0> d           6.326  -7.562   3.697  0.00  0.00     0.004 A 
ATOM     34  C18 <0> d           5.283  -6.687   3.463  0.00  0.00     0.030 A 
ENDBRANCH  25  28
BRANCH  26  35
ATOM     35  C24 <0> d           1.446  -8.047   3.551  0.00  0.00     0.217 C 
ATOM     36 Cl2  <0> d           0.295  -8.547   2.257  0.00  0.00    -0.121 Cl
ENDBRANCH  26  35
ENDBRANCH   1  25
TORSDOF 9
