REMARK  2 active torsions:
REMARK  status: ('A' for Active; 'I' for Inactive)
REMARK    1  A    between atoms: N1_6  and  C7_10 
REMARK    2  A    between atoms: C10_13  and  N2_17 
ROOT
ATOM      1  C1  <0> d          -0.019   1.526   0.010  0.00  0.00     0.016 C 
ATOM      2  C2  <0> d           0.002  -0.004   0.002  0.00  0.00    -0.031 C 
ATOM      3  C3  <0> d           0.739  -0.502  -1.246  0.00  0.00     0.113 C 
ATOM      4  C4  <0> d           0.854  -2.002  -1.187  0.00  0.00     0.232 C 
ATOM      5  O1  <0> d           0.897  -2.636  -2.219  0.00  0.00    -0.273 OA
ATOM      6  N1  <0> d           0.910  -2.651  -0.014  0.00  0.00    -0.249 N 
ATOM      7  C5  <0> d           0.857  -2.015   1.166  0.00  0.00     0.232 C 
ATOM      8  O2  <0> d           0.903  -2.660   2.192  0.00  0.00    -0.273 OA
ATOM      9  C6  <0> d           0.743  -0.515   1.242  0.00  0.00     0.113 C 
ATOM     10  C13 <0> d          -1.432  -0.537   0.004  0.00  0.00     0.016 C 
ENDROOT
BRANCH   6  11
ATOM     11  C7  <0> d           1.028  -4.050  -0.022  0.00  0.00     0.084 A 
ATOM     12  C12 <0> d          -0.114  -4.844  -0.024  0.00  0.00     0.145 A 
ATOM     13  C11 <0> d           0.004  -6.221  -0.038  0.00  0.00     0.073 A 
ATOM     14  F1  <0> d          -1.336  -4.270  -0.018  0.00  0.00    -0.204 F 
ATOM     15  C10 <0> d           1.261  -6.811  -0.038  0.00  0.00     0.028 A 
ATOM     16  C9  <0> d           2.400  -6.016  -0.029  0.00  0.00     0.031 A 
ATOM     17  C8  <0> d           2.284  -4.641  -0.021  0.00  0.00     0.036 A 
BRANCH  15  18
ATOM     18  N2  <0> d           1.380  -8.204  -0.046  0.00  0.00    -0.399 N 
ATOM     19  H11 <0> d           2.258  -8.616  -0.047  0.00  0.00     0.156 HD
ATOM     20  H12 <0> d           0.584  -8.759  -0.052  0.00  0.00     0.156 HD
ENDBRANCH  15  18
ENDBRANCH   6  11
TORSDOF 2
