REMARK  2 active torsions:
REMARK  status: ('A' for Active; 'I' for Inactive)
REMARK       I    between atoms: N1_2  and  C2_3 
REMARK    1  A    between atoms: C2_3  and  C3_5 
REMARK    2  A    between atoms: C3_5  and  N2_6 
ROOT
ATOM      1  N2  <0> d           1.291  -2.644  -2.232  0.00  0.00    -0.297 N 
ATOM      2  C4  <0> d           0.582  -2.866  -3.366  0.00  0.00     0.213 A 
ATOM      3  N3  <0> d           1.151  -3.286  -4.461  0.00  0.00    -0.240 NA
ATOM      4  C5  <0> d           2.473  -3.518  -4.511  0.00  0.00     0.110 A 
ATOM      5  C6  <0> d           3.394  -3.981  -5.560  0.00  0.00     0.030 A 
ATOM      6  C7  <0> d           3.237  -4.353  -6.894  0.00  0.00     0.017 A 
ATOM      7  C8  <0> d           4.334  -4.750  -7.625  0.00  0.00     0.001 A 
ATOM      8  C9  <0> d           5.591  -4.781  -7.038  0.00  0.00     0.003 A 
ATOM      9  C10 <0> d           5.759  -4.416  -5.720  0.00  0.00     0.038 A 
ATOM     10  C11 <0> d           4.665  -4.011  -4.963  0.00  0.00     0.089 A 
ATOM     11  O2  <0> d           4.541  -3.608  -3.681  0.00  0.00    -0.302 OA
ATOM     12  C12 <0> d           3.259  -3.309  -3.383  0.00  0.00     0.173 A 
ATOM     13  C13 <0> d           2.626  -2.849  -2.206  0.00  0.00     0.285 A 
ATOM     14  O3  <0> d           3.269  -2.646  -1.190  0.00  0.00    -0.265 OA
ENDROOT
BRANCH   1  15
ATOM     15  C3  <0> d           0.606  -2.171  -1.026  0.00  0.00     0.235 C 
BRANCH  15  16
ATOM     16  C2  <0> d           0.585  -0.664  -1.018  0.00  0.00     0.235 C 
ATOM     17  N1  <0> d           0.002  -0.004   0.002  0.00  0.00    -0.364 N 
ATOM     18  C1  <0> d          -0.018   1.461   0.010  0.00  0.00     0.149 C 
ATOM     19  H4  <0> d          -0.404  -0.499   0.731  0.00  0.00     0.161 HD
ATOM     20  O1  <0> d           1.093  -0.046  -1.929  0.00  0.00    -0.272 OA
ENDBRANCH  15  16
ENDBRANCH   1  15
TORSDOF 2
