REMARK  7 active torsions:
REMARK  status: ('A' for Active; 'I' for Inactive)
REMARK    1  A    between atoms: C2_2  and  O1_3 
REMARK    2  A    between atoms: O1_3  and  C3_4 
REMARK    3  A    between atoms: C3_4  and  C4_6 
REMARK    4  A    between atoms: C5_7  and  C18_25 
REMARK    5  A    between atoms: C7_10  and  N1_11 
REMARK       I    between atoms: N1_11  and  C8_12 
REMARK    6  A    between atoms: C8_12  and  C9_14 
REMARK    7  A    between atoms: C9_14  and  N2_16 
ROOT
ATOM      1  N1  <0> d          -3.238   3.163   4.118  0.00  0.00    -0.319 N 
ATOM      2  C8  <0> d          -2.770   2.850   2.894  0.00  0.00     0.253 C 
ATOM      3  O3  <0> d          -2.248   3.704   2.208  0.00  0.00    -0.271 OA
ATOM      4  H8  <0> d          -3.712   2.389   4.740  0.00  0.00     0.169 HD
ENDROOT
BRANCH   1   5
ATOM      5  C7  <0> d          -3.123   4.460   4.594  0.00  0.00     0.093 A 
ATOM      6  C4  <0> d          -3.546   4.973   5.816  0.00  0.00     0.080 A 
ATOM      7  C5  <0> d          -3.292   6.374   6.054  0.00  0.00    -0.028 A 
ATOM      8  C6  <0> d          -2.681   7.062   5.074  0.00  0.00     0.060 A 
ATOM      9  S1  <0> d          -2.425   5.836   3.808  0.00  0.00    -0.083 SA
BRANCH   6  10
ATOM     10  C3  <0> d          -4.213   4.132   6.813  0.00  0.00     0.296 C 
ATOM     11  O2  <0> d          -3.554   3.545   7.651  0.00  0.00    -0.259 OA
BRANCH  10  12
ATOM     12  O1  <0> d          -5.556   4.009   6.802  0.00  0.00    -0.318 OA
BRANCH  12  13
ATOM     13  C2  <0> d          -6.148   3.159   7.820  0.00  0.00     0.174 C 
ATOM     14  C1  <0> d          -7.668   3.143   7.649  0.00  0.00     0.034 C 
ENDBRANCH  12  13
ENDBRANCH  10  12
ENDBRANCH   6  10
BRANCH   7  15
ATOM     15  C18 <0> d          -3.700   7.038   7.343  0.00  0.00     0.020 A 
ATOM     16  C20 <0> d          -2.597   7.675   8.191  0.00  0.00     0.010 A 
ATOM     17  C19 <0> d          -3.579   8.561   7.423  0.00  0.00     0.010 A 
ENDBRANCH   7  15
ENDBRANCH   1   5
BRANCH   2  18
ATOM     18  C9  <0> d          -2.895   1.440   2.377  0.00  0.00     0.276 C 
ATOM     19  C10 <0> d          -1.693   0.617   2.845  0.00  0.00     0.050 C 
BRANCH  18  20
ATOM     20  N2  <0> d          -2.933   1.459   0.908  0.00  0.00    -0.054 N 
ATOM     21  C17 <0> d          -4.047   2.282   0.421  0.00  0.00     0.275 C 
ATOM     22  C14 <0> d          -4.022   2.284  -1.104  0.00  0.00    -0.019 A 
ATOM     23  C13 <0> d          -2.882   1.923  -1.758  0.00  0.00    -0.008 A 
ATOM     24  C15 <0> d          -5.110   2.636  -1.899  0.00  0.00     0.017 A 
ATOM     25  C12 <0> d          -1.590   1.508  -1.135  0.00  0.00     0.074 C 
ATOM     26  S2  <0> d          -3.312   2.067  -3.470  0.00  0.00    -0.106 SA
ATOM     27  C11 <0> d          -1.641   1.892   0.353  0.00  0.00     0.241 C 
ATOM     28  C16 <0> d          -5.001   2.607  -3.248  0.00  0.00     0.051 A 
ATOM     29  H25 <0> d          -3.112   0.433   0.555  0.00  0.00     0.281 HD
ENDBRANCH  18  20
ENDBRANCH   2  18
TORSDOF 7
