REMARK  5 active torsions:
REMARK  status: ('A' for Active; 'I' for Inactive)
REMARK    1  A    between atoms: N2_6  and  C5_7 
REMARK    2  A    between atoms: C8_10  and  C10_13 
REMARK    3  A    between atoms: C10_13  and  N4_14 
REMARK       I    between atoms: N4_14  and  C11_15 
REMARK    4  A    between atoms: C11_15  and  C12_17 
REMARK    5  A    between atoms: C12_17  and  O2_19 
ROOT
ATOM      1  C5  <0> d           0.029  -0.383   2.435  0.00  0.00     0.134 A 
ATOM      2  C6  <0> d           0.058  -1.328   3.454  0.00  0.00     0.051 A 
ATOM      3  C7  <0> d           0.064  -0.899   4.769  0.00  0.00     0.014 A 
ATOM      4  C8  <0> d           0.042   0.466   5.021  0.00  0.00    -0.023 A 
ATOM      5  C9  <0> d           0.014   1.349   3.958  0.00  0.00     0.127 A 
ATOM      6  N3  <0> d           0.014   0.909   2.715  0.00  0.00    -0.242 NA
ENDROOT
BRANCH   4   7
ATOM      7  C10 <0> d           0.047   0.980   6.438  0.00  0.00     0.162 C 
BRANCH   7   8
ATOM      8  N4  <0> d           1.430   1.172   6.882  0.00  0.00    -0.355 N 
ATOM      9  C11 <0> d           1.681   1.628   8.125  0.00  0.00     0.246 C 
ATOM     10  O1  <0> d           0.762   1.880   8.876  0.00  0.00    -0.271 OA
ATOM     11  H12 <0> d           2.165   0.970   6.282  0.00  0.00     0.162 HD
BRANCH   9  12
ATOM     12  C12 <0> d           3.103   1.825   8.583  0.00  0.00     0.208 C 
ATOM     13  C13 <0> d           3.758   2.929   7.750  0.00  0.00     0.049 C 
BRANCH  12  14
ATOM     14  O2  <0> d           3.112   2.200   9.962  0.00  0.00    -0.382 OA
ATOM     15  C14 <0> d           4.277   1.776  10.672  0.00  0.00     0.202 C 
ENDBRANCH  12  14
ENDBRANCH   9  12
ENDBRANCH   7   8
ENDBRANCH   4   7
BRANCH   1  16
ATOM     16  N2  <0> d           0.023  -0.803   1.101  0.00  0.00    -0.293 N 
ATOM     17  C2  <0> d           0.002  -0.004   0.002  0.00  0.00     0.107 A 
ATOM     18  C1  <0> d          -0.018   1.503   0.010  0.00  0.00     0.091 C 
ATOM     19  N1  <0> d           0.008  -0.760  -1.062  0.00  0.00    -0.246 NA
ATOM     20  C3  <0> d           0.028  -2.049  -0.691  0.00  0.00     0.136 A 
ATOM     21  C4  <0> d           0.035  -2.100   0.654  0.00  0.00     0.119 A 
ENDBRANCH   1  16
TORSDOF 5
