REMARK  2 active torsions:
REMARK  status: ('A' for Active; 'I' for Inactive)
REMARK    1  A    between atoms: C3_3  and  C7_9 
REMARK    2  A    between atoms: N3_10  and  N4_11 
ROOT
ATOM      1  C7  <0> d          -0.006  -0.372  -2.547  0.00  0.00     0.156 C 
ATOM      2  N3  <0> d          -0.025   0.904  -2.819  0.00  0.00    -0.159 NA
ENDROOT
BRANCH   1   3
ATOM      3  C3  <0> d           0.008  -0.827  -1.146  0.00  0.00     0.033 A 
ATOM      4  C2  <0> d           0.002  -0.004   0.002  0.00  0.00     0.064 A 
ATOM      5  C1  <0> d          -0.018   1.503   0.010  0.00  0.00     0.073 C 
ATOM      6  N2  <0> d           0.023  -0.776   1.055  0.00  0.00    -0.177 NA
ATOM      7  N1  <0> d           0.034  -2.112   0.637  0.00  0.00    -0.278 N 
ATOM      8  C4  <0> d           0.028  -2.136  -0.711  0.00  0.00     0.040 A 
ATOM      9  C5  <0> d           0.055  -3.284   1.515  0.00  0.00     0.179 C 
ATOM     10  C6  <0> d           0.041  -3.366  -1.581  0.00  0.00     0.071 C 
ENDBRANCH   1   3
BRANCH   2  11
ATOM     11  N4  <0> d          -0.038   1.337  -4.151  0.00  0.00    -0.125 NA
ATOM     12  C8  <0> d          -0.057   2.622  -4.425  0.00  0.00     0.190 A 
ATOM     13  S1  <0> d          -0.076   3.409  -6.029  0.00  0.00    -0.081 SA
ATOM     14  N5  <0> d          -0.062   3.682  -3.541  0.00  0.00    -0.304 N 
ATOM     15  C10 <0> d          -0.101   5.155  -5.448  0.00  0.00     0.185 A 
ATOM     16  C9  <0> d          -0.082   4.941  -3.943  0.00  0.00     0.233 A 
ATOM     17  O1  <0> d          -0.086   5.867  -3.160  0.00  0.00    -0.272 OA
ATOM     18  H11 <0> d          -0.050   3.496  -2.589  0.00  0.00     0.171 HD
ENDBRANCH   2  11
TORSDOF 2
