REMARK  6 active torsions:
REMARK  status: ('A' for Active; 'I' for Inactive)
REMARK    1  A    between atoms: O1_2  and  C2_3 
REMARK    2  A    between atoms: C4_5  and  C9_12 
REMARK    3  A    between atoms: C6_7  and  O3_10 
REMARK    4  A    between atoms: C7_8  and  O2_9 
REMARK    5  A    between atoms: C11_14  and  O4_28 
REMARK    6  A    between atoms: N3_20  and  C15_21 
ROOT
ATOM      1  C9  <0> d           2.402   0.386  -4.230  0.00  0.00     0.082 C 
ATOM      2  C10 <0> d           1.742   0.054  -5.573  0.00  0.00     0.101 C 
ATOM      3  C11 <0> d           2.261  -1.235  -6.138  0.00  0.00     0.141 C 
ATOM      4  N1  <0> d           3.478  -1.654  -5.959  0.00  0.00    -0.209 NA
ATOM      5  C12 <0> d           4.327  -0.910  -5.194  0.00  0.00     0.163 A 
ATOM      6  C13 <0> d           3.872   0.072  -4.349  0.00  0.00     0.091 A 
ATOM      7  N2  <0> d           4.919   0.612  -3.738  0.00  0.00    -0.243 NA
ATOM      8  C14 <0> d           6.016   0.028  -4.153  0.00  0.00     0.217 A 
ATOM      9  N3  <0> d           5.686  -0.934  -5.070  0.00  0.00    -0.287 N 
ENDROOT
BRANCH   1  10
ATOM     10  C4  <0> d           1.787  -0.452  -3.139  0.00  0.00    -0.042 A 
ATOM     11  C3  <0> d           1.173   0.160  -2.063  0.00  0.00     0.047 A 
ATOM     12  C2  <0> d           0.606  -0.608  -1.056  0.00  0.00     0.104 A 
ATOM     13  C7  <0> d           0.661  -1.994  -1.128  0.00  0.00     0.132 A 
ATOM     14  C6  <0> d           1.275  -2.606  -2.215  0.00  0.00     0.104 A 
ATOM     15  C5  <0> d           1.839  -1.831  -3.217  0.00  0.00     0.047 A 
BRANCH  12  16
ATOM     16  O1  <0> d           0.002  -0.004   0.002  0.00  0.00    -0.353 OA
ATOM     17  C1  <0> d          -0.017   1.425   0.010  0.00  0.00     0.210 C 
ENDBRANCH  12  16
BRANCH  13  18
ATOM     18  O2  <0> d           0.111  -2.751  -0.140  0.00  0.00    -0.356 OA
ATOM     19  H7  <0> d          -0.817  -2.978  -0.289  0.00  0.00     0.218 HD
ENDBRANCH  13  18
BRANCH  14  20
ATOM     20  O3  <0> d           1.326  -3.963  -2.293  0.00  0.00    -0.353 OA
ATOM     21  C8  <0> d           1.977  -4.523  -3.435  0.00  0.00     0.210 C 
ENDBRANCH  14  20
ENDBRANCH   1  10
BRANCH   3  22
ATOM     22  O4  <0> d           1.421  -1.999  -6.869  0.00  0.00    -0.348 OA
ATOM     23  H18 <0> d           1.820  -2.814  -7.202  0.00  0.00     0.219 HD
ENDBRANCH   3  22
BRANCH   9  24
ATOM     24  C15 <0> d           6.573  -1.780  -5.751  0.00  0.00     0.063 A 
ATOM     25  C20 <0> d           6.707  -1.683  -7.130  0.00  0.00     0.061 A 
ATOM     26  C19 <0> d           7.587  -2.515  -7.798  0.00  0.00     0.026 A 
ATOM     27 Cl1  <0> d           5.777  -0.514  -8.014  0.00  0.00    -0.082 Cl
ATOM     28  C18 <0> d           8.323  -3.451  -7.095  0.00  0.00     0.002 A 
ATOM     29  C17 <0> d           8.187  -3.553  -5.722  0.00  0.00     0.002 A 
ATOM     30  C16 <0> d           7.314  -2.720  -5.049  0.00  0.00     0.032 A 
ENDBRANCH   9  24
TORSDOF 6
