REMARK  4 active torsions:
REMARK  status: ('A' for Active; 'I' for Inactive)
REMARK    1  A    between atoms: C5_5  and  N1_9 
REMARK    2  A    between atoms: N1_9  and  C9_10 
REMARK    3  A    between atoms: C10_11  and  C16_19 
REMARK    4  A    between atoms: C20_23  and  O2_30 
ROOT
ATOM      1  C9  <0> d          -0.049  -4.894  -1.288  0.00  0.00     0.214 A 
ATOM      2  C10 <0> d          -1.097  -6.017  -1.182  0.00  0.00     0.142 A 
ATOM      3  N2  <0> d          -0.331  -7.244  -1.423  0.00  0.00    -0.367 N 
ATOM      4  C11 <0> d           0.936  -6.959  -1.637  0.00  0.00     0.105 A 
ATOM      5  N3  <0> d           1.203  -5.612  -1.581  0.00  0.00    -0.320 N 
ATOM      6  C12 <0> d           2.466  -5.137  -1.782  0.00  0.00     0.095 A 
ATOM      7  C13 <0> d           3.490  -5.976  -2.041  0.00  0.00     0.017 A 
ATOM      8  C14 <0> d           3.264  -7.362  -2.108  0.00  0.00     0.005 A 
ATOM      9  C15 <0> d           2.008  -7.856  -1.909  0.00  0.00     0.048 A 
ATOM     10  H26 <0> d          -0.705  -8.139  -1.423  0.00  0.00     0.161 HD
ENDROOT
BRANCH   2  11
ATOM     11  C16 <0> d          -2.181  -5.841  -2.247  0.00  0.00     0.128 A 
ATOM     12  C24 <0> d          -1.517  -5.921  -3.603  0.00  0.00     0.232 A 
ATOM     13  N4  <0> d          -1.912  -6.833  -4.474  0.00  0.00    -0.326 N 
ATOM     14  O1  <0> d          -0.624  -5.147  -3.892  0.00  0.00    -0.272 OA
ATOM     15  C23 <0> d          -2.883  -7.710  -4.220  0.00  0.00     0.044 A 
ATOM     16  H25 <0> d          -1.473  -6.867  -5.339  0.00  0.00     0.169 HD
ATOM     17  C18 <0> d          -3.602  -7.729  -2.934  0.00  0.00    -0.010 A 
ATOM     18  C22 <0> d          -3.249  -8.655  -5.197  0.00  0.00     0.033 A 
ATOM     19  C17 <0> d          -3.287  -6.836  -1.953  0.00  0.00     0.003 A 
ATOM     20  C19 <0> d          -4.656  -8.723  -2.733  0.00  0.00     0.050 A 
ATOM     21  C20 <0> d          -4.936  -9.595  -3.741  0.00  0.00     0.069 A 
ATOM     22  C21 <0> d          -4.236  -9.554  -4.953  0.00  0.00     0.039 A 
BRANCH  21  23
ATOM     23  O2  <0> d          -5.913 -10.524  -3.567  0.00  0.00    -0.356 OA
ATOM     24  C25 <0> d          -6.165 -11.414  -4.656  0.00  0.00     0.210 C 
ENDBRANCH  21  23
ENDBRANCH   2  11
BRANCH   1  25
ATOM     25  N1  <0> d           0.058  -4.167  -0.021  0.00  0.00    -0.366 N 
ATOM     26  H13 <0> d           0.003  -4.648   0.820  0.00  0.00     0.162 HD
BRANCH  25  27
ATOM     27  C5  <0> d           0.240  -2.783  -0.023  0.00  0.00     0.035 A 
ATOM     28  C4  <0> d           0.446  -2.110  -1.221  0.00  0.00     0.030 A 
ATOM     29  C3  <0> d           0.625  -0.741  -1.220  0.00  0.00     0.009 A 
ATOM     30  C2  <0> d           0.600  -0.039  -0.029  0.00  0.00    -0.061 A 
ATOM     31  C1  <0> d           0.797   1.455  -0.031  0.00  0.00     0.048 C 
ATOM     32  C7  <0> d           0.401  -0.706   1.166  0.00  0.00     0.015 A 
ATOM     33  C6  <0> d           0.216  -2.075   1.172  0.00  0.00    -0.035 A 
ATOM     34  C8  <0> d          -0.008  -2.801   2.473  0.00  0.00     0.050 C 
ENDBRANCH  25  27
ENDBRANCH   1  25
TORSDOF 4
