REMARK  6 active torsions:
REMARK  status: ('A' for Active; 'I' for Inactive)
REMARK    1  A    between atoms: C2_2  and  C5_5 
REMARK    2  A    between atoms: C5_5  and  C6_6 
REMARK    3  A    between atoms: C5_5  and  N3_12 
REMARK    4  A    between atoms: C6_6  and  N1_7 
REMARK    5  A    between atoms: N3_12  and  C10_13 
REMARK    6  A    between atoms: C10_13  and  C11_14 
ROOT
ATOM      1  C5  <0> d           0.845  -0.769  -1.126  0.00  0.00     0.211 C 
ENDROOT
BRANCH   1   2
ATOM      2  C2  <0> d          -0.207  -0.881  -0.021  0.00  0.00    -0.021 C 
ATOM      3  C1  <0> d          -0.830   0.494   0.231  0.00  0.00     0.016 C 
ATOM      4  C3  <0> d           0.454  -1.385   1.264  0.00  0.00     0.016 C 
ATOM      5  C4  <0> d          -1.298  -1.863  -0.453  0.00  0.00     0.016 C 
ENDBRANCH   1   2
BRANCH   1   6
ATOM      6  C6  <0> d           1.986   0.135  -0.655  0.00  0.00     0.162 C 
BRANCH   6   7
ATOM      7  N1  <0> d           3.055   0.134  -1.656  0.00  0.00    -0.350 N 
ATOM      8  C9  <0> d           3.380   1.151  -2.483  0.00  0.00     0.182 A 
ATOM      9  N2  <0> d           4.384   0.779  -3.229  0.00  0.00    -0.361 N 
ATOM     10  C8  <0> d           4.728  -0.479  -2.913  0.00  0.00     0.106 A 
ATOM     11  H22 <0> d           4.813   1.325  -3.907  0.00  0.00     0.166 HD
ATOM     12  C7  <0> d           3.908  -0.901  -1.932  0.00  0.00     0.108 A 
ENDBRANCH   6   7
ENDBRANCH   1   6
BRANCH   1  13
ATOM     13  N3  <0> d           0.231  -0.196  -2.331  0.00  0.00    -0.065 N 
ATOM     14  H16 <0> d          -0.693  -0.583  -2.455  0.00  0.00     0.278 HD
ATOM     15  H21 <0> d           0.165   0.806  -2.230  0.00  0.00     0.278 HD
BRANCH  13  16
ATOM     16  C10 <0> d           1.058  -0.516  -3.502  0.00  0.00     0.272 C 
BRANCH  16  17
ATOM     17  C11 <0> d           0.444   0.098  -4.734  0.00  0.00    -0.024 A 
ATOM     18  C14 <0> d           0.787   1.351  -5.121  0.00  0.00     0.059 A 
ATOM     19  S1  <0> d          -0.203   1.568  -6.591  0.00  0.00    -0.094 SA
ATOM     20  C13 <0> d          -1.015  -0.022  -6.585  0.00  0.00     0.051 A 
ATOM     21  C12 <0> d          -0.482  -0.605  -5.482  0.00  0.00     0.036 A 
ATOM     22 Br1  <0> d          -2.287  -0.715  -7.800  0.00  0.00    -0.043 Br
ENDBRANCH  16  17
ENDBRANCH  13  16
ENDBRANCH   1  13
TORSDOF 6
