REMARK  4 active torsions:
REMARK  status: ('A' for Active; 'I' for Inactive)
REMARK    1  A    between atoms: C5_5  and  C8_9 
REMARK    2  A    between atoms: C11_12  and  C12_14 
REMARK    3  A    between atoms: C12_14  and  C13_15 
REMARK    4  A    between atoms: C12_14  and  N1_18 
ROOT
ATOM      1  C8  <0> d           0.060  -4.252  -0.021  0.00  0.00     0.018 A 
ATOM      2  C9  <0> d           1.035  -5.105   0.423  0.00  0.00     0.021 A 
ATOM      3  C10 <0> d           0.828  -6.463   0.312  0.00  0.00     0.018 A 
ATOM      4  C11 <0> d          -0.331  -6.913  -0.233  0.00  0.00     0.014 A 
ATOM      5  S1  <0> d          -1.185  -5.391  -0.606  0.00  0.00    -0.092 SA
ENDROOT
BRANCH   1   6
ATOM      6  C5  <0> d           0.040  -2.774  -0.013  0.00  0.00     0.016 A 
ATOM      7  C4  <0> d           0.024  -2.066  -1.217  0.00  0.00     0.024 A 
ATOM      8  C3  <0> d           0.006  -0.686  -1.202  0.00  0.00     0.026 A 
ATOM      9 Br2  <0> d           0.028  -2.996  -2.863  0.00  0.00    -0.050 Br
ATOM     10  C2  <0> d           0.002  -0.004   0.002  0.00  0.00    -0.059 A 
ATOM     11  C1  <0> d          -0.018   1.503   0.010  0.00  0.00     0.048 C 
ATOM     12  C7  <0> d           0.023  -0.699   1.198  0.00  0.00     0.026 A 
ATOM     13  C6  <0> d           0.037  -2.079   1.198  0.00  0.00     0.024 A 
ATOM     14 Br1  <0> d           0.058  -3.027   2.834  0.00  0.00    -0.050 Br
ENDBRANCH   1   6
BRANCH   4  15
ATOM     15  C12 <0> d          -0.782  -8.333  -0.459  0.00  0.00     0.227 C 
BRANCH  15  16
ATOM     16  C13 <0> d          -0.550  -8.715  -1.922  0.00  0.00     0.021 A 
ATOM     17  C15 <0> d          -0.947 -10.128  -2.355  0.00  0.00     0.007 A 
ATOM     18  C14 <0> d          -1.783  -8.928  -2.801  0.00  0.00     0.007 A 
ENDBRANCH  15  16
BRANCH  15  19
ATOM     19  N1  <0> d          -2.213  -8.448  -0.144  0.00  0.00    -0.070 N 
ATOM     20  H14 <0> d          -2.739  -7.828  -0.742  0.00  0.00     0.275 HD
ATOM     21  H15 <0> d          -2.515  -9.398  -0.296  0.00  0.00     0.275 HD
ATOM     22  H16 <0> d          -2.366  -8.196   0.821  0.00  0.00     0.275 HD
ENDBRANCH  15  19
ENDBRANCH   4  15
TORSDOF 4
