REMARK  6 active torsions:
REMARK  status: ('A' for Active; 'I' for Inactive)
REMARK    1  A    between atoms: N1_2  and  C3_4 
REMARK    2  A    between atoms: C7_8  and  C9_10 
REMARK       I    between atoms: C9_10  and  N2_12 
REMARK    3  A    between atoms: C11_14  and  C18_22 
REMARK       I    between atoms: C18_22  and  N4_24 
REMARK    4  A    between atoms: N4_24  and  C19_25 
REMARK    5  A    between atoms: C19_25  and  C20_26 
REMARK    6  A    between atoms: C20_26  and  N5_27 
ROOT
ATOM      1  C9  <0> d          -0.134   0.267  -5.086  0.00  0.00     0.253 C 
ATOM      2  O1  <0> d          -0.281   1.469  -5.189  0.00  0.00    -0.267 OA
ATOM      3  N2  <0> d           0.002  -0.492  -6.191  0.00  0.00    -0.346 N 
ATOM      4  C10 <0> d           0.059  -1.971  -6.277  0.00  0.00     0.141 C 
ATOM      5  C11 <0> d          -0.755  -2.321  -7.543  0.00  0.00     0.106 C 
ATOM      6  C12 <0> d          -0.704  -1.048  -8.406  0.00  0.00    -0.007 C 
ATOM      7  C13 <0> d           0.122  -0.037  -7.597  0.00  0.00     0.136 C 
ATOM      8  C14 <0> d          -0.024  -1.342  -9.739  0.00  0.00     0.039 C 
ATOM      9  C15 <0> d          -0.038  -0.077 -10.603  0.00  0.00     0.233 C 
ATOM     10  N3  <0> d          -1.424   0.354 -10.822  0.00  0.00    -0.075 N 
ATOM     11  C16 <0> d          -2.041   0.723  -9.542  0.00  0.00     0.233 C 
ATOM     12  C17 <0> d          -2.112  -0.508  -8.634  0.00  0.00     0.039 C 
ATOM     13  H20 <0> d          -1.433   1.151 -11.440  0.00  0.00     0.277 HD
ATOM     14  H33 <0> d          -1.946  -0.400 -11.241  0.00  0.00     0.277 HD
ENDROOT
BRANCH   1  15
ATOM     15  C7  <0> d          -0.104  -0.363  -3.749  0.00  0.00     0.034 A 
ATOM     16  C6  <0> d           0.493  -1.613  -3.576  0.00  0.00     0.017 A 
ATOM     17  C5  <0> d           0.520  -2.198  -2.327  0.00  0.00     0.003 A 
ATOM     18  C4  <0> d          -0.042  -1.551  -1.243  0.00  0.00     0.029 A 
ATOM     19  C3  <0> d          -0.639  -0.306  -1.404  0.00  0.00     0.030 A 
ATOM     20  C8  <0> d          -0.676   0.288  -2.656  0.00  0.00     0.046 A 
BRANCH  19  21
ATOM     21  N1  <0> d          -1.207   0.344  -0.305  0.00  0.00    -0.390 N 
ATOM     22  C1  <0> d          -1.841   1.653  -0.476  0.00  0.00     0.149 C 
ATOM     23  C2  <0> d          -1.168  -0.284   1.018  0.00  0.00     0.149 C 
ENDBRANCH  19  21
ENDBRANCH   1  15
BRANCH   5  24
ATOM     24  C18 <0> d          -2.178  -2.652  -7.176  0.00  0.00     0.224 C 
ATOM     25  O2  <0> d          -2.692  -2.134  -6.207  0.00  0.00    -0.273 OA
ATOM     26  N4  <0> d          -2.881  -3.525  -7.925  0.00  0.00    -0.359 N 
ATOM     27  H25 <0> d          -2.470  -3.940  -8.700  0.00  0.00     0.162 HD
BRANCH  26  28
ATOM     28  C19 <0> d          -4.265  -3.848  -7.569  0.00  0.00     0.144 C 
BRANCH  28  29
ATOM     29  C20 <0> d          -4.828  -4.855  -8.573  0.00  0.00     0.170 C 
BRANCH  29  30
ATOM     30  N5  <0> d          -6.212  -5.178  -8.217  0.00  0.00    -0.280 N 
ATOM     31  N6  <0> d          -6.654  -5.655  -6.976  0.00  0.00    -0.185 NA
ATOM     32  C23 <0> d          -7.950  -5.821  -7.040  0.00  0.00     0.140 A 
ATOM     33  C22 <0> d          -8.374  -5.465  -8.325  0.00  0.00     0.040 A 
ATOM     34  C21 <0> d          -7.286  -5.074  -9.028  0.00  0.00     0.113 A 
ENDBRANCH  29  30
ENDBRANCH  28  29
ENDBRANCH  26  28
ENDBRANCH   5  24
TORSDOF 6
