REMARK  3 active torsions:
REMARK  status: ('A' for Active; 'I' for Inactive)
REMARK    1  A    between atoms: N2_12  and  C12_17 
REMARK    2  A    between atoms: C12_17  and  C13_18 
REMARK    3  A    between atoms: C13_18  and  O3_19 
ROOT
ATOM      1  C1  <0> d          -2.121  -4.575   4.925  0.00  0.00     0.015 C 
ATOM      2  C2  <0> d          -3.265  -3.713   4.385  0.00  0.00    -0.037 C 
ATOM      3  C3  <0> d          -2.725  -2.757   3.325  0.00  0.00     0.050 C 
ATOM      4  C4  <0> d          -3.836  -1.991   2.667  0.00  0.00    -0.022 A 
ATOM      5  C5  <0> d          -5.154  -2.458   2.666  0.00  0.00     0.035 A 
ATOM      6  C6  <0> d          -6.151  -1.708   2.031  0.00  0.00     0.134 A 
ATOM      7  N1  <0> d          -5.869  -0.567   1.438  0.00  0.00    -0.241 NA
ATOM      8  C7  <0> d          -4.636  -0.081   1.414  0.00  0.00     0.149 A 
ATOM      9  C8  <0> d          -3.579  -0.782   2.031  0.00  0.00     0.086 A 
ATOM     10  C9  <0> d          -2.226  -0.203   1.977  0.00  0.00     0.266 A 
ATOM     11  O1  <0> d          -1.282  -0.771   2.492  0.00  0.00    -0.267 OA
ATOM     12  N2  <0> d          -2.062   0.977   1.338  0.00  0.00    -0.263 N 
ATOM     13  C10 <0> d          -3.103   1.607   0.772  0.00  0.00     0.333 A 
ATOM     14  O2  <0> d          -2.905   2.669   0.215  0.00  0.00    -0.246 OA
ATOM     15  N3  <0> d          -4.353   1.117   0.790  0.00  0.00    -0.287 N 
ATOM     16  C11 <0> d          -5.433   1.867   0.142  0.00  0.00     0.163 C 
ATOM     17  C14 <0> d          -5.485  -3.729   3.329  0.00  0.00     0.162 C 
ATOM     18  O4  <0> d          -6.637  -4.054   3.525  0.00  0.00    -0.292 OA
ATOM     19  C15 <0> d          -4.335  -4.617   3.760  0.00  0.00     0.093 C 
ATOM     20  C16 <0> d          -3.881  -2.909   5.531  0.00  0.00     0.015 C 
ENDROOT
BRANCH  12  21
ATOM     21  C12 <0> d          -0.729   1.579   1.267  0.00  0.00     0.163 C 
BRANCH  21  22
ATOM     22  C13 <0> d          -0.013   1.086   0.008  0.00  0.00     0.184 C 
BRANCH  22  23
ATOM     23  O3  <0> d          -0.704   1.559  -1.150  0.00  0.00    -0.399 OA
ATOM     24  H14 <0> d          -0.334   1.304  -2.154  0.00  0.00     0.209 HD
ENDBRANCH  22  23
ENDBRANCH  21  22
ENDBRANCH  12  21
TORSDOF 3
