REMARK  6 active torsions:
REMARK  status: ('A' for Active; 'I' for Inactive)
REMARK    1  A    between atoms: C2_2  and  C3_3 
REMARK    2  A    between atoms: C3_3  and  C4_4 
REMARK    3  A    between atoms: C4_4  and  N1_5 
REMARK    4  A    between atoms: C7_9  and  C18_23 
REMARK    5  A    between atoms: C18_23  and  C19_24 
REMARK    6  A    between atoms: C19_24  and  C20_25 
ROOT
ATOM      1  N1  <0> d          -1.201   2.526   0.391  0.00  0.00    -0.288 N 
ATOM      2  C5  <0> d          -0.147   1.792   0.013  0.00  0.00     0.233 A 
ATOM      3  O1  <0> d          -0.201   0.664  -0.427  0.00  0.00    -0.272 OA
ATOM      4  C6  <0> d           1.119   2.592   0.215  0.00  0.00     0.125 A 
ATOM      5  C7  <0> d           1.952   1.953   1.346  0.00  0.00     0.202 C 
ATOM      6  C8  <0> d           1.164   3.965   2.235  0.00  0.00     0.247 A 
ATOM      7  C9  <0> d           0.606   3.935   0.807  0.00  0.00     0.144 A 
ATOM      8  C10 <0> d          -0.893   3.743   0.853  0.00  0.00     0.234 A 
ATOM      9  O2  <0> d          -1.693   4.566   1.244  0.00  0.00    -0.272 OA
ATOM     10  C11 <0> d           0.199   4.610   3.188  0.00  0.00     0.015 A 
ATOM     11  C12 <0> d          -1.096   4.328   3.562  0.00  0.00     0.012 A 
ATOM     12  C13 <0> d          -1.740   5.130   4.488  0.00  0.00     0.001 A 
ATOM     13  C14 <0> d          -1.079   6.213   5.037  0.00  0.00     0.002 A 
ATOM     14  C15 <0> d           0.219   6.499   4.667  0.00  0.00     0.030 A 
ATOM     15  C16 <0> d           0.874   5.697   3.735  0.00  0.00     0.044 A 
ATOM     16  N2  <0> d           2.165   5.779   3.208  0.00  0.00    -0.324 N 
ATOM     17  C17 <0> d           2.414   4.797   2.320  0.00  0.00     0.264 A 
ATOM     18  O3  <0> d           3.446   4.619   1.708  0.00  0.00    -0.270 OA
ATOM     19  H17 <0> d           2.807   6.463   3.453  0.00  0.00     0.169 HD
ATOM     20  N3  <0> d           1.431   2.575   2.565  0.00  0.00    -0.047 N 
ATOM     21  H22 <0> d           2.126   2.517   3.318  0.00  0.00     0.279 HD
ATOM     22  H23 <0> d           0.566   2.108   2.860  0.00  0.00     0.279 HD
ENDROOT
BRANCH   5  23
ATOM     23  C18 <0> d           3.434   2.291   1.172  0.00  0.00     0.044 C 
BRANCH  23  24
ATOM     24  C19 <0> d           4.114   1.196   0.349  0.00  0.00     0.115 C 
BRANCH  24  25
ATOM     25  C20 <0> d           5.574   1.529   0.178  0.00  0.00     0.172 C 
ATOM     26  O4  <0> d           6.024   2.539   0.665  0.00  0.00    -0.648 OA
ATOM     27  O5  <0> d           6.375   0.704  -0.514  0.00  0.00    -0.648 OA
ENDBRANCH  24  25
ENDBRANCH  23  24
ENDBRANCH   5  23
BRANCH   1  28
ATOM     28  C4  <0> d          -2.579   2.034   0.308  0.00  0.00     0.135 C 
BRANCH  28  29
ATOM     29  C3  <0> d          -2.949   1.333   1.617  0.00  0.00     0.020 C 
BRANCH  29  30
ATOM     30  C2  <0> d          -4.387   0.820   1.531  0.00  0.00    -0.003 C 
ATOM     31  C1  <0> d          -4.758   0.118   2.840  0.00  0.00     0.005 C 
ENDBRANCH  29  30
ENDBRANCH  28  29
ENDBRANCH   1  28
TORSDOF 6
