REMARK  8 active torsions:
REMARK  status: ('A' for Active; 'I' for Inactive)
REMARK    1  A    between atoms: C2_2  and  N1_3 
REMARK    2  A    between atoms: N1_3  and  C3_4 
REMARK       I    between atoms: N1_3  and  C5_6 
REMARK    3  A    between atoms: C5_6  and  C6_8 
REMARK    4  A    between atoms: C6_8  and  N2_9 
REMARK    5  A    between atoms: N2_9  and  C8_11 
REMARK    6  A    between atoms: C8_11  and  C9_12 
REMARK    7  A    between atoms: C11_15  and  C12_17 
REMARK    8  A    between atoms: C15_20  and  C18_23 
REMARK       I    between atoms: C18_23  and  N4_25 
ROOT
ATOM      1  C9  <0> d           6.408  -1.734   2.990  0.00  0.00     0.068 A 
ATOM      2  C10 <0> d           7.174  -0.642   3.260  0.00  0.00     0.080 A 
ATOM      3  S1  <0> d           8.781  -1.229   2.738  0.00  0.00    -0.079 SA
ATOM      4  C11 <0> d           8.258  -2.858   2.219  0.00  0.00     0.108 A 
ATOM      5  N3  <0> d           6.960  -2.810   2.485  0.00  0.00    -0.243 NA
ENDROOT
BRANCH   1   6
ATOM      6  C8  <0> d           4.928  -1.708   3.276  0.00  0.00     0.294 C 
BRANCH   6   7
ATOM      7  N2  <0> d           4.200  -1.337   2.055  0.00  0.00    -0.061 N 
ATOM      8  C7  <0> d           4.381  -2.383   1.040  0.00  0.00     0.270 C 
ATOM      9  H25 <0> d           4.557  -0.461   1.704  0.00  0.00     0.280 HD
BRANCH   7  10
ATOM     10  C6  <0> d           2.771  -1.195   2.363  0.00  0.00     0.337 C 
BRANCH  10  11
ATOM     11  C5  <0> d           2.042  -0.696   1.142  0.00  0.00     0.245 C 
ATOM     12  N1  <0> d           0.711  -0.489   1.189  0.00  0.00    -0.351 N 
ATOM     13  O1  <0> d           2.653  -0.480   0.117  0.00  0.00    -0.272 OA
BRANCH  12  14
ATOM     14  C2  <0> d           0.002  -0.004   0.002  0.00  0.00     0.121 C 
ATOM     15  C1  <0> d          -0.019   1.526   0.010  0.00  0.00     0.026 C 
ENDBRANCH  12  14
BRANCH  12  16
ATOM     16  C3  <0> d          -0.028  -0.750   2.427  0.00  0.00     0.121 C 
ATOM     17  C4  <0> d          -0.511  -2.202   2.437  0.00  0.00     0.026 C 
ENDBRANCH  12  16
ENDBRANCH  10  11
ENDBRANCH   7  10
ENDBRANCH   6   7
ENDBRANCH   1   6
BRANCH   4  18
ATOM     18  C12 <0> d           9.059  -3.963   1.651  0.00  0.00    -0.000 A 
ATOM     19  C17 <0> d          10.433  -3.802   1.457  0.00  0.00     0.015 A 
ATOM     20  C16 <0> d          11.179  -4.832   0.933  0.00  0.00     0.018 A 
ATOM     21  C15 <0> d          10.561  -6.036   0.585  0.00  0.00     0.031 A 
ATOM     22  C14 <0> d           9.186  -6.196   0.775  0.00  0.00     0.018 A 
ATOM     23  C13 <0> d           8.441  -5.167   1.304  0.00  0.00     0.015 A 
BRANCH  21  24
ATOM     24  C18 <0> d          11.361  -7.140   0.018  0.00  0.00     0.249 C 
ATOM     25  O2  <0> d          10.823  -8.188  -0.284  0.00  0.00    -0.268 OA
ATOM     26  N4  <0> d          12.688  -6.987  -0.165  0.00  0.00    -0.366 N 
ATOM     27  H23 <0> d          13.117  -6.151   0.076  0.00  0.00     0.159 HD
ATOM     28  H24 <0> d          13.213  -7.712  -0.538  0.00  0.00     0.159 HD
ENDBRANCH  21  24
ENDBRANCH   4  18
TORSDOF 8
