REMARK  5 active torsions:
REMARK  status: ('A' for Active; 'I' for Inactive)
REMARK    1  A    between atoms: C9_9  and  N1_10 
REMARK       I    between atoms: N1_10  and  C10_11 
REMARK    2  A    between atoms: C10_11  and  C11_13 
REMARK    3  A    between atoms: C14_17  and  C15_18 
REMARK       I    between atoms: C15_18  and  N3_20 
REMARK    4  A    between atoms: N3_20  and  C16_21 
REMARK    5  A    between atoms: C16_21  and  C17_22 
ROOT
ATOM      1  C11 <0> d           6.566   0.843  -1.604  0.00  0.00     0.118 C 
ATOM      2  C12 <0> d           5.901   1.598  -2.775  0.00  0.00     0.247 C 
ATOM      3  N2  <0> d           5.990   3.031  -2.394  0.00  0.00    -0.073 N 
ATOM      4  C13 <0> d           7.335   3.162  -1.777  0.00  0.00     0.247 C 
ATOM      5  C14 <0> d           7.512   1.869  -0.947  0.00  0.00     0.118 C 
ATOM      6  H16 <0> d           5.918   3.619  -3.211  0.00  0.00     0.277 HD
ATOM      7  H28 <0> d           5.271   3.264  -1.726  0.00  0.00     0.277 HD
ENDROOT
BRANCH   1   8
ATOM      8  C10 <0> d           5.524   0.384  -0.617  0.00  0.00     0.224 C 
ATOM      9  N1  <0> d           4.577  -0.496  -0.997  0.00  0.00    -0.352 N 
ATOM     10  H13 <0> d           4.566  -0.835  -1.906  0.00  0.00     0.163 HD
ATOM     11  O1  <0> d           5.538   0.807   0.520  0.00  0.00    -0.273 OA
BRANCH   9  12
ATOM     12  C9  <0> d           3.564  -0.942  -0.037  0.00  0.00     0.118 C 
ATOM     13  C4  <0> d           2.396   0.021  -0.021  0.00  0.00    -0.029 A 
ATOM     14  C3  <0> d           2.376   1.406  -0.013  0.00  0.00     0.010 A 
ATOM     15  C5  <0> d           1.208  -0.685  -0.013  0.00  0.00    -0.050 A 
ATOM     16  C2  <0> d           1.172   2.083   0.002  0.00  0.00     0.001 A 
ATOM     17  C1  <0> d          -0.017   1.377   0.010  0.00  0.00     0.001 A 
ATOM     18  C6  <0> d           0.002  -0.004   0.002  0.00  0.00     0.007 A 
ATOM     19  C7  <0> d           1.496  -2.171  -0.025  0.00  0.00     0.041 C 
ATOM     20  C8  <0> d           2.966  -2.294  -0.480  0.00  0.00     0.034 C 
ENDBRANCH   9  12
ENDBRANCH   1   8
BRANCH   5  21
ATOM     21  C15 <0> d           8.938   1.389  -1.020  0.00  0.00     0.224 C 
ATOM     22  O2  <0> d           9.194   0.326  -1.545  0.00  0.00    -0.273 OA
ATOM     23  N3  <0> d           9.930   2.141  -0.502  0.00  0.00    -0.358 N 
ATOM     24  H19 <0> d           9.725   2.991  -0.082  0.00  0.00     0.162 HD
BRANCH  23  25
ATOM     25  C16 <0> d          11.316   1.674  -0.572  0.00  0.00     0.154 C 
BRANCH  25  26
ATOM     26  C17 <0> d          12.236   2.706   0.084  0.00  0.00     0.139 C 
ATOM     27  O3  <0> d          11.968   2.771   1.489  0.00  0.00    -0.384 OA
ATOM     28  C20 <0> d          13.138   2.383   2.229  0.00  0.00     0.168 C 
ATOM     29  C19 <0> d          14.329   2.664   1.279  0.00  0.00     0.029 C 
ATOM     30  C18 <0> d          13.710   2.281  -0.092  0.00  0.00     0.035 C 
ENDBRANCH  25  26
ENDBRANCH  23  25
ENDBRANCH   5  21
TORSDOF 5
