REMARK  7 active torsions:
REMARK  status: ('A' for Active; 'I' for Inactive)
REMARK    1  A    between atoms: O1_2  and  C2_3 
REMARK    2  A    between atoms: C7_8  and  C8_9 
REMARK    3  A    between atoms: C8_9  and  C9_10 
REMARK    4  A    between atoms: C8_9  and  N4_22 
REMARK    5  A    between atoms: C9_10  and  N1_11 
REMARK       I    between atoms: N1_11  and  C10_12 
REMARK    6  A    between atoms: C10_12  and  C11_14 
REMARK       I    between atoms: C11_14  and  N2_16 
REMARK    7  A    between atoms: N2_16  and  C12_17 
ROOT
ATOM      1  C8  <0> d           0.044  -2.834  -0.036  0.00  0.00     0.241 C 
ENDROOT
BRANCH   1   2
ATOM      2  C7  <0> d           0.717  -1.870  -0.979  0.00  0.00     0.007 A 
ATOM      3  C2  <0> d           0.664  -0.506  -0.731  0.00  0.00     0.076 A 
ATOM      4  C3  <0> d           1.288   0.379  -1.598  0.00  0.00     0.037 A 
ATOM      5  C4  <0> d           1.956  -0.099  -2.708  0.00  0.00     0.003 A 
ATOM      6  C5  <0> d           2.003  -1.459  -2.956  0.00  0.00     0.001 A 
ATOM      7  C6  <0> d           1.381  -2.343  -2.094  0.00  0.00     0.012 A 
BRANCH   3   8
ATOM      8  O1  <0> d           0.007  -0.038   0.362  0.00  0.00    -0.355 OA
ATOM      9  C1  <0> d          -0.007   1.378   0.555  0.00  0.00     0.210 C 
ENDBRANCH   3   8
ENDBRANCH   1   2
BRANCH   1  10
ATOM     10  C9  <0> d          -1.432  -2.971  -0.414  0.00  0.00     0.161 C 
BRANCH  10  11
ATOM     11  N1  <0> d          -1.542  -3.588  -1.738  0.00  0.00    -0.351 N 
ATOM     12  C10 <0> d          -2.749  -3.720  -2.322  0.00  0.00     0.309 C 
ATOM     13  O2  <0> d          -3.746  -3.327  -1.751  0.00  0.00    -0.262 OA
ATOM     14  H11 <0> d          -0.746  -3.902  -2.195  0.00  0.00     0.162 HD
BRANCH  12  15
ATOM     15  C11 <0> d          -2.861  -4.348  -3.672  0.00  0.00     0.315 C 
ATOM     16  O3  <0> d          -1.865  -4.740  -4.244  0.00  0.00    -0.262 OA
ATOM     17  N2  <0> d          -4.069  -4.479  -4.256  0.00  0.00    -0.297 N 
ATOM     18  H12 <0> d          -4.865  -4.166  -3.800  0.00  0.00     0.171 HD
BRANCH  17  19
ATOM     19  C12 <0> d          -4.173  -5.063  -5.511  0.00  0.00     0.173 A 
ATOM     20  S1  <0> d          -5.559  -5.332  -6.428  0.00  0.00    -0.062 SA
ATOM     21  C14 <0> d          -4.776  -6.097  -7.838  0.00  0.00     0.072 A 
ATOM     22  C13 <0> d          -3.477  -6.076  -7.449  0.00  0.00     0.126 A 
ATOM     23  N3  <0> d          -3.213  -5.547  -6.269  0.00  0.00    -0.236 NA
ENDBRANCH  17  19
ENDBRANCH  12  15
ENDBRANCH  10  11
ENDBRANCH   1  10
BRANCH   1  24
ATOM     24  N4  <0> d           0.698  -4.147  -0.130  0.00  0.00    -0.061 N 
ATOM     25  C18 <0> d           0.036  -5.112   0.775  0.00  0.00     0.236 C 
ATOM     26  C17 <0> d           1.135  -6.036   1.330  0.00  0.00     0.029 C 
ATOM     27  C16 <0> d           2.452  -5.516   0.711  0.00  0.00     0.029 C 
ATOM     28  C15 <0> d           2.105  -4.053   0.336  0.00  0.00     0.236 C 
ATOM     29  H23 <0> d           0.667  -4.484  -1.081  0.00  0.00     0.280 HD
ENDBRANCH   1  24
TORSDOF 7
