REMARK  4 active torsions:
REMARK  status: ('A' for Active; 'I' for Inactive)
REMARK    1  A    between atoms: C5_5  and  C7_7 
REMARK    2  A    between atoms: C7_7  and  N1_8 
REMARK    3  A    between atoms: N1_8  and  C8_9 
REMARK    4  A    between atoms: N2_13  and  C12_16 
ROOT
ATOM      1  N1  <0> d           1.455  -2.586   1.669  0.00  0.00    -0.058 N 
ATOM      2  H8  <0> d           2.377  -2.300   1.961  0.00  0.00     0.278 HD
ATOM      3  H16 <0> d           0.791  -2.377   2.399  0.00  0.00     0.278 HD
ENDROOT
BRANCH   1   4
ATOM      4  C7  <0> d           1.082  -1.864   0.446  0.00  0.00     0.273 C 
BRANCH   4   5
ATOM      5  C5  <0> d           1.085  -0.381   0.717  0.00  0.00    -0.015 A 
ATOM      6  C4  <0> d           2.279   0.318   0.725  0.00  0.00     0.018 A 
ATOM      7  C3  <0> d           2.281   1.679   0.974  0.00  0.00     0.019 A 
ATOM      8 Br1  <0> d           3.906  -0.587   0.395  0.00  0.00    -0.051 Br
ATOM      9  C2  <0> d           1.091   2.339   1.214  0.00  0.00     0.001 A 
ATOM     10  C1  <0> d          -0.101   1.640   1.207  0.00  0.00     0.001 A 
ATOM     11  C6  <0> d          -0.104   0.280   0.958  0.00  0.00     0.010 A 
ENDBRANCH   4   5
ENDBRANCH   1   4
BRANCH   1  12
ATOM     12  C8  <0> d           1.451  -4.031   1.404  0.00  0.00     0.286 A 
ATOM     13  C11 <0> d           0.041  -4.526   1.169  0.00  0.00     0.258 A 
ATOM     14  N2  <0> d          -0.269  -5.430   2.111  0.00  0.00    -0.282 N 
ATOM     15  O2  <0> d          -0.690  -4.162   0.273  0.00  0.00    -0.271 OA
ATOM     16  C10 <0> d           0.708  -5.668   2.995  0.00  0.00     0.229 A 
ATOM     17  C9  <0> d           1.909  -4.813   2.653  0.00  0.00     0.146 A 
ATOM     18  O1  <0> d           0.641  -6.445   3.924  0.00  0.00    -0.273 OA
BRANCH  14  19
ATOM     19  C12 <0> d          -1.569  -6.103   2.167  0.00  0.00     0.096 A 
ATOM     20  C14 <0> d          -2.820  -5.222   2.184  0.00  0.00     0.028 A 
ATOM     21  C13 <0> d          -2.462  -6.017   0.927  0.00  0.00     0.028 A 
ENDBRANCH  14  19
ENDBRANCH   1  12
TORSDOF 4
