REMARK  6 active torsions:
REMARK  status: ('A' for Active; 'I' for Inactive)
REMARK    1  A    between atoms: C2_2  and  N1_3 
REMARK    2  A    between atoms: N1_3  and  C3_4 
REMARK       I    between atoms: N1_3  and  C5_6 
REMARK    3  A    between atoms: C5_6  and  C6_8 
REMARK    4  A    between atoms: C17_19  and  C18_21 
REMARK    5  A    between atoms: C22_25  and  O3_28 
REMARK    6  A    between atoms: C23_26  and  O2_27 
ROOT
ATOM      1  C6  <0> d           3.349   2.276  -0.734  0.00  0.00     0.032 A 
ATOM      2  C7  <0> d           3.911   3.287   0.050  0.00  0.00     0.019 A 
ATOM      3  C8  <0> d           3.092   4.226   0.634  0.00  0.00     0.031 A 
ATOM      4  C9  <0> d           1.713   4.169   0.446  0.00  0.00     0.035 A 
ATOM      5  C10 <0> d           1.144   3.166  -0.330  0.00  0.00    -0.023 A 
ATOM      6  C11 <0> d           1.967   2.223  -0.919  0.00  0.00     0.027 A 
ATOM      7  C12 <0> d          -0.332   3.068  -0.554  0.00  0.00     0.050 C 
ATOM      8  C13 <0> d          -0.711   3.520  -1.944  0.00  0.00    -0.021 C 
ATOM      9  C14 <0> d          -1.838   4.156  -1.937  0.00  0.00    -0.029 C 
ATOM     10  C15 <0> d          -2.396   4.220  -0.529  0.00  0.00     0.035 C 
ATOM     11  C16 <0> d          -1.141   4.003   0.366  0.00  0.00     0.028 C 
ATOM     12  C17 <0> d          -0.443   5.345   0.508  0.00  0.00     0.123 C 
ATOM     13  N2  <0> d           0.906   5.135   1.043  0.00  0.00    -0.380 N 
ATOM     14  H21 <0> d           1.229   5.655   1.795  0.00  0.00     0.160 HD
ENDROOT
BRANCH  12  15
ATOM     15  C18 <0> d          -0.352   6.000  -0.846  0.00  0.00     0.001 A 
ATOM     16  C23 <0> d          -1.362   6.846  -1.275  0.00  0.00     0.107 A 
ATOM     17  C22 <0> d          -1.273   7.454  -2.524  0.00  0.00     0.101 A 
ATOM     18  C21 <0> d          -0.180   7.202  -3.337  0.00  0.00     0.039 A 
ATOM     19  C20 <0> d           0.822   6.353  -2.904  0.00  0.00     0.003 A 
ATOM     20  C19 <0> d           0.736   5.753  -1.662  0.00  0.00     0.012 A 
BRANCH  16  21
ATOM     21  O2  <0> d          -2.436   7.086  -0.475  0.00  0.00    -0.357 OA
ATOM     22  H25 <0> d          -2.324   7.842   0.116  0.00  0.00     0.217 HD
ENDBRANCH  16  21
BRANCH  17  23
ATOM     23  O3  <0> d          -2.259   8.289  -2.948  0.00  0.00    -0.353 OA
ATOM     24  C24 <0> d          -2.103   8.872  -4.243  0.00  0.00     0.210 C 
ENDBRANCH  17  23
ENDBRANCH  12  15
BRANCH   1  25
ATOM     25  C5  <0> d           4.217   1.264  -1.366  0.00  0.00     0.253 C 
ATOM     26  N1  <0> d           5.333   1.646  -2.018  0.00  0.00    -0.349 N 
ATOM     27  O1  <0> d           3.925   0.085  -1.298  0.00  0.00    -0.267 OA
BRANCH  26  28
ATOM     28  C2  <0> d           5.756   3.048  -1.986  0.00  0.00     0.121 C 
ATOM     29  C1  <0> d           6.842   3.229  -0.923  0.00  0.00     0.026 C 
ENDBRANCH  26  28
BRANCH  26  30
ATOM     30  C3  <0> d           6.123   0.658  -2.758  0.00  0.00     0.121 C 
ATOM     31  C4  <0> d           5.616   0.577  -4.199  0.00  0.00     0.026 C 
ENDBRANCH  26  30
ENDBRANCH   1  25
TORSDOF 6
