REMARK  3 active torsions:
REMARK  status: ('A' for Active; 'I' for Inactive)
REMARK    1  A    between atoms: C6_6  and  C7_7 
REMARK    2  A    between atoms: C9_9  and  C10_13 
REMARK       I    between atoms: C10_13  and  N3_15 
REMARK    3  A    between atoms: N3_15  and  C11_16 
ROOT
ATOM      1  C10 <0> d          -3.427  -3.720   0.021  0.00  0.00     0.274 C 
ATOM      2  O1  <0> d          -2.761  -4.737   0.022  0.00  0.00    -0.266 OA
ATOM      3  N3  <0> d          -4.773  -3.795   0.035  0.00  0.00    -0.320 N 
ATOM      4  H7  <0> d          -5.303  -2.987   0.116  0.00  0.00     0.169 HD
ENDROOT
BRANCH   1   5
ATOM      5  C9  <0> d          -2.764  -2.406   0.006  0.00  0.00     0.120 A 
ATOM      6  C8  <0> d          -1.403  -2.166  -0.009  0.00  0.00     0.071 A 
ATOM      7  C7  <0> d          -1.273  -0.765  -0.020  0.00  0.00     0.089 A 
ATOM      8  N2  <0> d          -2.485  -0.254  -0.006  0.00  0.00    -0.174 NA
ATOM      9  N1  <0> d          -3.372  -1.182   0.004  0.00  0.00    -0.272 N 
ATOM     10  H1  <0> d          -4.331  -1.037   0.012  0.00  0.00     0.189 HD
BRANCH   7  11
ATOM     11  C6  <0> d           0.001  -0.003  -0.037  0.00  0.00    -0.006 A 
ATOM     12  C1  <0> d          -0.018   1.390  -0.040  0.00  0.00     0.015 A 
ATOM     13  C2  <0> d           1.169   2.094  -0.056  0.00  0.00     0.020 A 
ATOM     14  C3  <0> d           2.377   1.419  -0.068  0.00  0.00     0.011 A 
ATOM     15  C4  <0> d           2.401   0.035  -0.065  0.00  0.00     0.020 A 
ATOM     16 Br1  <0> d           3.999   2.390  -0.089  0.00  0.00    -0.051 Br
ATOM     17  C5  <0> d           1.219  -0.678  -0.050  0.00  0.00     0.015 A 
ENDBRANCH   7  11
ENDBRANCH   1   5
BRANCH   3  18
ATOM     18  C11 <0> d          -5.405  -5.040  -0.067  0.00  0.00     0.059 A 
ATOM     19  C16 <0> d          -6.683  -5.213   0.450  0.00  0.00     0.063 A 
ATOM     20  C15 <0> d          -7.312  -6.441   0.347  0.00  0.00     0.058 A 
ATOM     21 Cl1  <0> d          -7.493  -3.886   1.222  0.00  0.00    -0.082 Cl
ATOM     22  C14 <0> d          -6.663  -7.500  -0.265  0.00  0.00     0.070 A 
ATOM     23  C13 <0> d          -5.378  -7.330  -0.779  0.00  0.00     0.098 A 
ATOM     24  N4  <0> d          -7.286  -8.754  -0.376  0.00  0.00    -0.323 N 
ATOM     25  C12 <0> d          -4.752  -6.102  -0.680  0.00  0.00     0.070 A 
ATOM     26  O3  <0> d          -4.753  -8.381  -1.376  0.00  0.00    -0.340 OA
ATOM     27  C18 <0> d          -5.045  -9.681  -0.858  0.00  0.00     0.278 C 
ATOM     28  C17 <0> d          -6.534  -9.833  -0.681  0.00  0.00     0.246 C 
ATOM     29  O2  <0> d          -7.055 -10.921  -0.812  0.00  0.00    -0.271 OA
ATOM     30  H10 <0> d          -8.242  -8.843  -0.235  0.00  0.00     0.169 HD
ENDBRANCH   3  18
TORSDOF 3
