REMARK  5 active torsions:
REMARK  status: ('A' for Active; 'I' for Inactive)
REMARK    1  A    between atoms: C3_3  and  O4_26 
REMARK    2  A    between atoms: C9_9  and  O3_25 
REMARK    3  A    between atoms: N1_13  and  C13_14 
REMARK    4  A    between atoms: C13_14  and  C14_15 
REMARK    5  A    between atoms: C19_21  and  O2_24 
ROOT
ATOM      1  C1  <0> d          -0.288   1.218   0.425  0.00  0.00     0.011 C 
ATOM      2  C2  <0> d           0.871   1.974   0.547  0.00  0.00     0.040 C 
ATOM      3  C3  <0> d           2.156   1.428   0.576  0.00  0.00     0.099 C 
ATOM      4  C4  <0> d           2.262   0.051   0.431  0.00  0.00     0.110 C 
ATOM      5  C5  <0> d           1.069  -0.651   0.205  0.00  0.00    -0.001 C 
ATOM      6  C6  <0> d          -0.201  -0.149   0.283  0.00  0.00    -0.046 C 
ATOM      7  C7  <0> d          -1.307  -1.156   0.321  0.00  0.00     0.075 C 
ATOM      8  C8  <0> d          -0.882  -2.532  -0.151  0.00  0.00     0.227 C 
ATOM      9  C9  <0> d           0.438  -3.086   0.367  0.00  0.00     0.101 C 
ATOM     10  C10 <0> d           1.483  -2.074  -0.036  0.00  0.00     0.054 C 
ATOM     11  C11 <0> d           1.731  -2.260  -1.512  0.00  0.00     0.048 C 
ATOM     12  C12 <0> d           0.391  -1.876  -2.180  0.00  0.00     0.236 C 
ATOM     13  N1  <0> d          -0.759  -2.576  -1.622  0.00  0.00    -0.063 N 
ATOM     14  C18 <0> d           2.616  -2.012   0.985  0.00  0.00     0.174 C 
ATOM     15  O1  <0> d           3.300  -0.854   0.534  0.00  0.00    -0.339 OA
ATOM     16  C19 <0> d           3.099  -3.392   1.268  0.00  0.00     0.148 C 
ATOM     17  C20 <0> d           1.966  -4.045   2.108  0.00  0.00     0.037 C 
ATOM     18  C21 <0> d           0.646  -3.302   1.855  0.00  0.00     0.043 C 
ATOM     19  H28 <0> d          -0.709  -3.542  -1.907  0.00  0.00     0.280 HD
ENDROOT
BRANCH  13  20
ATOM     20  C13 <0> d          -1.977  -1.994  -2.203  0.00  0.00     0.240 C 
BRANCH  20  21
ATOM     21  C14 <0> d          -1.957  -2.180  -3.721  0.00  0.00     0.011 C 
ATOM     22  C17 <0> d          -3.247  -1.713  -4.416  0.00  0.00     0.006 C 
ATOM     23  C16 <0> d          -2.349  -1.145  -5.528  0.00  0.00     0.001 C 
ATOM     24  C15 <0> d          -1.236  -1.047  -4.471  0.00  0.00     0.006 C 
ENDBRANCH  20  21
ENDBRANCH  13  20
BRANCH   9  25
ATOM     25  O3  <0> d           0.714  -4.312  -0.312  0.00  0.00    -0.386 OA
ATOM     26  H26 <0> d           0.040  -4.993  -0.184  0.00  0.00     0.210 HD
ENDBRANCH   9  25
BRANCH  16  27
ATOM     27  O2  <0> d           4.316  -3.349   2.017  0.00  0.00    -0.393 OA
ATOM     28  H25 <0> d           4.677  -4.221   2.230  0.00  0.00     0.210 HD
ENDBRANCH  16  27
BRANCH   3  29
ATOM     29  O4  <0> d           3.256   2.211   0.739  0.00  0.00    -0.358 OA
ATOM     30  H27 <0> d           3.513   2.341   1.662  0.00  0.00     0.217 HD
ENDBRANCH   3  29
TORSDOF 5
