REMARK  9 active torsions:
REMARK  status: ('A' for Active; 'I' for Inactive)
REMARK    1  A    between atoms: C2_2  and  C3_3 
REMARK    2  A    between atoms: C3_3  and  C4_4 
REMARK    3  A    between atoms: C3_3  and  N2_21 
REMARK    4  A    between atoms: C4_4  and  C5_5 
REMARK    5  A    between atoms: C4_4  and  N1_12 
REMARK    6  A    between atoms: N1_12  and  C11_13 
REMARK    7  A    between atoms: N1_12  and  C13_16 
REMARK    8  A    between atoms: C11_13  and  C12_14 
REMARK    9  A    between atoms: C12_14  and  O1_15 
ROOT
ATOM      1  C4  <0> d           0.753  -2.194  -1.160  0.00  0.00     0.252 C 
ENDROOT
BRANCH   1   2
ATOM      2  C3  <0> d           0.509  -0.684  -1.146  0.00  0.00     0.218 C 
BRANCH   2   3
ATOM      3  C2  <0> d          -0.414  -0.328   0.021  0.00  0.00     0.031 C 
ATOM      4  C1  <0> d          -0.741   1.166  -0.025  0.00  0.00     0.007 C 
ENDBRANCH   2   3
BRANCH   2   5
ATOM      5  N2  <0> d           1.790   0.018  -0.990  0.00  0.00    -0.073 N 
ATOM      6  H26 <0> d           2.398  -0.217  -1.760  0.00  0.00     0.274 HD
ATOM      7  H27 <0> d           1.628   1.014  -0.981  0.00  0.00     0.274 HD
ATOM      8  H29 <0> d           2.222  -0.261  -0.122  0.00  0.00     0.274 HD
ENDBRANCH   2   5
ENDBRANCH   1   2
BRANCH   1   9
ATOM      9  C5  <0> d           1.551  -2.563  -2.385  0.00  0.00    -0.024 A 
ATOM     10  C10 <0> d           2.759  -3.220  -2.251  0.00  0.00     0.028 A 
ATOM     11  C9  <0> d           3.488  -3.563  -3.375  0.00  0.00     0.011 A 
ATOM     12  C8  <0> d           3.013  -3.238  -4.633  0.00  0.00     0.019 A 
ATOM     13 Br1  <0> d           5.137  -4.471  -3.193  0.00  0.00    -0.051 Br
ATOM     14  C7  <0> d           1.807  -2.575  -4.765  0.00  0.00     0.002 A 
ATOM     15  C6  <0> d           1.076  -2.237  -3.642  0.00  0.00     0.009 A 
ENDBRANCH   1   9
BRANCH   1  16
ATOM     16  N1  <0> d          -0.535  -2.899  -1.184  0.00  0.00    -0.055 N 
ATOM     17  H28 <0> d          -1.126  -2.545  -0.448  0.00  0.00     0.281 HD
BRANCH  16  18
ATOM     18  C11 <0> d          -0.311  -4.337  -0.984  0.00  0.00     0.262 C 
BRANCH  18  19
ATOM     19  C12 <0> d           0.238  -4.575   0.424  0.00  0.00     0.192 C 
BRANCH  19  20
ATOM     20  O1  <0> d          -0.747  -4.199   1.390  0.00  0.00    -0.399 OA
ATOM     21  H16 <0> d          -0.466  -4.324   2.307  0.00  0.00     0.209 HD
ENDBRANCH  19  20
ENDBRANCH  18  19
ENDBRANCH  16  18
BRANCH  16  22
ATOM     22  C13 <0> d          -1.188  -2.682  -2.483  0.00  0.00     0.189 C 
ATOM     23  C17 <0> d          -2.436  -3.573  -2.601  0.00  0.00     0.033 C 
ATOM     24  C16 <0> d          -3.640  -2.624  -2.777  0.00  0.00     0.002 C 
ATOM     25  C15 <0> d          -3.020  -1.327  -3.353  0.00  0.00     0.002 C 
ATOM     26  C14 <0> d          -1.676  -1.222  -2.591  0.00  0.00     0.033 C 
ENDBRANCH  16  22
ENDBRANCH   1  16
TORSDOF 9
