REMARK  6 active torsions:
REMARK  status: ('A' for Active; 'I' for Inactive)
REMARK    1  A    between atoms: C2_2  and  N1_4 
REMARK    2  A    between atoms: C6_7  and  C8_9 
REMARK    3  A    between atoms: C8_9  and  N2_10 
REMARK       I    between atoms: N2_10  and  C9_11 
REMARK       I    between atoms: C9_11  and  N3_13 
REMARK    4  A    between atoms: N3_13  and  N4_14 
REMARK       I    between atoms: N4_14  and  C10_15 
REMARK    5  A    between atoms: C10_15  and  C11_17 
REMARK    6  A    between atoms: C11_17  and  C12_18 
ROOT
ATOM      1  N2  <0> d           1.714  -3.645   4.478  0.00  0.00    -0.341 N 
ATOM      2  C9  <0> d           2.700  -4.348   5.072  0.00  0.00     0.334 C 
ATOM      3  O1  <0> d           3.720  -4.600   4.460  0.00  0.00    -0.246 OA
ATOM      4  N3  <0> d           2.554  -4.772   6.343  0.00  0.00    -0.249 N 
ATOM      5  H17 <0> d           0.901  -3.443   4.966  0.00  0.00     0.164 HD
ATOM      6  H18 <0> d           3.263  -5.278   6.769  0.00  0.00     0.192 HD
ENDROOT
BRANCH   1   7
ATOM      7  C8  <0> d           1.873  -3.184   3.097  0.00  0.00     0.130 C 
BRANCH   7   8
ATOM      8  C6  <0> d           0.621  -2.416   2.668  0.00  0.00     0.031 C 
ATOM      9  C5  <0> d           0.491  -1.107   3.479  0.00  0.00     0.035 C 
ATOM     10  C4  <0> d          -0.018  -0.094   2.423  0.00  0.00     0.236 C 
ATOM     11  N1  <0> d           0.713  -0.491   1.192  0.00  0.00    -0.067 N 
ATOM     12  C7  <0> d           0.742  -1.969   1.200  0.00  0.00     0.241 C 
ATOM     13  H33 <0> d           1.652  -0.124   1.211  0.00  0.00     0.280 HD
BRANCH  11  14
ATOM     14  C2  <0> d           0.002  -0.004   0.002  0.00  0.00     0.180 C 
ATOM     15  C1  <0> d          -0.019   1.526   0.010  0.00  0.00     0.039 C 
ATOM     16  C3  <0> d           0.718  -0.497  -1.257  0.00  0.00     0.039 C 
ENDBRANCH  11  14
ENDBRANCH   7   8
ENDBRANCH   1   7
BRANCH   4  17
ATOM     17  N4  <0> d           1.378  -4.481   7.047  0.00  0.00    -0.266 N 
ATOM     18  C10 <0> d           1.232  -4.905   8.318  0.00  0.00     0.236 C 
ATOM     19  O2  <0> d           2.119  -5.538   8.852  0.00  0.00    -0.272 OA
ATOM     20  H19 <0> d           0.669  -3.975   6.620  0.00  0.00     0.190 HD
BRANCH  18  21
ATOM     21  C11 <0> d          -0.032  -4.592   9.076  0.00  0.00     0.109 C 
BRANCH  21  22
ATOM     22  C12 <0> d           0.059  -5.183  10.485  0.00  0.00    -0.006 C 
ATOM     23  C17 <0> d          -1.169  -4.761  11.295  0.00  0.00     0.005 C 
ATOM     24  C16 <0> d          -1.078  -5.351  12.704  0.00  0.00     0.000 C 
ATOM     25  C15 <0> d          -1.027  -6.878  12.614  0.00  0.00     0.000 C 
ATOM     26  C14 <0> d           0.201  -7.300  11.804  0.00  0.00     0.000 C 
ATOM     27  C13 <0> d           0.110  -6.710  10.396  0.00  0.00     0.005 C 
ENDBRANCH  21  22
ENDBRANCH  18  21
ENDBRANCH   4  17
TORSDOF 6
