REMARK  7 active torsions:
REMARK  status: ('A' for Active; 'I' for Inactive)
REMARK    1  A    between atoms: O1_2  and  C2_3 
REMARK    2  A    between atoms: C2_3  and  C3_4 
REMARK    3  A    between atoms: C3_4  and  N1_5 
REMARK    4  A    between atoms: N1_5  and  C4_6 
REMARK    5  A    between atoms: N1_5  and  S1_13 
REMARK    6  A    between atoms: C4_6  and  C5_7 
REMARK    7  A    between atoms: S1_13  and  C10_16 
ROOT
ATOM      1  N1  <0> d           1.401  -2.532  -0.162  0.00  0.00    -0.299 N 
ENDROOT
BRANCH   1   2
ATOM      2  C3  <0> d           0.633  -2.108   1.011  0.00  0.00     0.162 C 
BRANCH   2   3
ATOM      3  C2  <0> d           0.673  -0.582   1.123  0.00  0.00     0.187 C 
BRANCH   3   4
ATOM      4  O1  <0> d           0.002  -0.004   0.002  0.00  0.00    -0.394 OA
ATOM      5  C1  <0> d          -0.017   1.425   0.010  0.00  0.00     0.201 C 
ENDBRANCH   3   4
ENDBRANCH   2   3
ENDBRANCH   1   2
BRANCH   1   6
ATOM      6  C4  <0> d           2.851  -2.718  -0.060  0.00  0.00     0.194 C 
BRANCH   6   7
ATOM      7  C5  <0> d           3.144  -4.104   0.453  0.00  0.00     0.052 A 
ATOM      8  N2  <0> d           3.147  -4.331   1.752  0.00  0.00    -0.264 NA
ATOM      9  C9  <0> d           3.393  -5.529   2.247  0.00  0.00     0.117 A 
ATOM     10  C8  <0> d           3.669  -6.595   1.412  0.00  0.00     0.019 A 
ATOM     11  C7  <0> d           3.680  -6.394   0.040  0.00  0.00     0.003 A 
ATOM     12  C6  <0> d           3.411  -5.122  -0.443  0.00  0.00     0.029 A 
ENDBRANCH   6   7
ENDBRANCH   1   6
BRANCH   1  13
ATOM     13  S1  <0> d           0.632  -2.800  -1.604  0.00  0.00     0.264 S 
ATOM     14  O2  <0> d           1.378  -3.801  -2.282  0.00  0.00    -0.200 OA
ATOM     15  O3  <0> d          -0.749  -2.950  -1.305  0.00  0.00    -0.200 OA
BRANCH  13  16
ATOM     16  C10 <0> d           0.783  -1.326  -2.557  0.00  0.00     0.115 A 
ATOM     17  C12 <0> d           1.820  -1.024  -3.446  0.00  0.00     0.165 A 
ATOM     18  N4  <0> d           1.583   0.153  -3.966  0.00  0.00    -0.186 NA
ATOM     19  N3  <0> d           0.391   0.642  -3.416  0.00  0.00    -0.288 N 
ATOM     20  C11 <0> d          -0.080  -0.284  -2.555  0.00  0.00     0.136 A 
ATOM     21  H1  <0> d          -0.023   1.496  -3.618  0.00  0.00     0.188 HD
ENDBRANCH  13  16
ENDBRANCH   1  13
TORSDOF 7
