REMARK  8 active torsions:
REMARK  status: ('A' for Active; 'I' for Inactive)
REMARK    1  A    between atoms: C2_2  and  C3_3 
REMARK    2  A    between atoms: C6_6  and  C11_13 
REMARK    3  A    between atoms: C13_15  and  O2_19 
REMARK    4  A    between atoms: O2_19  and  C16_20 
REMARK    5  A    between atoms: C16_20  and  C17_21 
REMARK    6  A    between atoms: C17_21  and  C18_22 
REMARK    7  A    between atoms: C17_21  and  N4_32 
REMARK    8  A    between atoms: C18_22  and  C19_23 
ROOT
ATOM      1  C11 <0> d          -0.653  -5.261  -1.840  0.00  0.00    -0.006 A 
ATOM      2  C12 <0> d          -0.805  -6.636  -1.647  0.00  0.00     0.052 A 
ATOM      3  C13 <0> d          -0.333  -7.494  -2.632  0.00  0.00     0.087 A 
ATOM      4  C14 <0> d           0.267  -6.960  -3.764  0.00  0.00     0.152 A 
ATOM      5  N2  <0> d           0.395  -5.656  -3.914  0.00  0.00    -0.269 NA
ATOM      6  C15 <0> d          -0.043  -4.806  -3.008  0.00  0.00     0.128 A 
ENDROOT
BRANCH   3   7
ATOM      7  O2  <0> d          -0.458  -8.840  -2.490  0.00  0.00    -0.348 OA
BRANCH   7   8
ATOM      8  C16 <0> d           0.052  -9.655  -3.547  0.00  0.00     0.208 C 
BRANCH   8   9
ATOM      9  C17 <0> d          -0.177 -11.129  -3.210  0.00  0.00     0.211 C 
BRANCH   9  10
ATOM     10  C18 <0> d           0.479 -12.004  -4.280  0.00  0.00     0.071 C 
BRANCH  10  11
ATOM     11  C19 <0> d           0.361 -13.454  -3.886  0.00  0.00    -0.048 A 
ATOM     12  C26 <0> d           1.289 -14.228  -2.977  0.00  0.00     0.155 A 
ATOM     13  N3  <0> d           0.744 -15.588  -2.909  0.00  0.00    -0.385 N 
ATOM     14  C25 <0> d          -0.332 -15.645  -3.656  0.00  0.00     0.038 A 
ATOM     15  H27 <0> d           1.118 -16.323  -2.399  0.00  0.00     0.160 HD
ATOM     16  C20 <0> d          -0.594 -14.328  -4.279  0.00  0.00    -0.006 A 
ATOM     17  C24 <0> d          -1.230 -16.710  -3.944  0.00  0.00     0.030 A 
ATOM     18  C21 <0> d          -1.764 -14.195  -5.155  0.00  0.00     0.014 A 
ATOM     19  C22 <0> d          -2.554 -15.273  -5.362  0.00  0.00     0.001 A 
ATOM     20  C23 <0> d          -2.285 -16.511  -4.761  0.00  0.00     0.002 A 
ENDBRANCH  10  11
ENDBRANCH   9  10
BRANCH   9  21
ATOM     21  N4  <0> d          -1.619 -11.404  -3.170  0.00  0.00    -0.073 N 
ATOM     22  H25 <0> d          -2.026 -11.197  -4.069  0.00  0.00     0.274 HD
ATOM     23  H26 <0> d          -1.770 -12.377  -2.948  0.00  0.00     0.274 HD
ATOM     24  H28 <0> d          -2.051 -10.827  -2.464  0.00  0.00     0.274 HD
ENDBRANCH   9  21
ENDBRANCH   8   9
ENDBRANCH   7   8
ENDBRANCH   3   7
BRANCH   1  25
ATOM     25  C6  <0> d          -1.138  -4.299  -0.820  0.00  0.00    -0.024 A 
ATOM     26  C5  <0> d          -0.989  -2.927  -1.022  0.00  0.00     0.022 A 
ATOM     27  C4  <0> d          -1.442  -2.043  -0.071  0.00  0.00    -0.017 A 
ATOM     28  C3  <0> d          -1.433  -0.534   0.013  0.00  0.00     0.113 A 
ATOM     29  C9  <0> d          -2.050  -2.496   1.093  0.00  0.00     0.042 A 
ATOM     30  C10 <0> d          -2.100  -0.233   1.338  0.00  0.00     0.230 A 
ATOM     31  N1  <0> d          -2.421  -1.416   1.895  0.00  0.00    -0.326 N 
ATOM     32  O1  <0> d          -2.304   0.866   1.809  0.00  0.00    -0.272 OA
ATOM     33  H11 <0> d          -2.862  -1.507   2.754  0.00  0.00     0.169 HD
ATOM     34  C8  <0> d          -2.199  -3.869   1.292  0.00  0.00     0.031 A 
ATOM     35  C7  <0> d          -1.748  -4.761   0.346  0.00  0.00     0.014 A 
BRANCH  28  36
ATOM     36  C2  <0> d           0.002  -0.004   0.002  0.00  0.00     0.014 C 
ATOM     37  C1  <0> d          -0.019   1.526   0.010  0.00  0.00     0.006 C 
ENDBRANCH  28  36
ENDBRANCH   1  25
TORSDOF 8
