REMARK  6 active torsions:
REMARK  status: ('A' for Active; 'I' for Inactive)
REMARK    1  A    between atoms: C4_4  and  C7_7 
REMARK    2  A    between atoms: C7_7  and  C8_8 
REMARK    3  A    between atoms: C8_8  and  C9_9 
REMARK    4  A    between atoms: C15_18  and  C16_19 
REMARK    5  A    between atoms: C15_18  and  N4_27 
REMARK    6  A    between atoms: C21_24  and  O1_25 
ROOT
ATOM      1  C9  <0> d           2.362   1.638   3.481  0.00  0.00     0.130 A 
ATOM      2  N1  <0> d           2.817   2.828   3.189  0.00  0.00    -0.135 NA
ATOM      3  N2  <0> d           2.539   3.111   1.964  0.00  0.00    -0.135 NA
ATOM      4  C10 <0> d           1.903   2.115   1.421  0.00  0.00     0.131 A 
ATOM      5  N3  <0> d           1.759   1.159   2.372  0.00  0.00    -0.319 N 
ATOM      6  C11 <0> d           1.073  -0.122   2.207  0.00  0.00     0.159 C 
ATOM      7  C12 <0> d           1.149  -0.548   0.738  0.00  0.00     0.255 C 
ATOM      8  C13 <0> d          -0.018   1.460   0.010  0.00  0.00     0.243 C 
ATOM      9  C14 <0> d           1.417   1.996  -0.001  0.00  0.00     0.108 C 
ATOM     10  N4  <0> d          -0.001  -0.018  -0.033  0.00  0.00    -0.065 N 
ATOM     11  H25 <0> d           0.090  -0.320  -1.010  0.00  0.00     0.280 HD
ENDROOT
BRANCH  10  12
ATOM     12  C15 <0> d          -1.261  -0.550   0.516  0.00  0.00     0.276 C 
BRANCH  12  13
ATOM     13  C16 <0> d          -2.381  -0.202  -0.430  0.00  0.00     0.001 A 
ATOM     14  C21 <0> d          -2.567  -0.942  -1.588  0.00  0.00     0.073 A 
ATOM     15  C20 <0> d          -3.602  -0.621  -2.455  0.00  0.00     0.037 A 
ATOM     16  C19 <0> d          -4.439   0.439  -2.167  0.00  0.00     0.003 A 
ATOM     17  C18 <0> d          -4.248   1.179  -1.014  0.00  0.00     0.001 A 
ATOM     18  C17 <0> d          -3.220   0.858  -0.146  0.00  0.00     0.011 A 
BRANCH  14  19
ATOM     19  O1  <0> d          -1.739  -1.982  -1.872  0.00  0.00    -0.360 OA
ATOM     20  H24 <0> d          -2.038  -2.830  -1.518  0.00  0.00     0.217 HD
ENDBRANCH  14  19
ENDBRANCH  12  13
ENDBRANCH  10  12
BRANCH   1  21
ATOM     21  C8  <0> d           2.486   0.932   4.807  0.00  0.00     0.085 C 
BRANCH  21  22
ATOM     22  C7  <0> d           3.776   0.111   4.829  0.00  0.00     0.046 C 
BRANCH  22  23
ATOM     23  C4  <0> d           3.900  -0.595   6.155  0.00  0.00    -0.058 A 
ATOM     24  C3  <0> d           3.365  -1.859   6.318  0.00  0.00     0.007 A 
ATOM     25  C2  <0> d           3.479  -2.506   7.534  0.00  0.00     0.001 A 
ATOM     26  C1  <0> d           4.127  -1.889   8.587  0.00  0.00     0.000 A 
ATOM     27  C6  <0> d           4.662  -0.625   8.424  0.00  0.00     0.001 A 
ATOM     28  C5  <0> d           4.553   0.020   7.206  0.00  0.00     0.007 A 
ENDBRANCH  22  23
ENDBRANCH  21  22
ENDBRANCH   1  21
TORSDOF 6
