REMARK  6 active torsions:
REMARK  status: ('A' for Active; 'I' for Inactive)
REMARK    1  A    between atoms: N2_6  and  C5_7 
REMARK    2  A    between atoms: C5_7  and  C6_8 
REMARK    3  A    between atoms: C6_8  and  O1_9 
REMARK    4  A    between atoms: O1_9  and  C7_10 
REMARK    5  A    between atoms: C10_13  and  C13_17 
REMARK    6  A    between atoms: C13_17  and  N3_18 
ROOT
ATOM      1  C7  <0> d          -2.604   0.606   4.882  0.00  0.00     0.086 A 
ATOM      2  C8  <0> d          -3.769   0.453   4.145  0.00  0.00     0.039 A 
ATOM      3  C9  <0> d          -4.993   0.729   4.724  0.00  0.00     0.011 A 
ATOM      4  C10 <0> d          -5.057   1.158   6.037  0.00  0.00    -0.031 A 
ATOM      5  C11 <0> d          -3.897   1.312   6.774  0.00  0.00     0.030 A 
ATOM      6  C12 <0> d          -2.671   1.031   6.201  0.00  0.00     0.044 A 
ATOM      7 Br1  <0> d          -1.086   1.234   7.212  0.00  0.00    -0.048 Br
ENDROOT
BRANCH   1   8
ATOM      8  O1  <0> d          -1.399   0.335   4.314  0.00  0.00    -0.348 OA
BRANCH   8   9
ATOM      9  C6  <0> d          -1.406  -0.098   2.953  0.00  0.00     0.196 C 
BRANCH   9  10
ATOM     10  C5  <0> d           0.030  -0.353   2.491  0.00  0.00     0.156 C 
BRANCH  10  11
ATOM     11  N2  <0> d           0.023  -0.797   1.095  0.00  0.00    -0.344 N 
ATOM     12  C2  <0> d           0.002  -0.004   0.002  0.00  0.00     0.079 A 
ATOM     13  C1  <0> d          -0.018   1.503   0.010  0.00  0.00     0.089 C 
ATOM     14  N1  <0> d           0.008  -0.759  -1.063  0.00  0.00    -0.355 N 
ATOM     15  C3  <0> d           0.028  -2.047  -0.691  0.00  0.00     0.106 A 
ATOM     16  H20 <0> d          -0.000  -0.438  -1.978  0.00  0.00     0.166 HD
ATOM     17  C4  <0> d           0.034  -2.093   0.655  0.00  0.00     0.109 A 
ENDBRANCH  10  11
ENDBRANCH   9  10
ENDBRANCH   8   9
ENDBRANCH   1   8
BRANCH   4  18
ATOM     18  C13 <0> d          -6.393   1.459   6.665  0.00  0.00     0.270 C 
BRANCH  18  19
ATOM     19  N3  <0> d          -6.924   0.242   7.294  0.00  0.00    -0.075 N 
ATOM     20  C14 <0> d          -8.226   0.536   7.907  0.00  0.00     0.267 C 
ATOM     21  H15 <0> d          -7.035  -0.477   6.595  0.00  0.00     0.277 HD
ATOM     22  H19 <0> d          -6.282  -0.076   8.005  0.00  0.00     0.277 HD
ENDBRANCH  18  19
ENDBRANCH   4  18
TORSDOF 6
