REMARK  7 active torsions:
REMARK  status: ('A' for Active; 'I' for Inactive)
REMARK    1  A    between atoms: O1_2  and  C2_3 
REMARK    2  A    between atoms: C4_5  and  O4_30 
REMARK    3  A    between atoms: C7_8  and  N1_9 
REMARK       I    between atoms: N1_9  and  C8_10 
REMARK       I    between atoms: C8_10  and  N2_12 
REMARK    4  A    between atoms: N2_12  and  C9_13 
REMARK    5  A    between atoms: C9_13  and  C10_14 
REMARK    6  A    between atoms: C11_17  and  C12_19 
REMARK       I    between atoms: C12_19  and  N5_21 
REMARK    7  A    between atoms: N5_21  and  C13_22 
ROOT
ATOM      1  N1  <0> d          -0.351  -3.220  -0.502  0.00  0.00    -0.306 N 
ATOM      2  C8  <0> d          -0.337  -4.536  -0.211  0.00  0.00     0.321 C 
ATOM      3  O2  <0> d          -1.384  -5.138  -0.067  0.00  0.00    -0.247 OA
ATOM      4  N2  <0> d           0.837  -5.185  -0.079  0.00  0.00    -0.337 N 
ATOM      5  H6  <0> d           0.479  -2.759  -0.700  0.00  0.00     0.171 HD
ATOM      6  H7  <0> d           1.672  -4.705  -0.194  0.00  0.00     0.164 HD
ENDROOT
BRANCH   4   7
ATOM      7  C9  <0> d           0.852  -6.615   0.237  0.00  0.00     0.193 C 
BRANCH   7   8
ATOM      8  C10 <0> d           2.278  -7.094   0.329  0.00  0.00     0.117 A 
ATOM      9  S1  <0> d           3.269  -7.715  -0.885  0.00  0.00    -0.044 SA
ATOM     10  C11 <0> d           4.713  -7.992   0.131  0.00  0.00     0.189 A 
ATOM     11  N4  <0> d           4.256  -7.574   1.308  0.00  0.00    -0.136 NA
ATOM     12  N3  <0> d           3.071  -7.142   1.381  0.00  0.00    -0.144 NA
BRANCH  10  13
ATOM     13  C12 <0> d           6.033  -8.534  -0.232  0.00  0.00     0.283 C 
ATOM     14  O3  <0> d           6.260  -8.864  -1.380  0.00  0.00    -0.265 OA
ATOM     15  N5  <0> d           6.990  -8.663   0.708  0.00  0.00    -0.321 N 
ATOM     16  H10 <0> d           6.787  -8.468   1.637  0.00  0.00     0.169 HD
BRANCH  15  17
ATOM     17  C13 <0> d           8.276  -9.079   0.345  0.00  0.00     0.035 A 
ATOM     18  C18 <0> d           8.808  -8.703  -0.881  0.00  0.00     0.032 A 
ATOM     19  C17 <0> d          10.080  -9.110  -1.235  0.00  0.00     0.044 A 
ATOM     20  C16 <0> d          10.819  -9.902  -0.373  0.00  0.00     0.116 A 
ATOM     21  C15 <0> d          10.289 -10.282   0.848  0.00  0.00     0.044 A 
ATOM     22  F1  <0> d          12.061 -10.303  -0.723  0.00  0.00    -0.206 F 
ATOM     23  C14 <0> d           9.020  -9.873   1.209  0.00  0.00     0.032 A 
ENDBRANCH  15  17
ENDBRANCH  10  13
ENDBRANCH   7   8
ENDBRANCH   4   7
BRANCH   1  24
ATOM     24  C7  <0> d          -1.566  -2.518  -0.519  0.00  0.00     0.071 A 
ATOM     25  C2  <0> d          -1.658  -1.301  -1.190  0.00  0.00     0.097 A 
ATOM     26  C3  <0> d          -2.860  -0.613  -1.210  0.00  0.00     0.077 A 
ATOM     27  C4  <0> d          -3.968  -1.134  -0.559  0.00  0.00     0.092 A 
ATOM     28  C5  <0> d          -3.873  -2.344   0.114  0.00  0.00     0.069 A 
ATOM     29  C6  <0> d          -2.675  -3.033   0.136  0.00  0.00     0.059 A 
ATOM     30 Cl1  <0> d          -5.262  -2.994   0.929  0.00  0.00    -0.081 Cl
BRANCH  25  31
ATOM     31  O1  <0> d          -0.571  -0.792  -1.829  0.00  0.00    -0.354 OA
ATOM     32  C1  <0> d          -0.739   0.461  -2.496  0.00  0.00     0.210 C 
ENDBRANCH  25  31
BRANCH  27  33
ATOM     33  O4  <0> d          -5.148  -0.458  -0.578  0.00  0.00    -0.354 OA
ATOM     34  C19 <0> d          -5.174   0.782  -1.289  0.00  0.00     0.210 C 
ENDBRANCH  27  33
ENDBRANCH   1  24
TORSDOF 7
