REMARK  5 active torsions:
REMARK  status: ('A' for Active; 'I' for Inactive)
REMARK    1  A    between atoms: N1_2  and  S1_4 
REMARK    2  A    between atoms: S1_4  and  C3_7 
REMARK    3  A    between atoms: C8_12  and  S2_13 
REMARK    4  A    between atoms: S2_13  and  N2_16 
REMARK       I    between atoms: C9_17  and  N3_19 
REMARK    5  A    between atoms: N3_19  and  C10_20 
ROOT
ATOM      1  S2  <0> d           1.544   1.859  -1.812  0.00  0.00     0.288 S 
ATOM      2  O3  <0> d           0.800   1.733  -0.608  0.00  0.00    -0.198 OA
ATOM      3  O4  <0> d           2.558   2.840  -1.981  0.00  0.00    -0.198 OA
ENDROOT
BRANCH   1   4
ATOM      4  C8  <0> d           2.304   0.295  -2.101  0.00  0.00     0.105 A 
ATOM      5  C3  <0> d           1.562  -0.865  -1.983  0.00  0.00     0.102 A 
ATOM      6  C4  <0> d           2.157  -2.092  -2.215  0.00  0.00     0.027 A 
ATOM      7  C5  <0> d           3.493  -2.158  -2.560  0.00  0.00     0.002 A 
ATOM      8  C6  <0> d           4.236  -0.997  -2.673  0.00  0.00     0.002 A 
ATOM      9  C7  <0> d           3.642   0.229  -2.442  0.00  0.00     0.027 A 
BRANCH   5  10
ATOM     10  S1  <0> d          -0.142  -0.781  -1.543  0.00  0.00     0.261 S 
ATOM     11  O1  <0> d          -0.749   0.136  -2.443  0.00  0.00    -0.200 OA
ATOM     12  O2  <0> d          -0.190  -0.610  -0.133  0.00  0.00    -0.200 OA
BRANCH  10  13
ATOM     13  N1  <0> d          -0.804  -2.265  -1.862  0.00  0.00    -0.315 N 
ATOM     14  C1  <0> d          -0.911  -3.264  -0.796  0.00  0.00     0.162 C 
ATOM     15  C2  <0> d          -1.281  -2.579  -3.211  0.00  0.00     0.162 C 
ENDBRANCH  10  13
ENDBRANCH   5  10
ENDBRANCH   1   4
BRANCH   1  16
ATOM     16  N2  <0> d           0.444   2.101  -3.025  0.00  0.00    -0.115 NA
ATOM     17  C9  <0> d          -0.264   3.191  -3.053  0.00  0.00     0.290 C 
ATOM     18  O5  <0> d          -0.102   4.126  -2.091  0.00  0.00    -0.148 OA
ATOM     19  N3  <0> d          -1.179   3.392  -4.062  0.00  0.00    -0.302 N 
ATOM     20  H11 <0> d          -1.351   2.690  -4.708  0.00  0.00     0.171 HD
BRANCH  19  21
ATOM     21  C10 <0> d          -1.856   4.602  -4.154  0.00  0.00     0.139 A 
ATOM     22  N5  <0> d          -1.558   5.606  -3.336  0.00  0.00    -0.185 NA
ATOM     23  C13 <0> d          -2.195   6.759  -3.422  0.00  0.00     0.313 A 
ATOM     24  N4  <0> d          -3.153   6.960  -4.309  0.00  0.00    -0.173 NA
ATOM     25  F1  <0> d          -1.862   7.760  -2.578  0.00  0.00    -0.161 F 
ATOM     26  C12 <0> d          -3.510   6.002  -5.156  0.00  0.00     0.217 A 
ATOM     27  C11 <0> d          -2.862   4.778  -5.103  0.00  0.00     0.114 A 
ATOM     28  F2  <0> d          -4.491   6.218  -6.059  0.00  0.00    -0.184 F 
ENDBRANCH  19  21
ENDBRANCH   1  16
TORSDOF 5
