REMARK  2 active torsions:
REMARK  status: ('A' for Active; 'I' for Inactive)
REMARK    1  A    between atoms: C5_5  and  S2_7 
REMARK    2  A    between atoms: S2_7  and  N1_10 
ROOT
ATOM      1  N1  <0> d          -3.237   4.631   0.058  0.00  0.00    -0.306 N 
ATOM      2  C6  <0> d          -2.745   4.051   1.315  0.00  0.00     0.138 C 
ATOM      3  C7  <0> d          -1.213   4.052   1.291  0.00  0.00     0.061 C 
ATOM      4  C8  <0> d          -0.725   3.352   0.027  0.00  0.00     0.118 A 
ATOM      5  C9  <0> d          -1.237   4.066  -1.220  0.00  0.00     0.061 C 
ATOM      6  C10 <0> d          -2.769   4.064  -1.214  0.00  0.00     0.138 C 
ATOM      7  C11 <0> d           0.785   3.285   0.012  0.00  0.00     0.254 A 
ATOM      8  O3  <0> d           1.561   4.217   0.010  0.00  0.00    -0.270 OA
ATOM      9  N2  <0> d           1.088   1.971   0.002  0.00  0.00    -0.277 N 
ATOM     10  C12 <0> d          -0.014   1.211   0.009  0.00  0.00     0.323 A 
ATOM     11  O4  <0> d           0.002  -0.004   0.002  0.00  0.00    -0.247 OA
ATOM     12  N3  <0> d          -1.144   1.945   0.018  0.00  0.00    -0.324 N 
ATOM     13  H14 <0> d           2.140   1.648  -0.009  0.00  0.00     0.173 HD
ATOM     14  H15 <0> d          -2.214   1.690   0.019  0.00  0.00     0.165 HD
ENDROOT
BRANCH   1  15
ATOM     15  S2  <0> d          -4.299   5.902   0.074  0.00  0.00     0.267 S 
ATOM     16  O1  <0> d          -4.994   5.867  -1.164  0.00  0.00    -0.200 OA
ATOM     17  O2  <0> d          -4.970   5.854   1.326  0.00  0.00    -0.200 OA
BRANCH  15  18
ATOM     18  C5  <0> d          -3.341   7.381   0.073  0.00  0.00     0.120 A 
ATOM     19  C4  <0> d          -2.888   8.103  -0.981  0.00  0.00     0.034 A 
ATOM     20  C3  <0> d          -2.146   9.245  -0.742  0.00  0.00     0.016 A 
ATOM     21  C2  <0> d          -1.895   9.609   0.540  0.00  0.00    -0.020 A 
ATOM     22  C1  <0> d          -1.121  10.795   1.055  0.00  0.00     0.056 C 
ATOM     23  S1  <0> d          -2.724   8.322   1.458  0.00  0.00    -0.082 SA
ENDBRANCH  15  18
ENDBRANCH   1  15
TORSDOF 2
