REMARK  1 active torsions:
REMARK  status: ('A' for Active; 'I' for Inactive)
REMARK    1  A    between atoms: C12_13  and  C13_14 
REMARK       I    between atoms: C13_14  and  N2_16 
ROOT
ATOM      1  C1  <0> d          -0.017   1.375   0.010  0.00  0.00     0.001 A 
ATOM      2  C2  <0> d           1.169   2.089   0.002  0.00  0.00     0.001 A 
ATOM      3  C3  <0> d           2.383   1.424  -0.016  0.00  0.00     0.010 A 
ATOM      4  C4  <0> d           2.416   0.048  -0.025  0.00  0.00    -0.024 A 
ATOM      5  C5  <0> d           1.223  -0.683  -0.013  0.00  0.00    -0.026 A 
ATOM      6  C6  <0> d           0.002  -0.004   0.002  0.00  0.00     0.012 A 
ATOM      7  C7  <0> d           1.247  -2.159  -0.009  0.00  0.00     0.029 C 
ATOM      8  C8  <0> d           2.377  -2.799  -0.370  0.00  0.00     0.088 C 
ATOM      9  N1  <0> d           3.458  -2.007  -0.702  0.00  0.00    -0.366 N 
ATOM     10  C9  <0> d           3.728  -0.693  -0.051  0.00  0.00     0.130 C 
ATOM     11  C10 <0> d           4.740  -0.025  -0.961  0.00  0.00     0.097 C 
ATOM     12  C11 <0> d           5.585  -1.268  -1.392  0.00  0.00     0.062 C 
ATOM     13  C12 <0> d           4.480  -2.251  -1.745  0.00  0.00     0.183 C 
ATOM     14  C14 <0> d           6.568  -0.824  -2.452  0.00  0.00     0.156 C 
ATOM     15  C15 <0> d           7.965  -0.827  -1.763  0.00  0.00     0.204 C 
ATOM     16  O2  <0> d           8.034   0.433  -1.073  0.00  0.00    -0.352 OA
ATOM     17  C16 <0> d           6.872   1.199  -1.418  0.00  0.00     0.331 C 
ATOM     18  C17 <0> d           5.744   0.931  -0.379  0.00  0.00     0.188 C 
ATOM     19  O3  <0> d           5.676   1.410   0.728  0.00  0.00    -0.292 OA
ATOM     20  O4  <0> d           6.362   0.602  -2.673  0.00  0.00    -0.346 OA
ENDROOT
BRANCH  13  21
ATOM     21  C13 <0> d           3.923  -1.954  -3.113  0.00  0.00     0.238 C 
ATOM     22  O1  <0> d           2.929  -1.269  -3.228  0.00  0.00    -0.271 OA
ATOM     23  N2  <0> d           4.529  -2.450  -4.210  0.00  0.00    -0.368 N 
ATOM     24  H13 <0> d           5.324  -2.998  -4.119  0.00  0.00     0.159 HD
ATOM     25  H14 <0> d           4.170  -2.259  -5.091  0.00  0.00     0.159 HD
ENDBRANCH  13  21
TORSDOF 1
