REMARK  5 active torsions:
REMARK  status: ('A' for Active; 'I' for Inactive)
REMARK    1  A    between atoms: N1_7  and  S1_8 
REMARK    2  A    between atoms: S1_8  and  N2_11 
REMARK    3  A    between atoms: N3_14  and  C11_17 
REMARK    4  A    between atoms: C11_17  and  C12_18 
REMARK    5  A    between atoms: C12_18  and  C13_19 
ROOT
ATOM      1  N2  <0> d           0.193   0.782   3.578  0.00  0.00    -0.291 N 
ATOM      2  C7  <0> d          -0.883   1.778   3.459  0.00  0.00     0.164 C 
ATOM      3  C8  <0> d          -2.214   1.099   3.799  0.00  0.00     0.255 C 
ATOM      4  N3  <0> d          -2.116   0.467   5.121  0.00  0.00    -0.068 N 
ATOM      5  C9  <0> d          -1.120  -0.611   5.088  0.00  0.00     0.255 C 
ATOM      6  C10 <0> d           0.262  -0.020   4.809  0.00  0.00     0.164 C 
ATOM      7  H25 <0> d          -1.840   1.158   5.803  0.00  0.00     0.280 HD
ENDROOT
BRANCH   1   8
ATOM      8  S1  <0> d           1.290   0.564   2.357  0.00  0.00     0.319 S 
ATOM      9  O1  <0> d           2.317  -0.268   2.878  0.00  0.00    -0.182 OA
ATOM     10  O2  <0> d           1.554   1.850   1.814  0.00  0.00    -0.182 OA
BRANCH   8  11
ATOM     11  N1  <0> d           0.534  -0.306   1.168  0.00  0.00    -0.290 N 
ATOM     12  C2  <0> d           0.420  -1.767   1.267  0.00  0.00     0.093 C 
ATOM     13  C1  <0> d           1.219  -2.264   2.474  0.00  0.00     0.033 C 
ATOM     14  C3  <0> d           0.980  -2.396  -0.013  0.00  0.00     0.026 C 
ATOM     15  C4  <0> d           0.270  -1.791  -1.227  0.00  0.00     0.004 C 
ATOM     16  C5  <0> d           0.532  -0.284  -1.274  0.00  0.00     0.021 C 
ATOM     17  C6  <0> d          -0.032   0.369  -0.009  0.00  0.00     0.137 C 
ENDBRANCH   8  11
ENDBRANCH   1   8
BRANCH   4  18
ATOM     18  C11 <0> d          -3.424  -0.088   5.494  0.00  0.00     0.245 C 
BRANCH  18  19
ATOM     19  C12 <0> d          -3.357  -0.636   6.921  0.00  0.00     0.141 C 
BRANCH  19  20
ATOM     20  C13 <0> d          -4.698  -1.206   7.304  0.00  0.00     0.174 C 
ATOM     21  O3  <0> d          -5.622  -1.177   6.509  0.00  0.00    -0.648 OA
ATOM     22  O4  <0> d          -4.860  -1.696   8.409  0.00  0.00    -0.648 OA
ENDBRANCH  19  20
ENDBRANCH  18  19
ENDBRANCH   4  18
TORSDOF 5
