REMARK  3 active torsions:
REMARK  status: ('A' for Active; 'I' for Inactive)
REMARK    1  A    between atoms: C6_6  and  N1_8 
REMARK    2  A    between atoms: C8_9  and  O2_29 
REMARK    3  A    between atoms: C9_10  and  C12_16 
ROOT
ATOM      1  N1  <0> d           0.047  -2.533   2.419  0.00  0.00    -0.296 N 
ATOM      2  C8  <0> d           0.174  -1.943   3.752  0.00  0.00     0.242 C 
ATOM      3  C9  <0> d           1.000  -2.871   4.646  0.00  0.00     0.162 C 
ATOM      4  C10 <0> d           0.497  -4.284   4.490  0.00  0.00     0.234 C 
ATOM      5  O1  <0> d           0.510  -5.040   5.438  0.00  0.00    -0.273 OA
ATOM      6  N2  <0> d           0.035  -4.706   3.299  0.00  0.00    -0.303 N 
ATOM      7  C11 <0> d          -0.077  -3.861   2.260  0.00  0.00     0.183 C 
ATOM      8  S1  <0> d          -0.377  -4.491   0.698  0.00  0.00    -0.040 SA
ATOM      9  H11 <0> d          -0.226  -5.634   3.189  0.00  0.00     0.171 HD
ENDROOT
BRANCH   3  10
ATOM     10  C12 <0> d           2.471  -2.802   4.233  0.00  0.00     0.264 C 
ATOM     11  N4  <0> d           2.603  -3.136   2.806  0.00  0.00     0.091 N 
ATOM     12  C22 <0> d           3.995  -3.240   2.362  0.00  0.00     0.274 C 
ATOM     13  H20 <0> d           2.088  -3.975   2.583  0.00  0.00     0.316 HD
ATOM     14  C21 <0> d           4.689  -1.870   2.465  0.00  0.00     0.067 C 
ATOM     15  C14 <0> d           4.406  -1.357   3.856  0.00  0.00    -0.041 A 
ATOM     16  C13 <0> d           3.000  -1.381   4.446  0.00  0.00     0.146 A 
ATOM     17  C15 <0> d           5.207  -0.913   4.814  0.00  0.00    -0.005 A 
ATOM     18  N3  <0> d           3.143  -1.040   5.861  0.00  0.00    -0.379 N 
ATOM     19  C20 <0> d           4.411  -0.741   6.068  0.00  0.00     0.039 A 
ATOM     20  H25 <0> d           2.431  -1.040   6.519  0.00  0.00     0.160 HD
ATOM     21  C19 <0> d           5.064  -0.289   7.251  0.00  0.00     0.030 A 
ATOM     22  C18 <0> d           6.393  -0.026   7.169  0.00  0.00     0.002 A 
ATOM     23  C17 <0> d           7.157  -0.168   6.007  0.00  0.00     0.001 A 
ATOM     24  C16 <0> d           6.644  -0.596   4.823  0.00  0.00     0.014 A 
ENDBRANCH   3  10
BRANCH   2  25
ATOM     25  O2  <0> d          -1.125  -1.766   4.321  0.00  0.00    -0.375 OA
ATOM     26  H21 <0> d          -1.704  -1.188   3.807  0.00  0.00     0.212 HD
ENDBRANCH   2  25
BRANCH   1  27
ATOM     27  C6  <0> d           0.049  -1.702   1.294  0.00  0.00     0.040 A 
ATOM     28  C5  <0> d           1.238  -1.433   0.629  0.00  0.00     0.036 A 
ATOM     29  C4  <0> d           1.236  -0.612  -0.482  0.00  0.00    -0.059 A 
ATOM     30  C3  <0> d           0.052  -0.058  -0.932  0.00  0.00     0.013 A 
ATOM     31  C23 <0> d           2.527  -0.320  -1.204  0.00  0.00     0.048 C 
ATOM     32  C2  <0> d          -1.134  -0.324  -0.273  0.00  0.00    -0.059 A 
ATOM     33  C1  <0> d          -2.422   0.282  -0.767  0.00  0.00     0.048 C 
ATOM     34  C7  <0> d          -1.138  -1.140   0.842  0.00  0.00     0.036 A 
ENDBRANCH   1  27
TORSDOF 3
