REMARK  5 active torsions:
REMARK  status: ('A' for Active; 'I' for Inactive)
REMARK    1  A    between atoms: C3_3  and  C6_7 
REMARK       I    between atoms: C6_7  and  N1_9 
REMARK    2  A    between atoms: N1_9  and  N2_10 
REMARK       I    between atoms: N2_10  and  C7_11 
REMARK    3  A    between atoms: C7_11  and  C8_13 
REMARK    4  A    between atoms: C8_13  and  S1_14 
REMARK    5  A    between atoms: S1_14  and  C9_17 
ROOT
ATOM      1  N2  <0> d          -1.223   2.083  -3.751  0.00  0.00    -0.266 N 
ATOM      2  C7  <0> d          -0.560   1.716  -2.636  0.00  0.00     0.250 C 
ATOM      3  O3  <0> d           0.499   1.132  -2.724  0.00  0.00    -0.271 OA
ATOM      4  H7  <0> d          -2.070   2.550  -3.680  0.00  0.00     0.190 HD
ENDROOT
BRANCH   2   5
ATOM      5  C8  <0> d          -1.135   2.034  -1.279  0.00  0.00     0.250 C 
BRANCH   5   6
ATOM      6  S1  <0> d          -0.017   1.417   0.010  0.00  0.00     0.184 S 
ATOM      7  O4  <0> d           0.002  -0.004   0.002  0.00  0.00    -0.222 OA
ATOM      8  O5  <0> d           1.195   2.158   0.002  0.00  0.00    -0.222 OA
BRANCH   6   9
ATOM      9  C9  <0> d          -0.798   1.847   1.530  0.00  0.00     0.059 A 
ATOM     10  C14 <0> d          -1.683   0.968   2.126  0.00  0.00     0.025 A 
ATOM     11  C13 <0> d          -2.295   1.305   3.318  0.00  0.00     0.025 A 
ATOM     12  C12 <0> d          -2.023   2.523   3.915  0.00  0.00     0.034 A 
ATOM     13  C11 <0> d          -1.137   3.403   3.318  0.00  0.00     0.025 A 
ATOM     14 Cl1  <0> d          -2.792   2.948   5.412  0.00  0.00    -0.084 Cl
ATOM     15  C10 <0> d          -0.521   3.062   2.129  0.00  0.00     0.025 A 
ENDBRANCH   6   9
ENDBRANCH   5   6
ENDBRANCH   2   5
BRANCH   1  16
ATOM     16  N1  <0> d          -0.689   1.788  -5.012  0.00  0.00    -0.263 N 
ATOM     17  C6  <0> d          -1.351   2.154  -6.127  0.00  0.00     0.272 C 
ATOM     18  O2  <0> d          -2.413   2.740  -6.038  0.00  0.00    -0.266 OA
ATOM     19  H6  <0> d           0.159   1.320  -5.083  0.00  0.00     0.190 HD
BRANCH  17  20
ATOM     20  C3  <0> d          -0.789   1.844  -7.454  0.00  0.00     0.064 A 
ATOM     21  C2  <0> d          -1.331   2.143  -8.669  0.00  0.00     0.064 A 
ATOM     22  C1  <0> d          -2.635   2.863  -8.900  0.00  0.00     0.077 C 
ATOM     23  O1  <0> d          -0.510   1.690  -9.621  0.00  0.00    -0.326 OA
ATOM     24  C5  <0> d           0.566   1.096  -9.081  0.00  0.00     0.143 A 
ATOM     25  C4  <0> d           0.476   1.153  -7.744  0.00  0.00     0.044 A 
ENDBRANCH  17  20
ENDBRANCH   1  16
TORSDOF 5
