REMARK  2 active torsions:
REMARK  status: ('A' for Active; 'I' for Inactive)
REMARK    1  A    between atoms: N2_7  and  S1_8 
REMARK    2  A    between atoms: S1_8  and  C6_11 
ROOT
ATOM      1  C1  <0> d          -0.521   1.406   0.343  0.00  0.00     0.034 C 
ATOM      2  C2  <0> d          -0.240  -0.090   0.187  0.00  0.00     0.117 C 
ATOM      3  C3  <0> d           0.228  -0.379  -1.243  0.00  0.00     0.257 C 
ATOM      4  N1  <0> d           0.625  -1.788  -1.351  0.00  0.00    -0.072 N 
ATOM      5  C4  <0> d           1.790  -2.046  -0.494  0.00  0.00     0.253 C 
ATOM      6  C5  <0> d           1.399  -1.839   0.973  0.00  0.00     0.163 C 
ATOM      7  N2  <0> d           0.822  -0.493   1.121  0.00  0.00    -0.299 N 
ATOM      8  H7  <0> d          -0.141  -2.376  -1.060  0.00  0.00     0.277 HD
ATOM      9  H14 <0> d           0.862  -1.998  -2.309  0.00  0.00     0.277 HD
ENDROOT
BRANCH   7  10
ATOM     10  S1  <0> d           1.358   0.539   2.299  0.00  0.00     0.269 S 
ATOM     11  O1  <0> d           2.578  -0.001   2.788  0.00  0.00    -0.200 OA
ATOM     12  O2  <0> d           1.267   1.851   1.762  0.00  0.00    -0.200 OA
BRANCH  10  13
ATOM     13  C6  <0> d           0.203   0.458   3.628  0.00  0.00     0.137 A 
ATOM     14  S2  <0> d          -1.285  -0.519   3.765  0.00  0.00    -0.087 SA
ATOM     15  C9  <0> d          -1.791   0.021   5.390  0.00  0.00     0.052 A 
ATOM     16  C8  <0> d          -0.811   0.901   5.712  0.00  0.00     0.028 A 
ATOM     17  C7  <0> d           0.211   1.125   4.808  0.00  0.00     0.041 A 
ATOM     18 Br1  <0> d           1.599   2.344   5.213  0.00  0.00    -0.049 Br
ENDBRANCH  10  13
ENDBRANCH   7  10
TORSDOF 2
