REMARK  7 active torsions:
REMARK  status: ('A' for Active; 'I' for Inactive)
REMARK    1  A    between atoms: C2_2  and  O1_4 
REMARK    2  A    between atoms: O1_4  and  C4_5 
REMARK    3  A    between atoms: C4_5  and  C5_7 
REMARK    4  A    between atoms: C5_7  and  N1_8 
REMARK    5  A    between atoms: N1_8  and  C8_11 
REMARK    6  A    between atoms: C8_11  and  C9_12 
REMARK    7  A    between atoms: C9_12  and  N2_13 
ROOT
ATOM      1  N2  <0> d          -5.611  -5.865  -2.517  0.00  0.00    -0.286 N 
ATOM      2  C10 <0> d          -6.041  -6.841  -1.676  0.00  0.00     0.231 C 
ATOM      3  O3  <0> d          -5.503  -7.211  -0.655  0.00  0.00    -0.273 OA
ATOM      4  C11 <0> d          -7.315  -7.369  -2.263  0.00  0.00     0.095 C 
ATOM      5  C12 <0> d          -8.408  -7.820  -1.317  0.00  0.00     0.043 C 
ATOM      6  C13 <0> d          -9.671  -7.962  -2.140  0.00  0.00    -0.007 C 
ATOM      7  C14 <0> d          -9.849  -7.422  -3.310  0.00  0.00     0.009 C 
ATOM      8  C15 <0> d          -8.830  -6.550  -4.012  0.00  0.00     0.066 C 
ATOM      9  C16 <0> d          -7.841  -6.085  -2.975  0.00  0.00     0.097 C 
ATOM     10  C17 <0> d          -6.546  -5.482  -3.425  0.00  0.00     0.231 C 
ATOM     11  O4  <0> d          -6.367  -4.792  -4.406  0.00  0.00    -0.273 OA
ATOM     12 Cl1  <0> d         -11.355  -7.723  -4.120  0.00  0.00    -0.089 Cl
ENDROOT
BRANCH   1  13
ATOM     13  C9  <0> d          -4.271  -5.278  -2.447  0.00  0.00     0.163 C 
BRANCH  13  14
ATOM     14  C8  <0> d          -4.289  -4.075  -1.502  0.00  0.00     0.257 C 
BRANCH  14  15
ATOM     15  N1  <0> d          -2.945  -3.486  -1.432  0.00  0.00    -0.064 N 
ATOM     16  C6  <0> d          -2.532  -3.050  -2.773  0.00  0.00     0.272 C 
ATOM     17  C7  <0> d          -1.997  -4.489  -0.930  0.00  0.00     0.272 C 
BRANCH  15  18
ATOM     18  C5  <0> d          -2.963  -2.332  -0.525  0.00  0.00     0.347 C 
BRANCH  18  19
ATOM     19  C4  <0> d          -1.599  -1.691  -0.500  0.00  0.00     0.285 C 
ATOM     20  O2  <0> d          -0.678  -2.207  -1.089  0.00  0.00    -0.263 OA
BRANCH  19  21
ATOM     21  O1  <0> d          -1.406  -0.548   0.177  0.00  0.00    -0.316 OA
BRANCH  21  22
ATOM     22  C2  <0> d          -0.088   0.003   0.158  0.00  0.00     0.123 C 
ATOM     23  C1  <0> d          -0.170   1.526   0.276  0.00  0.00     0.040 C 
ATOM     24  C3  <0> d           0.716  -0.557   1.334  0.00  0.00     0.040 C 
ENDBRANCH  21  22
ENDBRANCH  19  21
ENDBRANCH  18  19
ENDBRANCH  15  18
ENDBRANCH  14  15
ENDBRANCH  13  14
ENDBRANCH   1  13
TORSDOF 7
