REMARK  9 active torsions:
REMARK  status: ('A' for Active; 'I' for Inactive)
REMARK    1  A    between atoms: C2_2  and  O1_3 
REMARK    2  A    between atoms: O1_3  and  C3_4 
REMARK    3  A    between atoms: C6_7  and  N1_10 
REMARK    4  A    between atoms: C11_14  and  S1_17 
REMARK    5  A    between atoms: S1_17  and  C13_18 
REMARK    6  A    between atoms: C13_18  and  N3_20 
REMARK    7  A    between atoms: N3_20  and  N4_21 
REMARK    8  A    between atoms: C14_22  and  C15_23 
REMARK    9  A    between atoms: C24_32  and  O4_33 
ROOT
ATOM      1  C13 <0> d           3.777  -8.483  -4.506  0.00  0.00     0.155 C 
ATOM      2  N2  <0> d           2.967  -7.933  -5.368  0.00  0.00    -0.379 N 
ATOM      3  H13 <0> d           3.245  -7.819  -6.290  0.00  0.00     0.158 HD
ATOM      4  H23 <0> d           2.087  -7.638  -5.087  0.00  0.00     0.158 HD
ENDROOT
BRANCH   1   5
ATOM      5  S1  <0> d           3.272  -8.690  -2.830  0.00  0.00    -0.078 SA
BRANCH   5   6
ATOM      6  C11 <0> d           1.593  -8.004  -2.790  0.00  0.00     0.157 A 
ATOM      7  C10 <0> d           0.951  -8.222  -1.405  0.00  0.00     0.129 A 
ATOM      8  C9  <0> d           0.688  -6.816  -0.911  0.00  0.00     0.232 A 
ATOM      9  N1  <0> d           1.101  -5.940  -1.835  0.00  0.00    -0.251 N 
ATOM     10  O2  <0> d           0.184  -6.528   0.153  0.00  0.00    -0.273 OA
ATOM     11  C12 <0> d           1.621  -6.498  -2.935  0.00  0.00     0.246 A 
ATOM     12  O3  <0> d           2.049  -5.893  -3.895  0.00  0.00    -0.271 OA
BRANCH   9  13
ATOM     13  C6  <0> d           0.992  -4.551  -1.668  0.00  0.00     0.045 A 
ATOM     14  C5  <0> d           0.122  -3.821  -2.467  0.00  0.00     0.033 A 
ATOM     15  C4  <0> d           0.015  -2.454  -2.301  0.00  0.00     0.039 A 
ATOM     16  C3  <0> d           0.775  -1.811  -1.336  0.00  0.00     0.068 A 
ATOM     17  C8  <0> d           1.648  -2.539  -0.540  0.00  0.00     0.039 A 
ATOM     18  C7  <0> d           1.752  -3.906  -0.702  0.00  0.00     0.033 A 
BRANCH  16  19
ATOM     19  O1  <0> d           0.669  -0.465  -1.173  0.00  0.00    -0.352 OA
BRANCH  19  20
ATOM     20  C2  <0> d          -0.249   0.221  -2.027  0.00  0.00     0.171 C 
ATOM     21  C1  <0> d          -0.230   1.716  -1.699  0.00  0.00     0.034 C 
ENDBRANCH  19  20
ENDBRANCH  16  19
ENDBRANCH   9  13
ENDBRANCH   5   6
ENDBRANCH   1   5
BRANCH   1  22
ATOM     22  N3  <0> d           5.026  -8.902  -4.905  0.00  0.00    -0.258 N 
ATOM     23  H14 <0> d           5.628  -9.311  -4.264  0.00  0.00     0.191 HD
BRANCH  22  24
ATOM     24  N4  <0> d           5.428  -8.737  -6.237  0.00  0.00    -0.184 NA
ATOM     25  C14 <0> d           6.607  -9.132  -6.613  0.00  0.00     0.153 C 
BRANCH  25  26
ATOM     26  C15 <0> d           7.028  -8.960  -8.011  0.00  0.00     0.027 A 
ATOM     27  C24 <0> d           6.175  -8.373  -8.945  0.00  0.00     0.078 A 
ATOM     28  C23 <0> d           6.583  -8.208 -10.268  0.00  0.00     0.038 A 
ATOM     29  C22 <0> d           7.807  -8.616 -10.696  0.00  0.00     0.015 A 
ATOM     30  C21 <0> d           8.715  -9.219  -9.809  0.00  0.00    -0.025 A 
ATOM     31  C16 <0> d           8.349  -9.404  -8.453  0.00  0.00    -0.011 A 
ATOM     32  C20 <0> d           9.983  -9.645 -10.240  0.00  0.00     0.012 A 
ATOM     33  C17 <0> d           9.252 -10.005  -7.568  0.00  0.00     0.013 A 
ATOM     34  C18 <0> d          10.473 -10.406  -8.021  0.00  0.00     0.001 A 
ATOM     35  C19 <0> d          10.837 -10.226  -9.353  0.00  0.00     0.001 A 
BRANCH  27  36
ATOM     36  O4  <0> d           4.941  -7.956  -8.563  0.00  0.00    -0.360 OA
ATOM     37  H22 <0> d           4.913  -7.040  -8.254  0.00  0.00     0.217 HD
ENDBRANCH  27  36
ENDBRANCH  25  26
ENDBRANCH  22  24
ENDBRANCH   1  22
TORSDOF 9
