REMARK  7 active torsions:
REMARK  status: ('A' for Active; 'I' for Inactive)
REMARK    1  A    between atoms: C3_3  and  C7_9 
REMARK    2  A    between atoms: C4_4  and  N2_8 
REMARK    3  A    between atoms: C6_6  and  N1_7 
REMARK       I    between atoms: C7_9  and  N3_11 
REMARK    4  A    between atoms: N3_11  and  C8_12 
REMARK    5  A    between atoms: N3_11  and  C10_16 
REMARK    6  A    between atoms: C8_12  and  C9_13 
REMARK       I    between atoms: C9_13  and  N4_15 
REMARK    7  A    between atoms: C10_16  and  C11_17 
REMARK       I    between atoms: C11_17  and  N5_19 
ROOT
ATOM      1  C7  <0> d           3.625   2.187  -0.031  0.00  0.00     0.256 C 
ATOM      2  O1  <0> d           4.692   1.610   0.059  0.00  0.00    -0.267 OA
ATOM      3  N3  <0> d           3.591   3.530  -0.137  0.00  0.00    -0.331 N 
ENDROOT
BRANCH   1   4
ATOM      4  C3  <0> d           2.371   1.417  -0.026  0.00  0.00     0.058 A 
ATOM      5  C2  <0> d           1.453   1.562  -1.072  0.00  0.00     0.022 A 
ATOM      6  C1  <0> d           0.290   0.848  -1.067  0.00  0.00     0.030 A 
ATOM      7  C6  <0> d           0.006  -0.031  -0.023  0.00  0.00     0.027 A 
ATOM      8  C5  <0> d           0.905  -0.187   1.024  0.00  0.00     0.059 A 
ATOM      9  C4  <0> d           2.090   0.533   1.030  0.00  0.00     0.043 A 
BRANCH   7  10
ATOM     10  N1  <0> d          -1.182  -0.753  -0.029  0.00  0.00    -0.399 N 
ATOM     11  H4  <0> d          -1.811  -0.645  -0.759  0.00  0.00     0.156 HD
ATOM     12  H5  <0> d          -1.381  -1.365   0.697  0.00  0.00     0.156 HD
ENDBRANCH   7  10
BRANCH   9  13
ATOM     13  N2  <0> d           2.994   0.381   2.074  0.00  0.00    -0.398 N 
ATOM     14  H6  <0> d           3.787   0.938   2.113  0.00  0.00     0.156 HD
ATOM     15  H7  <0> d           2.833  -0.282   2.763  0.00  0.00     0.156 HD
ENDBRANCH   9  13
ENDBRANCH   1   4
BRANCH   3  16
ATOM     16  C8  <0> d           4.839   4.287  -0.263  0.00  0.00     0.229 C 
BRANCH  16  17
ATOM     17  C9  <0> d           5.191   4.433  -1.721  0.00  0.00     0.233 C 
ATOM     18  O2  <0> d           4.471   3.953  -2.571  0.00  0.00    -0.272 OA
ATOM     19  N4  <0> d           6.307   5.098  -2.081  0.00  0.00    -0.369 N 
ATOM     20  H10 <0> d           6.883   5.482  -1.402  0.00  0.00     0.159 HD
ATOM     21  H11 <0> d           6.534   5.193  -3.019  0.00  0.00     0.159 HD
ENDBRANCH  16  17
ENDBRANCH   3  16
BRANCH   3  22
ATOM     22  C10 <0> d           2.306   4.233  -0.124  0.00  0.00     0.229 C 
BRANCH  22  23
ATOM     23  C11 <0> d           1.880   4.477   1.301  0.00  0.00     0.233 C 
ATOM     24  O3  <0> d           2.581   4.100   2.216  0.00  0.00    -0.272 OA
ATOM     25  N5  <0> d           0.721   5.113   1.559  0.00  0.00    -0.369 N 
ATOM     26  H14 <0> d           0.160   5.415   0.827  0.00  0.00     0.159 HD
ATOM     27  H15 <0> d           0.447   5.270   2.476  0.00  0.00     0.159 HD
ENDBRANCH  22  23
ENDBRANCH   3  22
TORSDOF 7
