REMARK  7 active torsions:
REMARK  status: ('A' for Active; 'I' for Inactive)
REMARK    1  A    between atoms: N1_2  and  C2_3 
REMARK       I    between atoms: N1_2  and  C5_6 
REMARK    2  A    between atoms: C2_3  and  C3_4 
REMARK    3  A    between atoms: C5_6  and  C6_8 
REMARK    4  A    between atoms: C12_14  and  C13_15 
REMARK    5  A    between atoms: C13_15  and  N2_16 
REMARK    6  A    between atoms: C15_18  and  C16_21 
REMARK    7  A    between atoms: C16_21  and  O2_26 
ROOT
ATOM      1  C6  <0> d          -2.872   1.537  -0.005  0.00  0.00     0.108 C 
ATOM      2  C7  <0> d          -2.095   1.045  -1.230  0.00  0.00     0.249 C 
ATOM      3  C8  <0> d          -0.725   3.041  -1.232  0.00  0.00     0.236 C 
ATOM      4  C9  <0> d          -1.462   3.591  -0.008  0.00  0.00     0.033 C 
ATOM      5  C10 <0> d          -1.947   2.415   0.848  0.00  0.00     0.004 C 
ATOM      6  C11 <0> d          -0.730   1.580   1.267  0.00  0.00     0.040 C 
ATOM      7  C12 <0> d          -0.013   1.086   0.008  0.00  0.00     0.208 C 
ATOM      8  N5  <0> d          -0.710   1.563  -1.205  0.00  0.00    -0.064 N 
ATOM      9  H32 <0> d          -0.210   1.220  -2.034  0.00  0.00     0.280 HD
ENDROOT
BRANCH   7  10
ATOM     10  C13 <0> d           1.423   1.616  -0.003  0.00  0.00     0.185 C 
BRANCH  10  11
ATOM     11  N2  <0> d           2.144   1.048  -1.144  0.00  0.00    -0.259 N 
ATOM     12  N4  <0> d           2.271  -0.205  -1.408  0.00  0.00    -0.066 NA
ATOM     13  N3  <0> d           2.962  -0.365  -2.482  0.00  0.00    -0.132 NA
ATOM     14  C15 <0> d           3.311   0.837  -2.954  0.00  0.00     0.109 A 
ATOM     15  C14 <0> d           2.787   1.751  -2.106  0.00  0.00     0.146 A 
BRANCH  14  16
ATOM     16  C16 <0> d           4.124   1.117  -4.192  0.00  0.00     0.105 C 
ATOM     17  C20 <0> d           5.514   0.469  -4.067  0.00  0.00     0.044 C 
ATOM     18  C19 <0> d           5.636  -0.540  -5.228  0.00  0.00     0.004 C 
ATOM     19  C18 <0> d           4.633  -0.022  -6.288  0.00  0.00     0.004 C 
ATOM     20  C17 <0> d           3.449   0.479  -5.423  0.00  0.00     0.044 C 
BRANCH  16  21
ATOM     21  O2  <0> d           4.257   2.527  -4.381  0.00  0.00    -0.383 OA
ATOM     22  H31 <0> d           3.414   2.992  -4.476  0.00  0.00     0.211 HD
ENDBRANCH  16  21
ENDBRANCH  14  16
ENDBRANCH  10  11
ENDBRANCH   7  10
BRANCH   1  23
ATOM     23  C5  <0> d          -4.062   2.345  -0.454  0.00  0.00     0.225 C 
ATOM     24  N1  <0> d          -5.013   1.776  -1.220  0.00  0.00    -0.353 N 
ATOM     25  C1  <0> d          -4.890   0.371  -1.617  0.00  0.00     0.152 C 
ATOM     26  O1  <0> d          -4.164   3.509  -0.125  0.00  0.00    -0.273 OA
BRANCH  24  27
ATOM     27  C2  <0> d          -6.170   2.561  -1.656  0.00  0.00     0.151 C 
BRANCH  27  28
ATOM     28  C3  <0> d          -5.860   3.223  -2.974  0.00  0.00    -0.017 C 
ATOM     29  C4  <0> d          -6.652   3.038  -4.002  0.00  0.00     0.008 C 
ENDBRANCH  27  28
ENDBRANCH  24  27
ENDBRANCH   1  23
TORSDOF 7
