REMARK  3 active torsions:
REMARK  status: ('A' for Active; 'I' for Inactive)
REMARK    1  A    between atoms: C2_2  and  C3_3 
REMARK    2  A    between atoms: C2_2  and  N2_9 
REMARK    3  A    between atoms: C14_19  and  N4_20 
ROOT
ATOM      1  N2  <0> d           0.436  -0.771   1.223  0.00  0.00    -0.166 N 
ATOM      2  C8  <0> d          -0.361  -1.642   1.950  0.00  0.00     0.123 A 
ATOM      3  C9  <0> d           0.470  -2.205   2.932  0.00  0.00     0.106 A 
ATOM      4  C10 <0> d          -0.058  -3.135   3.831  0.00  0.00     0.038 A 
ATOM      5  C11 <0> d          -1.386  -3.491   3.748  0.00  0.00     0.048 A 
ATOM      6  C12 <0> d          -2.205  -2.933   2.776  0.00  0.00     0.157 A 
ATOM      7  C13 <0> d          -1.698  -2.011   1.879  0.00  0.00     0.184 A 
ATOM      8  F1  <0> d          -2.500  -1.470   0.936  0.00  0.00    -0.200 F 
ATOM      9  F2  <0> d          -3.506  -3.292   2.707  0.00  0.00    -0.203 F 
ATOM     10  N3  <0> d           1.707  -1.667   2.765  0.00  0.00    -0.063 NA
ATOM     11  C14 <0> d           1.691  -0.829   1.759  0.00  0.00     0.702 A 
ENDROOT
BRANCH   1  12
ATOM     12  C2  <0> d           0.012   0.052   0.088  0.00  0.00     0.156 C 
ATOM     13  C1  <0> d           0.231   1.530   0.421  0.00  0.00     0.040 C 
BRANCH  12  14
ATOM     14  C3  <0> d           0.822  -0.314  -1.129  0.00  0.00     0.057 A 
ATOM     15  N1  <0> d           0.591  -1.457  -1.745  0.00  0.00    -0.263 NA
ATOM     16  C7  <0> d           1.270  -1.817  -2.816  0.00  0.00     0.117 A 
ATOM     17  C6  <0> d           2.265  -1.006  -3.328  0.00  0.00     0.019 A 
ATOM     18  C5  <0> d           2.541   0.201  -2.703  0.00  0.00     0.003 A 
ATOM     19  C4  <0> d           1.802   0.548  -1.583  0.00  0.00     0.029 A 
ENDBRANCH  12  14
ENDBRANCH   1  12
BRANCH  11  20
ATOM     20  N4  <0> d           2.778  -0.109   1.309  0.00  0.00    -0.233 N 
ATOM     21  H11 <0> d           2.673   0.525   0.582  0.00  0.00     0.174 HD
ATOM     22  H12 <0> d           3.648  -0.237   1.719  0.00  0.00     0.174 HD
ENDBRANCH  11  20
TORSDOF 3
