REMARK  5 active torsions:
REMARK  status: ('A' for Active; 'I' for Inactive)
REMARK    1  A    between atoms: C4_4  and  C5_7 
REMARK    2  A    between atoms: C6_8  and  C9_13 
REMARK       I    between atoms: C9_13  and  N3_15 
REMARK    3  A    between atoms: C11_17  and  C18_25 
REMARK       I    between atoms: C18_25  and  N5_27 
REMARK    4  A    between atoms: N5_27  and  C19_28 
REMARK    5  A    between atoms: C19_28  and  C20_29 
ROOT
ATOM      1  C9  <0> d           0.498  -5.210   0.017  0.00  0.00     0.258 C 
ATOM      2  O3  <0> d           1.120  -5.356   1.052  0.00  0.00    -0.267 OA
ATOM      3  N3  <0> d           1.117  -5.371  -1.169  0.00  0.00    -0.346 N 
ATOM      4  C10 <0> d           0.534  -5.231  -2.524  0.00  0.00     0.141 C 
ATOM      5  C11 <0> d           1.637  -4.536  -3.353  0.00  0.00     0.106 C 
ATOM      6  C12 <0> d           2.948  -4.869  -2.621  0.00  0.00    -0.007 C 
ATOM      7  C13 <0> d           2.537  -5.724  -1.413  0.00  0.00     0.136 C 
ATOM      8  C14 <0> d           3.879  -5.658  -3.535  0.00  0.00     0.039 C 
ATOM      9  C15 <0> d           5.198  -5.927  -2.805  0.00  0.00     0.233 C 
ATOM     10  N4  <0> d           5.818  -4.652  -2.425  0.00  0.00    -0.075 N 
ATOM     11  C16 <0> d           4.957  -3.941  -1.472  0.00  0.00     0.233 C 
ATOM     12  C17 <0> d           3.628  -3.588  -2.146  0.00  0.00     0.039 C 
ATOM     13  H17 <0> d           6.715  -4.830  -1.998  0.00  0.00     0.277 HD
ATOM     14  H30 <0> d           5.947  -4.084  -3.248  0.00  0.00     0.277 HD
ENDROOT
BRANCH   1  15
ATOM     15  C6  <0> d          -0.930  -4.856   0.060  0.00  0.00     0.097 A 
ATOM     16  C5  <0> d          -1.461  -3.574   0.076  0.00  0.00     0.150 A 
ATOM     17  O2  <0> d          -2.797  -3.695   0.121  0.00  0.00    -0.210 OA
ATOM     18  N2  <0> d          -3.120  -5.072   0.126  0.00  0.00    -0.132 NA
ATOM     19  C7  <0> d          -2.020  -5.762   0.093  0.00  0.00     0.077 A 
ATOM     20  C8  <0> d          -1.919  -7.266   0.089  0.00  0.00     0.074 C 
BRANCH  16  21
ATOM     21  C4  <0> d          -0.695  -2.309   0.054  0.00  0.00     0.123 A 
ATOM     22  C3  <0> d          -1.241  -1.002   0.076  0.00  0.00     0.071 A 
ATOM     23  C2  <0> d          -0.223  -0.124   0.045  0.00  0.00     0.077 A 
ATOM     24  C1  <0> d          -0.351   1.377   0.053  0.00  0.00     0.079 C 
ATOM     25  O1  <0> d           0.927  -0.815  -0.001  0.00  0.00    -0.218 OA
ATOM     26  N1  <0> d           0.612  -2.196   0.011  0.00  0.00    -0.126 NA
ENDBRANCH  16  21
ENDBRANCH   1  15
BRANCH   5  27
ATOM     27  C18 <0> d           1.664  -5.086  -4.756  0.00  0.00     0.224 C 
ATOM     28  O4  <0> d           1.342  -6.237  -4.963  0.00  0.00    -0.273 OA
ATOM     29  N5  <0> d           2.045  -4.298  -5.782  0.00  0.00    -0.357 N 
ATOM     30  H22 <0> d           2.302  -3.378  -5.617  0.00  0.00     0.162 HD
BRANCH  29  31
ATOM     31  C19 <0> d           2.070  -4.833  -7.146  0.00  0.00     0.155 C 
BRANCH  31  32
ATOM     32  C20 <0> d           2.529  -3.758  -8.098  0.00  0.00    -0.075 C 
ATOM     33  C21 <0> d           3.791  -3.680  -8.439  0.00  0.00     0.015 C 
ATOM     34  C22 <0> d           1.534  -2.773  -8.657  0.00  0.00     0.044 C 
ENDBRANCH  31  32
ENDBRANCH  29  31
ENDBRANCH   5  27
TORSDOF 5
