REMARK  4 active torsions:
REMARK  status: ('A' for Active; 'I' for Inactive)
REMARK    1  A    between atoms: C2_2  and  N1_4 
REMARK    2  A    between atoms: N1_4  and  S1_5 
REMARK    3  A    between atoms: S1_5  and  C4_8 
REMARK    4  A    between atoms: C7_11  and  N2_14 
ROOT
ATOM      1  C4  <0> d          -1.137  -2.294   2.137  0.00  0.00     0.079 A 
ATOM      2  C5  <0> d          -2.414  -2.105   1.640  0.00  0.00     0.027 A 
ATOM      3  C6  <0> d          -3.199  -3.194   1.316  0.00  0.00     0.031 A 
ATOM      4  C7  <0> d          -2.705  -4.480   1.490  0.00  0.00     0.037 A 
ATOM      5  C8  <0> d          -1.423  -4.667   1.990  0.00  0.00     0.031 A 
ATOM      6  C9  <0> d          -0.641  -3.574   2.307  0.00  0.00     0.027 A 
ENDROOT
BRANCH   4   7
ATOM      7  N2  <0> d          -3.499  -5.585   1.163  0.00  0.00    -0.312 N 
ATOM      8  C15 <0> d          -4.749  -5.506   0.676  0.00  0.00     0.225 C 
ATOM      9  C14 <0> d          -5.314  -6.895   0.464  0.00  0.00     0.111 C 
ATOM     10  O5  <0> d          -5.338  -4.473   0.438  0.00  0.00    -0.273 OA
ATOM     11  C13 <0> d          -4.381  -7.804   1.294  0.00  0.00     0.032 C 
ATOM     12  C10 <0> d          -3.076  -6.987   1.315  0.00  0.00     0.112 C 
ATOM     13  C12 <0> d          -4.230  -9.169   0.578  0.00  0.00     0.147 C 
ATOM     14  C11 <0> d          -2.175  -7.348   0.101  0.00  0.00     0.166 C 
ATOM     15  S2  <0> d          -2.482  -9.165   0.003  0.00  0.00     0.146 S 
ATOM     16  O3  <0> d          -1.672  -9.828   0.965  0.00  0.00    -0.228 OA
ATOM     17  O4  <0> d          -2.435  -9.575  -1.357  0.00  0.00    -0.228 OA
ENDBRANCH   4   7
BRANCH   1  18
ATOM     18  S1  <0> d          -0.139  -0.902   2.549  0.00  0.00     0.259 S 
ATOM     19  O1  <0> d           0.814  -1.354   3.502  0.00  0.00    -0.201 OA
ATOM     20  O2  <0> d          -1.030   0.173   2.814  0.00  0.00    -0.201 OA
BRANCH  18  21
ATOM     21  N1  <0> d           0.711  -0.489   1.189  0.00  0.00    -0.311 N 
ATOM     22  H10 <0> d           1.677  -0.569   1.178  0.00  0.00     0.172 HD
BRANCH  21  23
ATOM     23  C2  <0> d           0.002  -0.004   0.002  0.00  0.00     0.085 C 
ATOM     24  C1  <0> d          -0.019   1.526   0.010  0.00  0.00     0.032 C 
ATOM     25  C3  <0> d           0.718  -0.497  -1.257  0.00  0.00     0.032 C 
ENDBRANCH  21  23
ENDBRANCH  18  21
ENDBRANCH   1  18
TORSDOF 4
