REMARK  3 active torsions:
REMARK  status: ('A' for Active; 'I' for Inactive)
REMARK    1  A    between atoms: C7_10  and  C8_11 
REMARK    2  A    between atoms: C9_12  and  C10_13 
REMARK    3  A    between atoms: C13_16  and  N4_19 
ROOT
ATOM      1  C8  <0> d          -1.199  -0.873  -0.089  0.00  0.00     0.091 C 
ATOM      2  C9  <0> d          -1.051  -2.227   0.000  0.00  0.00     0.038 C 
ATOM      3  C16 <0> d          -2.506  -0.302  -0.215  0.00  0.00     0.103 C 
ATOM      4  N5  <0> d          -3.543   0.151  -0.315  0.00  0.00    -0.191 NA
ENDROOT
BRANCH   1   5
ATOM      5  C7  <0> d          -0.013   0.002  -0.057  0.00  0.00     0.152 A 
ATOM      6  N1  <0> d          -0.039   1.371  -0.138  0.00  0.00    -0.318 N 
ATOM      7  C1  <0> d          -1.232   2.209  -0.277  0.00  0.00     0.159 C 
ATOM      8  C2  <0> d           1.267   1.811  -0.071  0.00  0.00     0.160 A 
ATOM      9  N2  <0> d           1.828   3.009  -0.102  0.00  0.00    -0.241 NA
ATOM     10  C3  <0> d           2.062   0.656   0.052  0.00  0.00     0.105 A 
ATOM     11  C6  <0> d           3.134   3.161  -0.019  0.00  0.00     0.119 A 
ATOM     12  C5  <0> d           3.982   2.072   0.105  0.00  0.00     0.022 A 
ATOM     13  C4  <0> d           3.451   0.796   0.142  0.00  0.00     0.037 A 
ATOM     14  N3  <0> d           1.228  -0.411   0.056  0.00  0.00    -0.226 NA
ENDBRANCH   1   5
BRANCH   2  15
ATOM     15  C10 <0> d          -2.231  -3.087   0.117  0.00  0.00    -0.035 A 
ATOM     16  C15 <0> d          -2.205  -4.392  -0.395  0.00  0.00     0.013 A 
ATOM     17  C14 <0> d          -3.308  -5.189  -0.284  0.00  0.00     0.030 A 
ATOM     18  C13 <0> d          -4.458  -4.708   0.338  0.00  0.00     0.025 A 
ATOM     19  C12 <0> d          -4.489  -3.413   0.850  0.00  0.00     0.030 A 
ATOM     20  C11 <0> d          -3.389  -2.610   0.748  0.00  0.00     0.013 A 
BRANCH  18  21
ATOM     21  N4  <0> d          -5.579  -5.524   0.450  0.00  0.00    -0.399 N 
ATOM     22  H12 <0> d          -5.559  -6.427   0.094  0.00  0.00     0.156 HD
ATOM     23  H13 <0> d          -6.380  -5.191   0.883  0.00  0.00     0.156 HD
ENDBRANCH  18  21
ENDBRANCH   2  15
TORSDOF 3
