REMARK  4 active torsions:
REMARK  status: ('A' for Active; 'I' for Inactive)
REMARK    1  A    between atoms: C2_2  and  C3_3 
REMARK    2  A    between atoms: C2_2  and  N1_10 
REMARK       I    between atoms: N1_10  and  C9_11 
REMARK    3  A    between atoms: C9_11  and  C10_13 
REMARK    4  A    between atoms: C10_13  and  N2_14 
ROOT
ATOM      1  N2  <0> d           4.223  -1.127   2.126  0.00  0.00    -0.259 N 
ATOM      2  C11 <0> d           4.878  -2.189   1.607  0.00  0.00     0.261 A 
ATOM      3  O2  <0> d           4.407  -3.259   1.286  0.00  0.00    -0.270 OA
ATOM      4  C12 <0> d           6.318  -1.758   1.513  0.00  0.00     0.144 A 
ATOM      5  C13 <0> d           7.229  -2.673   2.340  0.00  0.00     0.051 C 
ATOM      6  C14 <0> d           8.536  -2.664   1.516  0.00  0.00     0.042 C 
ATOM      7  C15 <0> d           8.109  -2.350   0.097  0.00  0.00    -0.049 A 
ATOM      8  C16 <0> d           6.827  -1.825   0.098  0.00  0.00    -0.014 A 
ATOM      9  C17 <0> d           6.233  -1.462  -1.099  0.00  0.00     0.011 A 
ATOM     10  C18 <0> d           6.912  -1.624  -2.291  0.00  0.00     0.001 A 
ATOM     11  C19 <0> d           8.190  -2.149  -2.292  0.00  0.00     0.001 A 
ATOM     12  C20 <0> d           8.786  -2.510  -1.099  0.00  0.00     0.007 A 
ATOM     13  N3  <0> d           6.328  -0.388   2.029  0.00  0.00    -0.320 N 
ATOM     14  C21 <0> d           5.052  -0.102   2.359  0.00  0.00     0.326 A 
ATOM     15  O3  <0> d           4.696   0.965   2.820  0.00  0.00    -0.247 OA
ATOM     16  H20 <0> d           7.097   0.197   2.113  0.00  0.00     0.165 HD
ENDROOT
BRANCH   1  17
ATOM     17  C10 <0> d           2.783  -1.099   2.395  0.00  0.00     0.239 C 
BRANCH  17  18
ATOM     18  C9  <0> d           2.054  -0.600   1.174  0.00  0.00     0.236 C 
ATOM     19  N1  <0> d           0.711  -0.489   1.189  0.00  0.00    -0.351 N 
ATOM     20  H9  <0> d           0.213  -0.731   1.986  0.00  0.00     0.163 HD
ATOM     21  O1  <0> d           2.676  -0.297   0.177  0.00  0.00    -0.272 OA
BRANCH  19  22
ATOM     22  C2  <0> d           0.002  -0.004   0.002  0.00  0.00     0.113 C 
ATOM     23  C1  <0> d          -0.019   1.526   0.010  0.00  0.00     0.037 C 
BRANCH  22  24
ATOM     24  C3  <0> d          -1.412  -0.526   0.013  0.00  0.00    -0.036 A 
ATOM     25  C8  <0> d          -1.999  -0.954  -1.163  0.00  0.00     0.011 A 
ATOM     26  C7  <0> d          -3.294  -1.437  -1.153  0.00  0.00     0.024 A 
ATOM     27  C6  <0> d          -4.006  -1.483   0.032  0.00  0.00     0.034 A 
ATOM     28  C5  <0> d          -3.419  -1.049   1.208  0.00  0.00     0.024 A 
ATOM     29 Cl1  <0> d          -5.634  -2.084   0.045  0.00  0.00    -0.084 Cl
ATOM     30  C4  <0> d          -2.123  -0.571   1.198  0.00  0.00     0.011 A 
ENDBRANCH  22  24
ENDBRANCH  19  22
ENDBRANCH  17  18
ENDBRANCH   1  17
TORSDOF 4
