REMARK  3 active torsions:
REMARK  status: ('A' for Active; 'I' for Inactive)
REMARK    1  A    between atoms: C5_5  and  C8_8 
REMARK    2  A    between atoms: C10_11  and  C11_12 
REMARK    3  A    between atoms: C14_15  and  O1_18 
ROOT
ATOM      1  C8  <0> d           2.478   1.072  -0.072  0.00  0.00     0.184 A 
ATOM      2  N1  <0> d           3.641   1.661  -0.069  0.00  0.00    -0.218 NA
ATOM      3  C9  <0> d           4.622   0.712  -0.060  0.00  0.00     0.136 A 
ATOM      4  C10 <0> d           5.985   0.920  -0.052  0.00  0.00     0.049 C 
ATOM      5  C17 <0> d           3.916  -0.582  -0.066  0.00  0.00     0.318 A 
ATOM      6  O2  <0> d           4.411  -1.693  -0.066  0.00  0.00    -0.257 OA
ATOM      7  O3  <0> d           2.602  -0.269  -0.073  0.00  0.00    -0.254 OA
ENDROOT
BRANCH   4   8
ATOM      8  C11 <0> d           6.519   2.280  -0.160  0.00  0.00    -0.034 A 
ATOM      9  C16 <0> d           5.651   3.381  -0.145  0.00  0.00     0.014 A 
ATOM     10  C15 <0> d           6.157   4.651  -0.247  0.00  0.00     0.037 A 
ATOM     11  C14 <0> d           7.529   4.848  -0.365  0.00  0.00     0.065 A 
ATOM     12  C13 <0> d           8.395   3.761  -0.380  0.00  0.00     0.037 A 
ATOM     13  C12 <0> d           7.902   2.486  -0.273  0.00  0.00     0.014 A 
BRANCH  11  14
ATOM     14  O1  <0> d           8.023   6.108  -0.465  0.00  0.00    -0.361 OA
ATOM     15  H13 <0> d           8.236   6.516   0.385  0.00  0.00     0.217 HD
ENDBRANCH  11  14
ENDBRANCH   4   8
BRANCH   1  16
ATOM     16  C5  <0> d           1.185   1.786  -0.080  0.00  0.00     0.017 A 
ATOM     17  C4  <0> d          -0.013   1.068  -0.088  0.00  0.00     0.016 A 
ATOM     18  C3  <0> d          -1.217   1.742  -0.101  0.00  0.00     0.007 A 
ATOM     19  C2  <0> d          -1.239   3.125  -0.094  0.00  0.00    -0.062 A 
ATOM     20  C1  <0> d          -2.558   3.854  -0.102  0.00  0.00     0.048 C 
ATOM     21  C7  <0> d          -0.056   3.843  -0.086  0.00  0.00     0.007 A 
ATOM     22  C6  <0> d           1.155   3.182  -0.079  0.00  0.00     0.016 A 
ENDBRANCH   1  16
TORSDOF 3
