REMARK  4 active torsions:
REMARK  status: ('A' for Active; 'I' for Inactive)
REMARK       I    between atoms: N1_12  and  C14_15 
REMARK    1  A    between atoms: C14_15  and  C15_17 
REMARK    2  A    between atoms: C15_17  and  N2_18 
REMARK    3  A    between atoms: C17_20  and  N4_23 
REMARK       I    between atoms: N4_23  and  C19_24 
REMARK    4  A    between atoms: C19_24  and  C20_26 
ROOT
ATOM      1  C1  <0> d          -2.004 -12.235  -0.151  0.00  0.00     0.001 A 
ATOM      2  C2  <0> d          -1.000 -11.440   0.373  0.00  0.00     0.001 A 
ATOM      3  C3  <0> d          -0.980 -10.081   0.107  0.00  0.00     0.009 A 
ATOM      4  C4  <0> d          -1.958  -9.520  -0.680  0.00  0.00    -0.035 A 
ATOM      5  C5  <0> d          -2.976 -10.312  -1.216  0.00  0.00    -0.029 A 
ATOM      6  C6  <0> d          -2.989 -11.682  -0.942  0.00  0.00     0.012 A 
ATOM      7  C7  <0> d          -3.877  -9.459  -2.012  0.00  0.00     0.009 A 
ATOM      8  C8  <0> d          -3.475  -8.199  -1.996  0.00  0.00    -0.011 A 
ATOM      9  C9  <0> d          -2.227  -8.115  -1.153  0.00  0.00     0.008 A 
ATOM     10  C10 <0> d          -1.058  -7.607  -1.995  0.00  0.00     0.038 C 
ATOM     11  C11 <0> d          -1.381  -6.203  -2.517  0.00  0.00     0.127 C 
ATOM     12  N1  <0> d          -1.734  -5.345  -1.378  0.00  0.00    -0.351 N 
ATOM     13  C12 <0> d          -2.792  -5.787  -0.460  0.00  0.00     0.127 C 
ATOM     14  C13 <0> d          -2.461  -7.191   0.042  0.00  0.00     0.038 C 
ATOM     15  C14 <0> d          -1.095  -4.175  -1.176  0.00  0.00     0.239 C 
ATOM     16  O1  <0> d          -0.219  -3.823  -1.937  0.00  0.00    -0.271 OA
ENDROOT
BRANCH  15  17
ATOM     17  C15 <0> d          -1.468  -3.306  -0.003  0.00  0.00     0.253 C 
BRANCH  17  18
ATOM     18  N2  <0> d          -0.635  -2.100  -0.004  0.00  0.00    -0.270 N 
ATOM     19  N3  <0> d           0.765  -2.066  -0.018  0.00  0.00    -0.182 NA
ATOM     20  C18 <0> d           1.147  -0.815  -0.019  0.00  0.00     0.169 A 
ATOM     21  C17 <0> d           0.002  -0.004   0.002  0.00  0.00     0.071 A 
ATOM     22  C16 <0> d          -1.084  -0.819   0.008  0.00  0.00     0.144 A 
BRANCH  21  23
ATOM     23  N4  <0> d          -0.017   1.403   0.010  0.00  0.00    -0.319 N 
ATOM     24  C19 <0> d           1.141   2.093   0.002  0.00  0.00     0.280 C 
ATOM     25  O2  <0> d           2.203   1.498  -0.011  0.00  0.00    -0.265 OA
ATOM     26  H19 <0> d          -0.864   1.876   0.016  0.00  0.00     0.169 HD
BRANCH  24  27
ATOM     27  C20 <0> d           1.121   3.559   0.011  0.00  0.00     0.142 A 
ATOM     28  O3  <0> d           0.019   4.337   0.019  0.00  0.00    -0.317 OA
ATOM     29  C23 <0> d           0.384   5.625   0.028  0.00  0.00     0.143 A 
ATOM     30  C22 <0> d           1.733   5.695   0.016  0.00  0.00     0.027 A 
ATOM     31  C21 <0> d           2.215   4.376   0.004  0.00  0.00     0.045 A 
ENDBRANCH  24  27
ENDBRANCH  21  23
ENDBRANCH  17  18
ENDBRANCH  15  17
TORSDOF 4
