REMARK  6 active torsions:
REMARK  status: ('A' for Active; 'I' for Inactive)
REMARK    1  A    between atoms: N1_9  and  C10_12 
REMARK    2  A    between atoms: C10_12  and  C11_13 
REMARK    3  A    between atoms: C11_13  and  C12_14 
REMARK       I    between atoms: C12_14  and  N2_16 
REMARK    4  A    between atoms: N2_16  and  C13_17 
REMARK    5  A    between atoms: C13_17  and  C14_18 
REMARK    6  A    between atoms: C14_18  and  N3_19 
ROOT
ATOM      1  C10 <0> d           4.955  -2.737  -0.060  0.00  0.00     0.140 C 
ENDROOT
BRANCH   1   2
ATOM      2  N1  <0> d           3.681  -2.013  -0.044  0.00  0.00    -0.323 N 
ATOM      3  C8  <0> d           2.517  -2.726  -0.037  0.00  0.00     0.095 A 
ATOM      4  C7  <0> d           1.311  -2.136  -0.022  0.00  0.00     0.029 A 
ATOM      5  C5  <0> d           1.226  -0.675  -0.013  0.00  0.00    -0.019 A 
ATOM      6  C4  <0> d           2.429   0.068  -0.021  0.00  0.00     0.042 A 
ATOM      7  C6  <0> d           0.002  -0.004   0.002  0.00  0.00     0.012 A 
ATOM      8  C3  <0> d           2.379   1.462  -0.013  0.00  0.00     0.018 A 
ATOM      9  C9  <0> d           3.700  -0.665  -0.037  0.00  0.00     0.258 A 
ATOM     10  C2  <0> d           1.166   2.092   0.002  0.00  0.00     0.001 A 
ATOM     11  C1  <0> d          -0.017   1.363   0.009  0.00  0.00     0.001 A 
ATOM     12  O1  <0> d           4.758  -0.063  -0.044  0.00  0.00    -0.267 OA
ENDBRANCH   1   2
BRANCH   1  13
ATOM     13  C11 <0> d           5.385  -2.982  -1.508  0.00  0.00     0.123 C 
BRANCH  13  14
ATOM     14  C12 <0> d           6.694  -3.727  -1.524  0.00  0.00     0.219 C 
ATOM     15  O2  <0> d           7.231  -4.032  -0.480  0.00  0.00    -0.274 OA
ATOM     16  N2  <0> d           7.269  -4.054  -2.698  0.00  0.00    -0.359 N 
ATOM     17  H11 <0> d           6.840  -3.809  -3.533  0.00  0.00     0.162 HD
BRANCH  16  18
ATOM     18  C13 <0> d           8.543  -4.778  -2.713  0.00  0.00     0.150 C 
BRANCH  18  19
ATOM     19  C14 <0> d           8.973  -5.022  -4.161  0.00  0.00     0.249 C 
BRANCH  19  20
ATOM     20  N3  <0> d          10.250  -5.749  -4.177  0.00  0.00    -0.078 N 
ATOM     21  H16 <0> d          10.954  -5.202  -3.704  0.00  0.00     0.274 HD
ATOM     22  H17 <0> d          10.139  -6.634  -3.705  0.00  0.00     0.274 HD
ATOM     23  H18 <0> d          10.533  -5.910  -5.131  0.00  0.00     0.274 HD
ENDBRANCH  19  20
ENDBRANCH  18  19
ENDBRANCH  16  18
ENDBRANCH  13  14
ENDBRANCH   1  13
TORSDOF 6
