REMARK  4 active torsions:
REMARK  status: ('A' for Active; 'I' for Inactive)
REMARK    1  A    between atoms: C2_2  and  N1_3 
REMARK    2  A    between atoms: C4_5  and  C6_8 
REMARK    3  A    between atoms: C6_8  and  N3_9 
REMARK    4  A    between atoms: C13_16  and  N4_19 
ROOT
ATOM      1  N3  <0> d           1.558  -3.786   3.902  0.00  0.00    -0.311 N 
ATOM      2  C7  <0> d           0.738  -4.797   3.400  0.00  0.00     0.049 A 
ATOM      3  C8  <0> d          -0.626  -4.806   3.115  0.00  0.00     0.074 A 
ATOM      4  C9  <0> d          -1.223  -5.947   2.616  0.00  0.00     0.136 A 
ATOM      5  C10 <0> d          -0.471  -7.090   2.395  0.00  0.00     0.050 A 
ATOM      6  C11 <0> d           0.884  -7.087   2.676  0.00  0.00     0.034 A 
ATOM      7  C12 <0> d           1.480  -5.949   3.174  0.00  0.00     0.012 A 
ATOM      8  C13 <0> d           2.901  -5.625   3.574  0.00  0.00     0.344 A 
ATOM      9  C14 <0> d           2.835  -4.183   4.030  0.00  0.00     0.262 A 
ATOM     10  O1  <0> d           3.760  -3.513   4.437  0.00  0.00    -0.270 OA
ATOM     11 Br1  <0> d          -1.294  -8.650   1.712  0.00  0.00    -0.048 Br
ATOM     12  F1  <0> d          -2.546  -5.949   2.342  0.00  0.00    -0.205 F 
ENDROOT
BRANCH   1  13
ATOM     13  C6  <0> d           1.082  -2.443   4.245  0.00  0.00     0.173 C 
BRANCH  13  14
ATOM     14  C4  <0> d           1.187  -1.549   3.037  0.00  0.00    -0.004 A 
ATOM     15  C3  <0> d           0.229  -1.360   2.100  0.00  0.00     0.122 A 
ATOM     16  N1  <0> d           0.711  -0.489   1.189  0.00  0.00    -0.281 N 
ATOM     17  N2  <0> d           2.010  -0.136   1.575  0.00  0.00    -0.185 NA
ATOM     18  C5  <0> d           2.292  -0.767   2.686  0.00  0.00     0.149 A 
BRANCH  16  19
ATOM     19  C2  <0> d           0.002  -0.004   0.002  0.00  0.00     0.146 C 
ATOM     20  C1  <0> d          -0.019   1.526   0.010  0.00  0.00     0.028 C 
ENDBRANCH  16  19
ENDBRANCH  13  14
ENDBRANCH   1  13
BRANCH   8  21
ATOM     21  N4  <0> d           3.338  -6.500   4.671  0.00  0.00     0.096 N 
ATOM     22  H13 <0> d           4.286  -6.289   4.944  0.00  0.00     0.314 HD
ATOM     23  H14 <0> d           2.711  -6.433   5.459  0.00  0.00     0.314 HD
ENDBRANCH   8  21
TORSDOF 4
