REMARK  5 active torsions:
REMARK  status: ('A' for Active; 'I' for Inactive)
REMARK    1  A    between atoms: C4_4  and  C7_7 
REMARK       I    between atoms: C7_7  and  N1_9 
REMARK    2  A    between atoms: C8_10  and  N5_20 
REMARK    3  A    between atoms: C9_12  and  C10_14 
REMARK    4  A    between atoms: N5_20  and  C15_21 
REMARK    5  A    between atoms: C15_21  and  C16_22 
ROOT
ATOM      1  C7  <0> d           3.696  -0.685  -0.037  0.00  0.00     0.271 C 
ATOM      2  O1  <0> d           4.733  -0.065  -0.168  0.00  0.00    -0.266 OA
ATOM      3  N1  <0> d           3.720  -2.029   0.057  0.00  0.00    -0.219 N 
ATOM      4  C8  <0> d           4.928  -2.863   0.163  0.00  0.00     0.542 C 
ATOM      5  N2  <0> d           4.456  -4.269   0.198  0.00  0.00     0.159 N 
ATOM      6  C9  <0> d           3.103  -4.172  -0.418  0.00  0.00     0.351 C 
ATOM      7  N3  <0> d           2.622  -2.855   0.076  0.00  0.00    -0.195 NA
ATOM      8  H9  <0> d           5.059  -4.867  -0.346  0.00  0.00     0.323 HD
ATOM      9  H10 <0> d           1.888  -2.494  -0.514  0.00  0.00     0.149 HD
ENDROOT
BRANCH   4  10
ATOM     10  N5  <0> d           5.795  -2.649  -1.003  0.00  0.00    -0.021 N 
ATOM     11  H15 <0> d           5.295  -2.896  -1.844  0.00  0.00     0.282 HD
ATOM     12  H23 <0> d           6.066  -1.678  -1.047  0.00  0.00     0.282 HD
BRANCH  10  13
ATOM     13  C15 <0> d           6.995  -3.488  -0.882  0.00  0.00     0.275 C 
BRANCH  13  14
ATOM     14  C16 <0> d           7.884  -3.268  -2.079  0.00  0.00    -0.032 C 
ATOM     15  C23 <0> d           7.652  -4.021  -3.308  0.00  0.00     0.007 C 
ATOM     16  C22 <0> d           8.556  -4.112  -4.288  0.00  0.00     0.005 C 
ATOM     17  C21 <0> d           9.898  -3.470  -4.099  0.00  0.00     0.163 C 
ATOM     18  C18 <0> d           9.712  -2.286  -3.164  0.00  0.00    -0.028 C 
ATOM     19  N6  <0> d          10.485  -2.895  -5.300  0.00  0.00    -0.288 NA
ATOM     20  C17 <0> d           8.911  -2.368  -2.011  0.00  0.00     0.018 C 
ATOM     21  C19 <0> d          10.409  -1.285  -3.725  0.00  0.00     0.028 C 
ATOM     22  C20 <0> d          10.792  -1.657  -5.033  0.00  0.00     0.112 C 
ENDBRANCH  13  14
ENDBRANCH  10  13
ENDBRANCH   4  10
BRANCH   1  23
ATOM     23  C4  <0> d           2.406   0.036   0.018  0.00  0.00     0.033 A 
ATOM     24  C3  <0> d           1.238  -0.641   0.372  0.00  0.00     0.017 A 
ATOM     25  C2  <0> d           0.038   0.037   0.422  0.00  0.00     0.001 A 
ATOM     26  C1  <0> d          -0.009   1.387   0.122  0.00  0.00     0.000 A 
ATOM     27  C6  <0> d           1.145   2.065  -0.229  0.00  0.00     0.001 A 
ATOM     28  C5  <0> d           2.351   1.398  -0.283  0.00  0.00     0.017 A 
ENDBRANCH   1  23
BRANCH   6  29
ATOM     29  C10 <0> d           2.213  -5.287   0.068  0.00  0.00     0.008 A 
ATOM     30  C14 <0> d           2.751  -6.508   0.425  0.00  0.00     0.126 A 
ATOM     31  N4  <0> d           1.979  -7.486   0.857  0.00  0.00    -0.272 NA
ATOM     32  C13 <0> d           0.671  -7.345   0.955  0.00  0.00     0.116 A 
ATOM     33  C12 <0> d           0.061  -6.153   0.610  0.00  0.00     0.020 A 
ATOM     34  C11 <0> d           0.841  -5.101   0.158  0.00  0.00     0.013 A 
ENDBRANCH   6  29
TORSDOF 5
