REMARK  6 active torsions:
REMARK  status: ('A' for Active; 'I' for Inactive)
REMARK    1  A    between atoms: C4_4  and  C8_9 
REMARK    2  A    between atoms: N2_16  and  C22_29 
REMARK    3  A    between atoms: C16_19  and  O1_20 
REMARK    4  A    between atoms: N3_21  and  C18_24 
REMARK    5  A    between atoms: C18_24  and  C19_25 
REMARK    6  A    between atoms: C19_25  and  N5_26 
ROOT
ATOM      1  C8  <0> d          -0.342  -3.806  -2.053  0.00  0.00     0.054 A 
ATOM      2  C9  <0> d          -1.453  -3.752  -2.905  0.00  0.00     0.131 A 
ATOM      3  C10 <0> d          -1.340  -4.150  -4.218  0.00  0.00     0.059 A 
ATOM      4  C11 <0> d          -0.117  -4.609  -4.704  0.00  0.00     0.028 A 
ATOM      5  C12 <0> d           1.012  -4.669  -3.857  0.00  0.00     0.087 A 
ATOM      6  C13 <0> d           0.884  -4.256  -2.524  0.00  0.00     0.158 A 
ATOM      7  F1  <0> d           1.952  -4.300  -1.697  0.00  0.00    -0.203 F 
ATOM      8  N2  <0> d           2.203  -5.114  -4.320  0.00  0.00    -0.348 N 
ATOM      9  C14 <0> d           2.409  -5.511  -5.543  0.00  0.00     0.110 A 
ATOM     10  C15 <0> d           1.379  -5.509  -6.505  0.00  0.00     0.063 A 
ATOM     11  C16 <0> d           1.277  -5.858  -7.844  0.00  0.00     0.173 A 
ATOM     12  N3  <0> d           0.009  -5.630  -8.229  0.00  0.00    -0.245 N 
ATOM     13  N4  <0> d          -0.733  -5.132  -7.151  0.00  0.00    -0.169 NA
ATOM     14  C17 <0> d           0.041  -5.042  -6.100  0.00  0.00     0.105 A 
ATOM     15  F2  <0> d          -2.640  -3.308  -2.436  0.00  0.00    -0.205 F 
ENDROOT
BRANCH   1  16
ATOM     16  C4  <0> d          -0.475  -3.376  -0.641  0.00  0.00    -0.016 A 
ATOM     17  C3  <0> d          -0.767  -2.046  -0.320  0.00  0.00     0.039 A 
ATOM     18  C2  <0> d          -0.882  -1.688   1.007  0.00  0.00     0.032 A 
ATOM     19  C1  <0> d          -1.196  -0.259   1.367  0.00  0.00     0.070 C 
ATOM     20  N1  <0> d          -0.717  -2.579   1.966  0.00  0.00    -0.259 NA
ATOM     21  C6  <0> d          -0.446  -3.844   1.706  0.00  0.00     0.032 A 
ATOM     22  C5  <0> d          -0.313  -4.287   0.407  0.00  0.00     0.039 A 
ATOM     23  C7  <0> d          -0.274  -4.817   2.845  0.00  0.00     0.070 C 
ENDBRANCH   1  16
BRANCH   8  24
ATOM     24  C22 <0> d           3.332  -5.150  -3.387  0.00  0.00     0.090 A 
ATOM     25  C24 <0> d           3.646  -6.485  -2.709  0.00  0.00     0.028 A 
ATOM     26  C23 <0> d           4.569  -5.948  -3.805  0.00  0.00     0.028 A 
ENDBRANCH   8  24
BRANCH  11  27
ATOM     27  O1  <0> d           2.275  -6.340  -8.623  0.00  0.00    -0.344 OA
ATOM     28  H26 <0> d           2.347  -7.304  -8.618  0.00  0.00     0.219 HD
ENDBRANCH  11  27
BRANCH  12  29
ATOM     29  C18 <0> d          -0.518  -5.868  -9.575  0.00  0.00     0.181 C 
BRANCH  29  30
ATOM     30  C19 <0> d          -1.057  -7.297  -9.667  0.00  0.00     0.255 C 
BRANCH  30  31
ATOM     31  N5  <0> d          -1.585  -7.535 -11.017  0.00  0.00    -0.077 N 
ATOM     32  C20 <0> d          -1.992  -8.941 -11.143  0.00  0.00     0.269 C 
ATOM     33  C21 <0> d          -2.746  -6.666 -11.249  0.00  0.00     0.269 C 
ATOM     34  H27 <0> d          -0.870  -7.330 -11.699  0.00  0.00     0.279 HD
ENDBRANCH  30  31
ENDBRANCH  29  30
ENDBRANCH  12  29
TORSDOF 6
