REMARK  6 active torsions:
REMARK  status: ('A' for Active; 'I' for Inactive)
REMARK    1  A    between atoms: C7_7  and  C8_10 
REMARK       I    between atoms: C8_10  and  N2_12 
REMARK    2  A    between atoms: N2_12  and  C9_13 
REMARK    3  A    between atoms: C14_18  and  C15_19 
REMARK       I    between atoms: C15_19  and  N3_21 
REMARK    4  A    between atoms: N3_21  and  C16_22 
REMARK    5  A    between atoms: C16_22  and  C17_23 
REMARK    6  A    between atoms: C17_23  and  C18_24 
ROOT
ATOM      1  C9  <0> d          -0.177  -3.397   3.220  0.00  0.00     0.050 A 
ATOM      2  C10 <0> d           0.909  -3.661   4.044  0.00  0.00     0.030 A 
ATOM      3  C11 <0> d           0.710  -4.197   5.300  0.00  0.00     0.002 A 
ATOM      4  C12 <0> d          -0.571  -4.475   5.749  0.00  0.00     0.001 A 
ATOM      5  C13 <0> d          -1.661  -4.219   4.946  0.00  0.00     0.019 A 
ATOM      6  C14 <0> d          -1.476  -3.672   3.674  0.00  0.00     0.058 A 
ENDROOT
BRANCH   6   7
ATOM      7  C15 <0> d          -2.639  -3.389   2.811  0.00  0.00     0.253 C 
ATOM      8  O2  <0> d          -2.470  -3.009   1.669  0.00  0.00    -0.268 OA
ATOM      9  N3  <0> d          -3.888  -3.553   3.289  0.00  0.00    -0.357 N 
ATOM     10  H12 <0> d          -4.023  -3.856   4.201  0.00  0.00     0.162 HD
BRANCH   9  11
ATOM     11  C16 <0> d          -5.043  -3.273   2.432  0.00  0.00     0.127 C 
BRANCH  11  12
ATOM     12  C17 <0> d          -6.332  -3.536   3.212  0.00  0.00     0.056 C 
BRANCH  12  13
ATOM     13  C18 <0> d          -7.520  -3.248   2.330  0.00  0.00    -0.048 A 
ATOM     14  C25 <0> d          -8.177  -1.905   2.100  0.00  0.00     0.155 A 
ATOM     15  N4  <0> d          -9.280  -2.152   1.165  0.00  0.00    -0.385 N 
ATOM     16  C24 <0> d          -9.306  -3.431   0.877  0.00  0.00     0.038 A 
ATOM     17  H23 <0> d          -9.892  -1.482   0.821  0.00  0.00     0.160 HD
ATOM     18  C19 <0> d          -8.219  -4.139   1.590  0.00  0.00    -0.006 A 
ATOM     19  C23 <0> d         -10.162  -4.195   0.037  0.00  0.00     0.030 A 
ATOM     20  C20 <0> d          -8.086  -5.587   1.390  0.00  0.00     0.014 A 
ATOM     21  C21 <0> d          -8.955  -6.218   0.569  0.00  0.00     0.001 A 
ATOM     22  C22 <0> d          -9.976  -5.526  -0.096  0.00  0.00     0.002 A 
ENDBRANCH  12  13
ENDBRANCH  11  12
ENDBRANCH   9  11
ENDBRANCH   6   7
BRANCH   1  23
ATOM     23  N2  <0> d           0.021  -2.857   1.952  0.00  0.00    -0.325 N 
ATOM     24  C8  <0> d           1.103  -3.210   1.231  0.00  0.00     0.245 C 
ATOM     25  O1  <0> d           1.946  -3.935   1.717  0.00  0.00    -0.271 OA
ATOM     26  H7  <0> d          -0.619  -2.226   1.588  0.00  0.00     0.169 HD
BRANCH  24  27
ATOM     27  C7  <0> d           1.267  -2.706  -0.180  0.00  0.00     0.193 C 
ATOM     28  C5  <0> d           1.794  -1.295  -0.133  0.00  0.00    -0.013 A 
ATOM     29  C4  <0> d           3.168  -1.177  -0.346  0.00  0.00     0.024 A 
ATOM     30  C6  <0> d           1.082  -0.122   0.111  0.00  0.00     0.011 A 
ATOM     31  C3  <0> d           3.812   0.042  -0.298  0.00  0.00     0.020 A 
ATOM     32  S1  <0> d           3.742  -2.830  -0.657  0.00  0.00    -0.043 SA
ATOM     33  C2  <0> d           3.087   1.192  -0.045  0.00  0.00     0.001 A 
ATOM     34  C1  <0> d           1.721   1.098   0.154  0.00  0.00     0.001 A 
ATOM     35  N1  <0> d           2.161  -3.630  -0.915  0.00  0.00    -0.246 NA
ATOM     36  H6  <0> d           2.150  -4.550  -0.500  0.00  0.00     0.136 HD
ENDBRANCH  24  27
ENDBRANCH   1  23
TORSDOF 6
