REMARK  5 active torsions:
REMARK  status: ('A' for Active; 'I' for Inactive)
REMARK    1  A    between atoms: N2_16  and  C13_17 
REMARK    2  A    between atoms: C13_17  and  C14_18 
REMARK    3  A    between atoms: C14_18  and  C15_19 
REMARK    4  A    between atoms: C14_18  and  O3_21 
REMARK    5  A    between atoms: C15_19  and  O2_20 
ROOT
ATOM      1  C1  <0> d          -2.650  -2.550   2.612  0.00  0.00     0.091 C 
ATOM      2  C2  <0> d          -3.398  -2.808   1.329  0.00  0.00     0.106 A 
ATOM      3  N1  <0> d          -4.588  -3.346   1.377  0.00  0.00    -0.227 NA
ATOM      4  C3  <0> d          -5.272  -3.591   0.264  0.00  0.00     0.116 A 
ATOM      5  C4  <0> d          -4.762  -3.284  -1.008  0.00  0.00     0.075 A 
ATOM      6  C5  <0> d          -5.626  -3.611  -2.141  0.00  0.00    -0.026 A 
ATOM      7  C6  <0> d          -6.821  -4.171  -1.858  0.00  0.00    -0.008 A 
ATOM      8  S1  <0> d          -6.864  -4.293  -0.090  0.00  0.00    -0.073 SA
ATOM      9  C7  <0> d          -7.878  -4.596  -2.831  0.00  0.00     0.051 C 
ATOM     10  C8  <0> d          -7.253  -4.646  -4.233  0.00  0.00    -0.014 C 
ATOM     11  C9  <0> d          -6.466  -3.353  -4.465  0.00  0.00     0.009 C 
ATOM     12  C10 <0> d          -5.215  -3.341  -3.586  0.00  0.00     0.041 C 
ATOM     13  C11 <0> d          -8.359  -4.769  -5.283  0.00  0.00     0.010 C 
ATOM     14  C12 <0> d          -3.457  -2.690  -1.025  0.00  0.00     0.262 A 
ATOM     15  O1  <0> d          -2.928  -2.387  -2.080  0.00  0.00    -0.267 OA
ATOM     16  N2  <0> d          -2.826  -2.472   0.144  0.00  0.00    -0.299 N 
ENDROOT
BRANCH  16  17
ATOM     17  C13 <0> d          -1.493  -1.865   0.138  0.00  0.00     0.167 C 
BRANCH  17  18
ATOM     18  C14 <0> d          -1.621  -0.352   0.327  0.00  0.00     0.160 C 
BRANCH  18  19
ATOM     19  C15 <0> d          -0.228   0.282   0.320  0.00  0.00     0.197 C 
BRANCH  19  20
ATOM     20  O2  <0> d          -0.338   1.677   0.613  0.00  0.00    -0.398 OA
ATOM     21  H19 <0> d           0.565   2.303   0.652  0.00  0.00     0.209 HD
ENDBRANCH  19  20
ENDBRANCH  18  19
BRANCH  18  22
ATOM     22  O3  <0> d          -2.400   0.198  -0.738  0.00  0.00    -0.392 OA
ATOM     23  H20 <0> d          -2.600   1.279  -0.771  0.00  0.00     0.210 HD
ENDBRANCH  18  22
ENDBRANCH  17  18
ENDBRANCH  16  17
TORSDOF 5
