REMARK  4 active torsions:
REMARK  status: ('A' for Active; 'I' for Inactive)
REMARK    1  A    between atoms: N1_13  and  C13_17 
REMARK    2  A    between atoms: C13_17  and  C14_18 
REMARK    3  A    between atoms: C14_18  and  C15_19 
REMARK    4  A    between atoms: C15_19  and  C16_20 
ROOT
ATOM      1  C16 <0> d           3.108  -6.270   5.775  0.00  0.00     0.125 C 
ATOM      2  C17 <0> d           3.154  -6.572   7.215  0.00  0.00     0.059 C 
ATOM      3  N3  <0> d           3.189  -6.806   8.326  0.00  0.00    -0.197 NA
ENDROOT
BRANCH   1   4
ATOM      4  C15 <0> d           3.891  -4.985   5.498  0.00  0.00     0.035 C 
BRANCH   4   5
ATOM      5  C14 <0> d           3.843  -4.671   4.002  0.00  0.00     0.112 C 
ATOM      6  C18 <0> d           4.550  -5.725   3.256  0.00  0.00     0.065 C 
ATOM      7  N4  <0> d           5.095  -6.539   2.681  0.00  0.00    -0.197 NA
BRANCH   5   8
ATOM      8  C13 <0> d           4.519  -3.323   3.742  0.00  0.00     0.156 C 
BRANCH   8   9
ATOM      9  N1  <0> d           4.368  -2.965   2.329  0.00  0.00    -0.267 N 
ATOM     10  C11 <0> d           3.334  -2.256   1.832  0.00  0.00     0.256 A 
ATOM     11  C9  <0> d           3.604  -2.135   0.351  0.00  0.00     0.120 A 
ATOM     12  O1  <0> d           2.387  -1.810   2.445  0.00  0.00    -0.270 OA
ATOM     13  C8  <0> d           2.485  -2.794  -0.452  0.00  0.00     0.046 C 
ATOM     14  N2  <0> d           4.870  -2.850   0.157  0.00  0.00    -0.324 N 
ATOM     15  C10 <0> d           3.737  -0.675  -0.056  0.00  0.00     0.080 C 
ATOM     16  C7  <0> d           1.151  -2.200  -0.003  0.00  0.00     0.042 C 
ATOM     17  C5  <0> d           1.208  -0.694  -0.013  0.00  0.00    -0.052 A 
ATOM     18  C4  <0> d           2.393   0.006  -0.027  0.00  0.00    -0.049 A 
ATOM     19  C6  <0> d           0.002  -0.004   0.002  0.00  0.00     0.007 A 
ATOM     20  C3  <0> d           2.372   1.395  -0.017  0.00  0.00     0.007 A 
ATOM     21  C2  <0> d           1.174   2.078   0.002  0.00  0.00     0.001 A 
ATOM     22  C1  <0> d          -0.017   1.375   0.010  0.00  0.00     0.001 A 
ATOM     23  C12 <0> d           5.241  -3.302   1.371  0.00  0.00     0.326 A 
ATOM     24  H12 <0> d           5.346  -2.974  -0.679  0.00  0.00     0.165 HD
ATOM     25  O2  <0> d           6.253  -3.943   1.574  0.00  0.00    -0.247 OA
ENDBRANCH   8   9
ENDBRANCH   5   8
ENDBRANCH   4   5
ENDBRANCH   1   4
TORSDOF 4
