REMARK  3 active torsions:
REMARK  status: ('A' for Active; 'I' for Inactive)
REMARK    1  A    between atoms: C5_5  and  S1_9 
REMARK    2  A    between atoms: S1_9  and  C9_12 
REMARK    3  A    between atoms: C17_23  and  O5_26 
ROOT
ATOM      1  C9  <0> d          -1.360   3.068   0.059  0.00  0.00     0.214 C 
ATOM      2  C10 <0> d          -0.041   3.737  -0.344  0.00  0.00     0.054 C 
ATOM      3  C11 <0> d           1.082   3.107   0.491  0.00  0.00     0.072 C 
ATOM      4  C12 <0> d           1.268   1.667  -0.001  0.00  0.00     0.139 C 
ATOM      5  N1  <0> d          -0.011   0.966   0.007  0.00  0.00    -0.328 N 
ATOM      6  C13 <0> d          -1.198   1.575   0.017  0.00  0.00     0.239 C 
ATOM      7  O3  <0> d          -2.197   0.888  -0.006  0.00  0.00    -0.272 OA
ATOM      8  O4  <0> d           1.772   1.721  -1.340  0.00  0.00    -0.320 OA
ATOM      9  C14 <0> d           1.110   2.519  -2.231  0.00  0.00     0.079 A 
ATOM     10  C15 <0> d           0.222   3.493  -1.808  0.00  0.00    -0.016 A 
ATOM     11  C16 <0> d          -0.446   4.268  -2.742  0.00  0.00     0.047 A 
ATOM     12  C17 <0> d          -0.230   4.071  -4.096  0.00  0.00     0.068 A 
ATOM     13  C18 <0> d           0.659   3.094  -4.520  0.00  0.00     0.039 A 
ATOM     14  C19 <0> d           1.326   2.322  -3.591  0.00  0.00     0.040 A 
ATOM     15  C21 <0> d           2.260   0.937   0.906  0.00  0.00     0.071 C 
ATOM     16  H14 <0> d           0.002  -0.004   0.002  0.00  0.00     0.165 HD
ENDROOT
BRANCH   1  17
ATOM     17  S1  <0> d          -1.812   3.586   1.738  0.00  0.00     0.189 S 
ATOM     18  O1  <0> d          -0.828   3.150   2.666  0.00  0.00    -0.222 OA
ATOM     19  O2  <0> d          -2.255   4.936   1.731  0.00  0.00    -0.222 OA
BRANCH  17  20
ATOM     20  C5  <0> d          -3.249   2.644   2.130  0.00  0.00     0.060 A 
ATOM     21  C4  <0> d          -4.504   3.143   1.837  0.00  0.00     0.024 A 
ATOM     22  C3  <0> d          -5.631   2.402   2.140  0.00  0.00     0.009 A 
ATOM     23  C2  <0> d          -5.503   1.166   2.747  0.00  0.00    -0.056 A 
ATOM     24  C1  <0> d          -6.731   0.360   3.082  0.00  0.00     0.049 C 
ATOM     25  C7  <0> d          -4.248   0.670   3.046  0.00  0.00    -0.055 A 
ATOM     26  C6  <0> d          -3.121   1.409   2.737  0.00  0.00     0.030 A 
ATOM     27  C8  <0> d          -4.108  -0.677   3.707  0.00  0.00     0.049 C 
ENDBRANCH  17  20
ENDBRANCH   1  17
BRANCH  12  28
ATOM     28  O5  <0> d          -0.889   4.834  -5.009  0.00  0.00    -0.356 OA
ATOM     29  C20 <0> d          -0.617   4.576  -6.388  0.00  0.00     0.210 C 
ENDBRANCH  12  28
TORSDOF 3
