REMARK  6 active torsions:
REMARK  status: ('A' for Active; 'I' for Inactive)
REMARK    1  A    between atoms: C2_2  and  C3_3 
REMARK    2  A    between atoms: C2_2  and  N2_9 
REMARK    3  A    between atoms: N2_9  and  S1_10 
REMARK    4  A    between atoms: S1_10  and  C8_13 
REMARK    5  A    between atoms: C8_13  and  C9_14 
REMARK    6  A    between atoms: C9_14  and  S2_15 
ROOT
ATOM      1  N2  <0> d           0.711  -0.489   1.189  0.00  0.00    -0.315 N 
ATOM      2  H15 <0> d           1.677  -0.569   1.178  0.00  0.00     0.172 HD
ENDROOT
BRANCH   1   3
ATOM      3  C2  <0> d           0.002  -0.004   0.002  0.00  0.00     0.094 C 
ATOM      4  C1  <0> d          -0.019   1.526   0.010  0.00  0.00     0.033 C 
BRANCH   3   5
ATOM      5  C3  <0> d           0.718  -0.497  -1.257  0.00  0.00     0.034 C 
ATOM      6  C7  <0> d          -0.022   0.007  -2.497  0.00  0.00     0.238 C 
ATOM      7  N1  <0> d           0.661  -0.468  -3.706  0.00  0.00    -0.075 N 
ATOM      8  C6  <0> d           0.620  -1.934  -3.759  0.00  0.00     0.232 C 
ATOM      9  H12 <0> d           1.621  -0.159  -3.691  0.00  0.00     0.277 HD
ATOM     10  H23 <0> d           0.201  -0.090  -4.521  0.00  0.00     0.277 HD
ATOM     11  C5  <0> d           1.386  -2.513  -2.567  0.00  0.00     0.028 C 
ATOM     12  C4  <0> d           0.738  -2.029  -1.267  0.00  0.00     0.010 C 
ENDBRANCH   3   5
ENDBRANCH   1   3
BRANCH   1  13
ATOM     13  S1  <0> d          -0.139  -0.902   2.549  0.00  0.00     0.227 S 
ATOM     14  O1  <0> d           0.851  -1.297   3.489  0.00  0.00    -0.206 OA
ATOM     15  O2  <0> d          -0.977   0.216   2.807  0.00  0.00    -0.206 OA
BRANCH  13  16
ATOM     16  C8  <0> d          -1.140  -2.333   2.057  0.00  0.00     0.178 C 
BRANCH  16  17
ATOM     17  C9  <0> d          -1.975  -2.805   3.249  0.00  0.00     0.156 C 
BRANCH  17  18
ATOM     18  S2  <0> d          -2.976  -4.236   2.757  0.00  0.00     0.141 S 
ATOM     19  O3  <0> d          -3.915  -3.812   1.778  0.00  0.00    -0.228 OA
ATOM     20  O4  <0> d          -2.101  -5.314   2.455  0.00  0.00    -0.228 OA
ATOM     21  C10 <0> d          -3.877  -4.637   4.280  0.00  0.00     0.161 C 
ENDBRANCH  17  18
ENDBRANCH  16  17
ENDBRANCH  13  16
ENDBRANCH   1  13
TORSDOF 6
