REMARK  7 active torsions:
REMARK  status: ('A' for Active; 'I' for Inactive)
REMARK    1  A    between atoms: C2_2  and  C3_3 
REMARK    2  A    between atoms: C2_2  and  S1_10 
REMARK       I    between atoms: C3_3  and  N1_5 
REMARK    3  A    between atoms: N1_5  and  C4_6 
REMARK    4  A    between atoms: C4_6  and  C5_7 
REMARK    5  A    between atoms: C5_7  and  O2_8 
REMARK    6  A    between atoms: S1_10  and  C7_13 
REMARK    7  A    between atoms: N3_17  and  C10_18 
ROOT
ATOM      1  S1  <0> d           0.879  -0.605   1.472  0.00  0.00     0.221 S 
ATOM      2  O3  <0> d           0.263  -0.103   2.649  0.00  0.00    -0.219 OA
ATOM      3  O4  <0> d           1.166  -1.990   1.338  0.00  0.00    -0.219 OA
ENDROOT
BRANCH   1   4
ATOM      4  C2  <0> d           0.002  -0.004   0.002  0.00  0.00     0.204 C 
ATOM      5  C1  <0> d          -0.019   1.526   0.010  0.00  0.00     0.037 C 
BRANCH   4   6
ATOM      6  C3  <0> d          -1.412  -0.526   0.013  0.00  0.00     0.236 C 
ATOM      7  O1  <0> d          -1.939  -0.827   1.062  0.00  0.00    -0.272 OA
ATOM      8  N1  <0> d          -2.090  -0.657  -1.144  0.00  0.00    -0.358 N 
ATOM      9  H5  <0> d          -1.669  -0.416  -1.984  0.00  0.00     0.162 HD
BRANCH   8  10
ATOM     10  C4  <0> d          -3.465  -1.164  -1.134  0.00  0.00     0.148 C 
BRANCH  10  11
ATOM     11  C5  <0> d          -4.000  -1.215  -2.566  0.00  0.00     0.186 C 
BRANCH  11  12
ATOM     12  O2  <0> d          -3.251  -2.169  -3.321  0.00  0.00    -0.394 OA
ATOM     13  C6  <0> d          -3.673  -2.295  -4.681  0.00  0.00     0.201 C 
ENDBRANCH  11  12
ENDBRANCH  10  11
ENDBRANCH   8  10
ENDBRANCH   4   6
ENDBRANCH   1   4
BRANCH   1  14
ATOM     14  C7  <0> d           2.453   0.187   1.415  0.00  0.00     0.228 A 
ATOM     15  N3  <0> d           2.754   1.379   1.972  0.00  0.00    -0.326 N 
ATOM     16  C9  <0> d           4.072   1.630   1.703  0.00  0.00     0.113 A 
ATOM     17  C8  <0> d           4.529   0.587   0.984  0.00  0.00     0.137 A 
ATOM     18  N2  <0> d           3.518  -0.280   0.823  0.00  0.00    -0.231 NA
BRANCH  15  19
ATOM     19  C10 <0> d           1.841   2.242   2.727  0.00  0.00     0.092 A 
ATOM     20  C12 <0> d           2.210   2.564   4.176  0.00  0.00     0.028 A 
ATOM     21  C11 <0> d           2.336   3.642   3.097  0.00  0.00     0.028 A 
ENDBRANCH  15  19
ENDBRANCH   1  14
TORSDOF 7
