REMARK  5 active torsions:
REMARK  status: ('A' for Active; 'I' for Inactive)
REMARK    1  A    between atoms: C3_4  and  C5_7 
REMARK    2  A    between atoms: C5_7  and  C6_8 
REMARK    3  A    between atoms: C5_7  and  N4_10 
REMARK    4  A    between atoms: C6_8  and  N3_9 
REMARK    5  A    between atoms: C9_14  and  C10_15 
ROOT
ATOM      1  C5  <0> d           0.039  -3.298  -1.561  0.00  0.00     0.152 C 
ENDROOT
BRANCH   1   2
ATOM      2  C3  <0> d           0.027  -2.079  -0.676  0.00  0.00     0.003 A 
ATOM      3  C2  <0> d           0.008  -0.792  -1.094  0.00  0.00     0.122 A 
ATOM      4  N1  <0> d           0.002  -0.004   0.002  0.00  0.00    -0.285 N 
ATOM      5  C1  <0> d          -0.018   1.461   0.010  0.00  0.00     0.179 C 
ATOM      6  N2  <0> d           0.025  -0.834   1.130  0.00  0.00    -0.185 NA
ATOM      7  C4  <0> d           0.034  -2.078   0.723  0.00  0.00     0.149 A 
ENDBRANCH   1   2
BRANCH   1   8
ATOM      8  C6  <0> d           1.301  -4.118  -1.284  0.00  0.00     0.260 C 
BRANCH   8   9
ATOM      9  N3  <0> d           1.373  -5.241  -2.228  0.00  0.00    -0.077 N 
ATOM     10  H9  <0> d           1.404  -4.885  -3.172  0.00  0.00     0.274 HD
ATOM     11  H10 <0> d           2.205  -5.781  -2.045  0.00  0.00     0.274 HD
ATOM     12  H16 <0> d           0.559  -5.827  -2.116  0.00  0.00     0.274 HD
ENDBRANCH   8   9
ENDBRANCH   1   8
BRANCH   1  13
ATOM     13  N4  <0> d          -1.145  -4.115  -1.283  0.00  0.00    -0.328 N 
ATOM     14  C9  <0> d          -2.126  -4.454  -2.172  0.00  0.00     0.147 A 
ATOM     15  N5  <0> d          -3.013  -5.197  -1.544  0.00  0.00    -0.240 NA
ATOM     16  C8  <0> d          -2.641  -5.344  -0.266  0.00  0.00     0.136 A 
ATOM     17  C7  <0> d          -1.482  -4.680  -0.080  0.00  0.00     0.113 A 
BRANCH  14  18
ATOM     18  C10 <0> d          -2.180  -4.060  -3.589  0.00  0.00     0.051 A 
ATOM     19  S1  <0> d          -1.254  -2.793  -4.440  0.00  0.00    -0.098 SA
ATOM     20  C13 <0> d          -1.948  -3.023  -6.068  0.00  0.00     0.050 A 
ATOM     21  C12 <0> d          -2.835  -4.031  -5.860  0.00  0.00     0.009 A 
ATOM     22  C11 <0> d          -2.960  -4.566  -4.598  0.00  0.00     0.023 A 
ENDBRANCH  14  18
ENDBRANCH   1  13
TORSDOF 5
