REMARK  5 active torsions:
REMARK  status: ('A' for Active; 'I' for Inactive)
REMARK    1  A    between atoms: N1_2  and  S1_3 
REMARK    2  A    between atoms: S1_3  and  C2_6 
REMARK    3  A    between atoms: C6_10  and  C8_12 
REMARK    4  A    between atoms: C8_12  and  N2_13 
REMARK    5  A    between atoms: N2_13  and  C9_14 
ROOT
ATOM      1  C2  <0> d          -0.166  -0.494   2.705  0.00  0.00     0.080 A 
ATOM      2  C3  <0> d           0.172   0.589   3.494  0.00  0.00     0.025 A 
ATOM      3  C4  <0> d          -0.540   0.852   4.649  0.00  0.00     0.002 A 
ATOM      4  C5  <0> d          -1.592   0.033   5.014  0.00  0.00     0.009 A 
ATOM      5  C6  <0> d          -1.931  -1.050   4.224  0.00  0.00    -0.038 A 
ATOM      6  C7  <0> d          -1.221  -1.310   3.067  0.00  0.00     0.034 A 
ENDROOT
BRANCH   5   7
ATOM      7  C8  <0> d          -3.078  -1.943   4.622  0.00  0.00     0.176 C 
BRANCH   7   8
ATOM      8  N2  <0> d          -4.319  -1.436   4.034  0.00  0.00    -0.218 N 
ATOM      9  H11 <0> d          -4.305  -0.637   3.484  0.00  0.00     0.178 HD
BRANCH   8  10
ATOM     10  C9  <0> d          -5.514  -2.097   4.262  0.00  0.00     0.722 A 
ATOM     11  N4  <0> d          -6.628  -1.625   3.722  0.00  0.00    -0.074 NA
ATOM     12  C12 <0> d          -7.785  -2.236   3.915  0.00  0.00     0.157 A 
ATOM     13  C11 <0> d          -7.825  -3.376   4.703  0.00  0.00     0.047 A 
ATOM     14  C10 <0> d          -6.641  -3.840   5.257  0.00  0.00     0.157 A 
ATOM     15 Br1  <0> d          -9.457  -4.280   5.014  0.00  0.00    -0.048 Br
ATOM     16  N3  <0> d          -5.517  -3.184   5.019  0.00  0.00    -0.074 NA
ENDBRANCH   8  10
ENDBRANCH   7   8
ENDBRANCH   5   7
BRANCH   1  17
ATOM     17  S1  <0> d           0.742  -0.829   1.233  0.00  0.00     0.258 S 
ATOM     18  O1  <0> d           0.570  -2.212   0.955  0.00  0.00    -0.201 OA
ATOM     19  O2  <0> d           2.024  -0.240   1.403  0.00  0.00    -0.201 OA
BRANCH  17  20
ATOM     20  N1  <0> d           0.002  -0.004   0.002  0.00  0.00    -0.320 N 
ATOM     21  C1  <0> d          -0.018   1.461   0.010  0.00  0.00     0.159 C 
ATOM     22  H4  <0> d          -0.418  -0.491  -0.724  0.00  0.00     0.171 HD
ENDBRANCH  17  20
ENDBRANCH   1  17
TORSDOF 5
