REMARK  6 active torsions:
REMARK  status: ('A' for Active; 'I' for Inactive)
REMARK    1  A    between atoms: C2_2  and  C3_3 
REMARK    2  A    between atoms: C3_3  and  C8_9 
REMARK       I    between atoms: C8_9  and  N2_11 
REMARK    3  A    between atoms: N2_11  and  C9_12 
REMARK    4  A    between atoms: N2_11  and  C11_15 
REMARK    5  A    between atoms: C9_12  and  C10_13 
REMARK    6  A    between atoms: C10_13  and  O2_14 
ROOT
ATOM      1  C8  <0> d           2.807   0.276  -1.075  0.00  0.00     0.230 C 
ATOM      2  O1  <0> d           3.915  -0.064  -1.430  0.00  0.00    -0.272 OA
ATOM      3  N2  <0> d           2.576   1.554  -0.716  0.00  0.00    -0.344 N 
ENDROOT
BRANCH   1   4
ATOM      4  C3  <0> d           1.687  -0.732  -1.034  0.00  0.00     0.064 C 
ATOM      5  C7  <0> d           1.432  -1.155   0.414  0.00  0.00     0.251 C 
ATOM      6  N1  <0> d           2.649  -1.756   0.973  0.00  0.00    -0.074 N 
ATOM      7  C6  <0> d           2.986  -2.978   0.232  0.00  0.00     0.232 C 
ATOM      8  H13 <0> d           2.494  -1.985   1.944  0.00  0.00     0.277 HD
ATOM      9  H27 <0> d           3.411  -1.099   0.902  0.00  0.00     0.277 HD
ATOM     10  C5  <0> d           3.300  -2.625  -1.223  0.00  0.00     0.029 C 
ATOM     11  C4  <0> d           2.075  -1.963  -1.859  0.00  0.00     0.022 C 
BRANCH   4  12
ATOM     12  C2  <0> d           0.416  -0.108  -1.615  0.00  0.00     0.016 C 
ATOM     13  C1  <0> d           0.721   0.477  -2.996  0.00  0.00     0.006 C 
ENDBRANCH   4  12
ENDBRANCH   1   4
BRANCH   3  14
ATOM     14  C9  <0> d           1.204   2.067  -0.674  0.00  0.00     0.152 C 
BRANCH  14  15
ATOM     15  C10 <0> d           0.484   1.498   0.550  0.00  0.00     0.184 C 
BRANCH  15  16
ATOM     16  O2  <0> d           1.309   1.660   1.706  0.00  0.00    -0.399 OA
ATOM     17  H20 <0> d           0.915   1.321   2.521  0.00  0.00     0.209 HD
ENDBRANCH  15  16
ENDBRANCH  14  15
ENDBRANCH   3  14
BRANCH   3  18
ATOM     18  C11 <0> d           3.697   2.431  -0.369  0.00  0.00     0.102 C 
ATOM     19  C14 <0> d           3.436   3.075   1.014  0.00  0.00     0.165 C 
ATOM     20  S1  <0> d           4.259   4.712   0.860  0.00  0.00     0.146 S 
ATOM     21  C13 <0> d           4.812   4.611  -0.894  0.00  0.00     0.142 C 
ATOM     22  O3  <0> d           5.402   4.736   1.704  0.00  0.00    -0.228 OA
ATOM     23  O4  <0> d           3.280   5.735   0.979  0.00  0.00    -0.228 OA
ATOM     24  C12 <0> d           3.838   3.527  -1.438  0.00  0.00     0.041 C 
ENDBRANCH   3  18
TORSDOF 6
