REMARK  2 active torsions:
REMARK  status: ('A' for Active; 'I' for Inactive)
REMARK    1  A    between atoms: C11_14  and  C12_16 
REMARK    2  A    between atoms: C12_16  and  O2_17 
ROOT
ATOM      1  C1  <0> d          -0.018   1.465   0.010  0.00  0.00     0.269 C 
ATOM      2  N1  <0> d           0.002  -0.004   0.002  0.00  0.00    -0.075 N 
ATOM      3  C2  <0> d           0.681  -0.476  -1.211  0.00  0.00     0.235 C 
ATOM      4  C3  <0> d           0.625  -2.005  -1.267  0.00  0.00     0.044 C 
ATOM      5  C4  <0> d           1.308  -2.581  -0.029  0.00  0.00     0.015 C 
ATOM      6  C5  <0> d           0.659  -2.018   1.233  0.00  0.00     0.044 C 
ATOM      7  C6  <0> d           0.712  -0.489   1.192  0.00  0.00     0.235 C 
ATOM      8  C7  <0> d           2.804  -2.225  -0.049  0.00  0.00     0.101 C 
ATOM      9  C8  <0> d           3.548  -3.148   0.889  0.00  0.00     0.136 C 
ATOM     10  O1  <0> d           3.387  -4.496   0.805  0.00  0.00    -0.305 OA
ATOM     11  C9  <0> d           2.031  -4.931   0.946  0.00  0.00     0.303 A 
ATOM     12  C10 <0> d           1.226  -4.082  -0.037  0.00  0.00     0.074 A 
ATOM     13  N2  <0> d           0.579  -4.910  -0.762  0.00  0.00    -0.235 NA
ATOM     14  C11 <0> d           0.935  -6.191  -0.503  0.00  0.00     0.147 A 
ATOM     15  N3  <0> d           1.806  -6.298   0.476  0.00  0.00    -0.234 NA
ATOM     16  N4  <0> d           4.343  -2.653   1.776  0.00  0.00    -0.282 NA
ATOM     17  H19 <0> d           4.822  -3.241   2.380  0.00  0.00     0.189 HD
ATOM     18  H21 <0> d          -0.945  -0.352   0.012  0.00  0.00     0.279 HD
ENDROOT
BRANCH  14  19
ATOM     19  C12 <0> d           0.381  -7.377  -1.251  0.00  0.00     0.247 C 
BRANCH  19  20
ATOM     20  O2  <0> d           0.959  -8.578  -0.735  0.00  0.00    -0.388 OA
ATOM     21  C13 <0> d           0.498  -9.767  -1.379  0.00  0.00     0.202 C 
ENDBRANCH  19  20
ENDBRANCH  14  19
TORSDOF 2
