REMARK  3 active torsions:
REMARK  status: ('A' for Active; 'I' for Inactive)
REMARK    1  A    between atoms: C3_3  and  C6_9 
REMARK    2  A    between atoms: C6_9  and  N3_10 
REMARK    3  A    between atoms: C12_16  and  N4_18 
ROOT
ATOM      1  N3  <0> d           1.374  -0.168  -3.038  0.00  0.00    -0.058 N 
ATOM      2  C7  <0> d           2.005   1.010  -2.386  0.00  0.00     0.191 C 
ATOM      3  C8  <0> d           1.401   2.224  -3.129  0.00  0.00     0.035 C 
ATOM      4  C9  <0> d           0.996   1.678  -4.514  0.00  0.00     0.035 C 
ATOM      5  C10 <0> d           1.393   0.184  -4.482  0.00  0.00     0.191 C 
ATOM      6  C11 <0> d           2.850   0.074  -4.959  0.00  0.00     0.066 C 
ATOM      7  C12 <0> d           3.693   1.119  -4.222  0.00  0.00     0.187 C 
ATOM      8  C13 <0> d           3.509   0.952  -2.697  0.00  0.00     0.066 C 
ATOM      9  H22 <0> d           1.915  -1.003  -2.868  0.00  0.00     0.281 HD
ENDROOT
BRANCH   1  10
ATOM     10  C6  <0> d          -0.006  -0.343  -2.566  0.00  0.00     0.279 C 
BRANCH  10  11
ATOM     11  C3  <0> d           0.008  -0.818  -1.135  0.00  0.00     0.034 A 
ATOM     12  C2  <0> d           0.002  -0.004   0.002  0.00  0.00     0.062 A 
ATOM     13  C1  <0> d          -0.018   1.503   0.010  0.00  0.00     0.073 C 
ATOM     14  N2  <0> d           0.023  -0.777   1.058  0.00  0.00    -0.176 NA
ATOM     15  N1  <0> d           0.035  -2.109   0.626  0.00  0.00    -0.262 N 
ATOM     16  C4  <0> d           0.028  -2.108  -0.724  0.00  0.00     0.131 A 
ATOM     17  C5  <0> d           0.055  -3.294   1.487  0.00  0.00     0.181 C 
ATOM     18 Cl1  <0> d           0.043  -3.509  -1.749  0.00  0.00    -0.062 Cl
ENDBRANCH  10  11
ENDBRANCH   1  10
BRANCH   7  19
ATOM     19  N4  <0> d           5.109   0.932  -4.562  0.00  0.00    -0.075 N 
ATOM     20  H20 <0> d           5.234   1.040  -5.558  0.00  0.00     0.274 HD
ATOM     21  H21 <0> d           5.665   1.620  -4.077  0.00  0.00     0.274 HD
ATOM     22  H23 <0> d           5.402   0.007  -4.286  0.00  0.00     0.274 HD
ENDBRANCH   7  19
TORSDOF 3
