REMARK  4 active torsions:
REMARK  status: ('A' for Active; 'I' for Inactive)
REMARK    1  A    between atoms: N1_4  and  C7_9 
REMARK    2  A    between atoms: C7_9  and  C15_18 
REMARK    3  A    between atoms: N2_12  and  C12_15 
REMARK    4  A    between atoms: C15_18  and  N3_19 
ROOT
ATOM      1  C7  <0> d          -2.751  -2.519   0.040  0.00  0.00     0.186 C 
ATOM      2  C8  <0> d          -3.534  -2.107  -1.210  0.00  0.00     0.071 C 
ATOM      3  C9  <0> d          -4.859  -2.871  -1.250  0.00  0.00     0.238 C 
ATOM      4  N2  <0> d          -4.595  -4.314  -1.291  0.00  0.00    -0.067 N 
ATOM      5  C10 <0> d          -3.908  -4.729  -0.062  0.00  0.00     0.238 C 
ATOM      6  C11 <0> d          -2.546  -4.037   0.024  0.00  0.00     0.071 C 
ATOM      7  H33 <0> d          -4.014  -4.527  -2.088  0.00  0.00     0.280 HD
ENDROOT
BRANCH   1   8
ATOM      8  N1  <0> d          -1.445  -1.847   0.046  0.00  0.00     0.104 N 
ATOM      9  C3  <0> d          -0.645  -2.239  -1.124  0.00  0.00     0.305 C 
ATOM     10  C2  <0> d           0.727  -1.563  -1.048  0.00  0.00     0.146 C 
ATOM     11  C1  <0> d           1.534  -1.903  -2.302  0.00  0.00     0.041 C 
ATOM     12  O1  <0> d           0.552  -0.147  -0.961  0.00  0.00    -0.378 OA
ATOM     13  C5  <0> d          -0.223   0.270   0.167  0.00  0.00     0.146 C 
ATOM     14  C4  <0> d          -1.604  -0.387   0.102  0.00  0.00     0.305 C 
ATOM     15  C6  <0> d          -0.379   1.792   0.146  0.00  0.00     0.041 C 
ENDBRANCH   1   8
BRANCH   1  16
ATOM     16  C15 <0> d          -3.536  -2.122   1.292  0.00  0.00     0.271 C 
BRANCH  16  17
ATOM     17  N3  <0> d          -2.731  -2.408   2.486  0.00  0.00    -0.077 N 
ATOM     18  H30 <0> d          -2.472  -3.383   2.492  0.00  0.00     0.274 HD
ATOM     19  H31 <0> d          -1.897  -1.839   2.474  0.00  0.00     0.274 HD
ATOM     20  H32 <0> d          -3.269  -2.198   3.313  0.00  0.00     0.274 HD
ENDBRANCH  16  17
ENDBRANCH   1  16
BRANCH   4  21
ATOM     21  C12 <0> d          -5.866  -5.040  -1.408  0.00  0.00     0.180 C 
ATOM     22  C13 <0> d          -6.579  -4.615  -2.693  0.00  0.00     0.039 C 
ATOM     23  C14 <0> d          -5.593  -6.545  -1.450  0.00  0.00     0.039 C 
ENDBRANCH   4  21
TORSDOF 4
