REMARK  5 active torsions:
REMARK  status: ('A' for Active; 'I' for Inactive)
REMARK    1  A    between atoms: S1_2  and  N1_5 
REMARK    2  A    between atoms: N1_5  and  C2_6 
REMARK    3  A    between atoms: C15_21  and  C16_22 
REMARK    4  A    between atoms: C15_21  and  N2_30 
REMARK    5  A    between atoms: C16_22  and  C17_23 
ROOT
ATOM      1  C2  <0> d          -1.978   1.244   1.782  0.00  0.00     0.043 A 
ATOM      2  C3  <0> d          -2.175  -0.124   1.617  0.00  0.00     0.033 A 
ATOM      3  C4  <0> d          -3.381  -0.706   1.949  0.00  0.00     0.040 A 
ATOM      4  C5  <0> d          -4.416   0.070   2.454  0.00  0.00     0.084 A 
ATOM      5  C6  <0> d          -4.218   1.449   2.628  0.00  0.00     0.045 A 
ATOM      6  C7  <0> d          -2.995   2.033   2.293  0.00  0.00     0.048 A 
ATOM      7  C8  <0> d          -5.316   2.264   3.176  0.00  0.00     0.165 C 
ATOM      8  O3  <0> d          -5.138   3.403   3.555  0.00  0.00    -0.292 OA
ATOM      9  C9  <0> d          -6.683   1.605   3.242  0.00  0.00     0.122 C 
ATOM     10  C10 <0> d          -6.465   0.154   3.691  0.00  0.00     0.077 C 
ATOM     11  O4  <0> d          -5.601  -0.506   2.768  0.00  0.00    -0.339 OA
ATOM     12  C11 <0> d          -7.815  -0.566   3.739  0.00  0.00     0.067 C 
ATOM     13  C12 <0> d          -7.611  -1.990   4.260  0.00  0.00     0.238 C 
ATOM     14  C13 <0> d          -5.691  -1.300   5.568  0.00  0.00     0.238 C 
ATOM     15  C14 <0> d          -5.836   0.145   5.085  0.00  0.00     0.067 C 
ATOM     16  N2  <0> d          -7.030  -1.925   5.618  0.00  0.00    -0.071 N 
ATOM     17  H27 <0> d          -7.642  -1.355   6.215  0.00  0.00     0.279 HD
ENDROOT
BRANCH  16  18
ATOM     18  C15 <0> d          -6.932  -3.283   6.191  0.00  0.00     0.239 C 
BRANCH  18  19
ATOM     19  C16 <0> d          -8.261  -4.012   5.983  0.00  0.00     0.066 C 
BRANCH  19  20
ATOM     20  C17 <0> d          -8.178  -5.390   6.589  0.00  0.00    -0.057 A 
ATOM     21  C22 <0> d          -8.541  -5.587   7.908  0.00  0.00     0.007 A 
ATOM     22  C21 <0> d          -8.466  -6.851   8.464  0.00  0.00     0.001 A 
ATOM     23  C20 <0> d          -8.027  -7.917   7.701  0.00  0.00     0.000 A 
ATOM     24  C19 <0> d          -7.664  -7.719   6.381  0.00  0.00     0.001 A 
ATOM     25  C18 <0> d          -7.745  -6.457   5.824  0.00  0.00     0.007 A 
ENDBRANCH  19  20
ENDBRANCH  18  19
ENDBRANCH  16  18
BRANCH   1  26
ATOM     26  N1  <0> d          -0.751   1.822   1.438  0.00  0.00    -0.285 N 
ATOM     27  H4  <0> d          -0.330   2.459   2.036  0.00  0.00     0.178 HD
BRANCH  26  28
ATOM     28  S1  <0> d          -0.017   1.417   0.010  0.00  0.00     0.227 S 
ATOM     29  C1  <0> d          -1.135   2.034  -1.279  0.00  0.00     0.186 C 
ATOM     30  O1  <0> d           0.002  -0.004   0.002  0.00  0.00    -0.206 OA
ATOM     31  O2  <0> d           1.195   2.158   0.002  0.00  0.00    -0.206 OA
ENDBRANCH  26  28
ENDBRANCH   1  26
TORSDOF 5
