REMARK  5 active torsions:
REMARK  status: ('A' for Active; 'I' for Inactive)
REMARK    1  A    between atoms: N1_6  and  C7_8 
REMARK    2  A    between atoms: C7_8  and  C9_10 
REMARK    3  A    between atoms: C9_10  and  N2_11 
REMARK       I    between atoms: N2_11  and  C10_12 
REMARK       I    between atoms: C10_12  and  N3_14 
REMARK    4  A    between atoms: N3_14  and  N4_15 
REMARK    5  A    between atoms: N4_15  and  C11_16 
ROOT
ATOM      1  N2  <0> d           1.995  -4.565   1.353  0.00  0.00    -0.340 N 
ATOM      2  C10 <0> d           1.953  -5.895   1.139  0.00  0.00     0.330 C 
ATOM      3  O1  <0> d           1.355  -6.617   1.913  0.00  0.00    -0.246 OA
ATOM      4  N3  <0> d           2.574  -6.424   0.067  0.00  0.00    -0.273 N 
ATOM      5  H19 <0> d           2.472  -3.989   0.736  0.00  0.00     0.164 HD
ATOM      6  H20 <0> d           2.544  -7.382  -0.087  0.00  0.00     0.185 HD
ENDROOT
BRANCH   1   7
ATOM      7  C9  <0> d           1.320  -3.989   2.519  0.00  0.00     0.157 C 
BRANCH   7   8
ATOM      8  C7  <0> d           1.403  -2.463   2.455  0.00  0.00     0.202 C 
ATOM      9  C8  <0> d           0.598  -1.859   3.607  0.00  0.00     0.042 C 
BRANCH   8  10
ATOM     10  N1  <0> d           0.854  -1.996   1.175  0.00  0.00    -0.065 N 
ATOM     11  C5  <0> d           1.057  -0.547   1.057  0.00  0.00     0.235 C 
ATOM     12  C4  <0> d           0.559  -0.068  -0.309  0.00  0.00     0.028 C 
ATOM     13  C3  <0> d          -0.932  -0.389  -0.444  0.00  0.00     0.007 C 
ATOM     14  C2  <0> d          -1.141  -1.893  -0.244  0.00  0.00     0.007 C 
ATOM     15  C1  <0> d          -2.636  -2.213  -0.299  0.00  0.00     0.011 C 
ATOM     16  C6  <0> d          -0.580  -2.305   1.118  0.00  0.00     0.239 C 
ATOM     17  H31 <0> d           1.327  -2.464   0.417  0.00  0.00     0.280 HD
ENDBRANCH   8  10
ENDBRANCH   7   8
ENDBRANCH   1   7
BRANCH   4  18
ATOM     18  N4  <0> d           3.246  -5.613  -0.803  0.00  0.00    -0.226 NA
ATOM     19  H21 <0> d           2.642  -4.891  -1.165  0.00  0.00     0.147 HD
BRANCH  18  20
ATOM     20  C11 <0> d           3.846  -6.393  -1.894  0.00  0.00     0.040 C 
ATOM     21  C14 <0> d           4.588  -5.429  -2.840  0.00  0.00     0.166 C 
ATOM     22  S1  <0> d           6.284  -6.140  -2.920  0.00  0.00     0.146 S 
ATOM     23  C13 <0> d           5.895  -7.826  -2.276  0.00  0.00     0.142 C 
ATOM     24  O2  <0> d           6.686  -6.240  -4.279  0.00  0.00    -0.228 OA
ATOM     25  O3  <0> d           7.119  -5.465  -1.988  0.00  0.00    -0.228 OA
ATOM     26  C12 <0> d           4.748  -7.468  -1.289  0.00  0.00     0.042 C 
ATOM     27  C15 <0> d           2.725  -7.082  -2.676  0.00  0.00     0.035 C 
ENDBRANCH  18  20
ENDBRANCH   4  18
TORSDOF 5
