REMARK  6 active torsions:
REMARK  status: ('A' for Active; 'I' for Inactive)
REMARK    1  A    between atoms: C8_9  and  O4_34 
REMARK    2  A    between atoms: C9_11  and  C10_13 
REMARK    3  A    between atoms: C13_16  and  O2_21 
REMARK    4  A    between atoms: C14_17  and  O1_19 
REMARK    5  A    between atoms: O2_21  and  C17_22 
REMARK    6  A    between atoms: C17_22  and  C18_24 
ROOT
ATOM      1  C10 <0> d          -1.286  -4.830  -0.021  0.00  0.00    -0.012 A 
ATOM      2  C11 <0> d          -0.085  -4.146   0.020  0.00  0.00     0.014 A 
ATOM      3  C12 <0> d          -0.073  -2.764   0.024  0.00  0.00     0.041 A 
ATOM      4  C13 <0> d          -1.267  -2.060  -0.002  0.00  0.00     0.112 A 
ATOM      5  C14 <0> d          -2.476  -2.749  -0.043  0.00  0.00     0.102 A 
ATOM      6  C15 <0> d          -2.481  -4.135  -0.052  0.00  0.00     0.050 A 
ENDROOT
BRANCH   1   7
ATOM      7  C9  <0> d          -1.293  -6.337  -0.030  0.00  0.00     0.243 C 
ATOM      8  N1  <0> d          -2.533  -6.810   0.573  0.00  0.00    -0.235 NA
ATOM      9  C8  <0> d          -2.678  -7.116   1.833  0.00  0.00     0.173 C 
ATOM     10  C7  <0> d          -1.472  -7.077   2.699  0.00  0.00     0.057 A 
ATOM     11  C4  <0> d          -1.433  -7.174   4.145  0.00  0.00    -0.024 A 
ATOM     12  C6  <0> d          -0.232  -6.925   2.065  0.00  0.00     0.087 A 
ATOM     13  C3  <0> d          -2.663  -7.349   5.029  0.00  0.00     0.068 C 
ATOM     14  C5  <0> d          -0.203  -7.099   4.707  0.00  0.00     0.018 A 
ATOM     15  C2  <0> d          -2.199  -7.846   6.401  0.00  0.00     0.239 C 
ATOM     16  N3  <0> d          -1.146  -6.948   6.917  0.00  0.00    -0.070 N 
ATOM     17  C1  <0> d          -0.927  -7.199   8.358  0.00  0.00     0.270 C 
ATOM     18  C28 <0> d           0.115  -7.168   6.167  0.00  0.00     0.281 C 
ATOM     19  H26 <0> d          -1.445  -5.974   6.790  0.00  0.00     0.279 HD
ATOM     20  S1  <0> d           0.909  -6.904   3.340  0.00  0.00    -0.074 SA
ATOM     21  N2  <0> d          -0.110  -6.828   0.700  0.00  0.00    -0.357 N 
ATOM     22  H9  <0> d           0.710  -7.069   0.241  0.00  0.00     0.162 HD
BRANCH   9  23
ATOM     23  O4  <0> d          -3.888  -7.456   2.334  0.00  0.00    -0.344 OA
ATOM     24  H23 <0> d          -4.601  -7.448   1.681  0.00  0.00     0.219 HD
ENDBRANCH   9  23
ENDBRANCH   1   7
BRANCH   5  25
ATOM     25  O1  <0> d          -3.650  -2.063  -0.074  0.00  0.00    -0.353 OA
ATOM     26  C16 <0> d          -4.851  -2.836  -0.115  0.00  0.00     0.210 C 
ENDBRANCH   5  25
BRANCH   4  27
ATOM     27  O2  <0> d          -1.257  -0.701   0.006  0.00  0.00    -0.272 OA
BRANCH  27  28
ATOM     28  C17 <0> d          -1.372  -0.096   1.205  0.00  0.00     0.299 C 
ATOM     29  O3  <0> d          -1.384  -0.760   2.223  0.00  0.00    -0.259 OA
BRANCH  28  30
ATOM     30  C18 <0> d          -1.482   1.371   1.282  0.00  0.00     0.051 A 
ATOM     31  C23 <0> d          -1.725   2.035   2.561  0.00  0.00    -0.010 A 
ATOM     32  C22 <0> d          -1.824   3.448   2.591  0.00  0.00    -0.025 A 
ATOM     33  C24 <0> d          -1.860   1.307   3.749  0.00  0.00     0.013 A 
ATOM     34  C21 <0> d          -1.687   4.175   1.396  0.00  0.00     0.012 A 
ATOM     35  C27 <0> d          -2.057   4.094   3.817  0.00  0.00     0.012 A 
ATOM     36  C20 <0> d          -1.461   3.535   0.216  0.00  0.00     0.002 A 
ATOM     37  C19 <0> d          -1.352   2.153   0.141  0.00  0.00     0.018 A 
ATOM     38  C26 <0> d          -2.183   3.355   4.954  0.00  0.00     0.001 A 
ATOM     39  C25 <0> d          -2.086   1.966   4.921  0.00  0.00     0.001 A 
ENDBRANCH  28  30
ENDBRANCH  27  28
ENDBRANCH   4  27
TORSDOF 6
