REMARK  2 active torsions:
REMARK  status: ('A' for Active; 'I' for Inactive)
REMARK    1  A    between atoms: C2_2  and  C3_3 
REMARK    2  A    between atoms: C7_11  and  C10_15 
ROOT
ATOM      1  C3  <0> d           0.541   7.300  -0.803  0.00  0.00     0.149 A 
ATOM      2  N1  <0> d          -0.481   6.945  -1.579  0.00  0.00    -0.205 NA
ATOM      3  C4  <0> d          -0.628   5.650  -1.533  0.00  0.00     0.196 A 
ATOM      4  N2  <0> d           0.311   5.112  -0.711  0.00  0.00    -0.211 N 
ATOM      5  N3  <0> d           1.055   6.231  -0.255  0.00  0.00    -0.150 NA
ATOM      6  C5  <0> d           0.318   3.738  -0.531  0.00  0.00     0.056 A 
ATOM      7  C6  <0> d          -0.606   3.011  -1.179  0.00  0.00     0.049 A 
ATOM      8  S1  <0> d          -1.536   4.222  -2.080  0.00  0.00    -0.050 SA
ATOM      9  C7  <0> d          -0.787   1.530  -1.133  0.00  0.00     0.302 C 
ATOM     10  N4  <0> d          -0.012   1.005   0.008  0.00  0.00     0.098 N 
ATOM     11  C8  <0> d           1.353   1.550  -0.003  0.00  0.00     0.277 C 
ATOM     12  C9  <0> d           1.331   3.035   0.369  0.00  0.00     0.090 C 
ATOM     13  H7  <0> d          -0.504   1.292   0.948  0.00  0.00     0.317 HD
ENDROOT
BRANCH   9  14
ATOM     14  C10 <0> d          -2.246   1.201  -0.951  0.00  0.00     0.020 A 
ATOM     15  S2  <0> d          -3.228   1.233   0.540  0.00  0.00    -0.104 SA
ATOM     16  C13 <0> d          -4.782   0.717  -0.171  0.00  0.00     0.050 A 
ATOM     17  C12 <0> d          -4.452   0.550  -1.475  0.00  0.00     0.008 A 
ATOM     18  C11 <0> d          -3.152   0.798  -1.875  0.00  0.00     0.017 A 
ENDBRANCH   9  14
BRANCH   1  19
ATOM     19  C2  <0> d           1.028   8.710  -0.591  0.00  0.00     0.078 C 
ATOM     20  C1  <0> d           0.294   9.329   0.601  0.00  0.00     0.013 C 
ENDBRANCH   1  19
TORSDOF 2
