REMARK  4 active torsions:
REMARK  status: ('A' for Active; 'I' for Inactive)
REMARK    1  A    between atoms: C4_4  and  N1_8 
REMARK       I    between atoms: N1_8  and  C7_9 
REMARK    2  A    between atoms: C7_9  and  C8_11 
REMARK    3  A    between atoms: C8_11  and  C9_12 
REMARK    4  A    between atoms: C9_12  and  C10_13 
REMARK       I    between atoms: C10_13  and  N2_15 
ROOT
ATOM      1  C10 <0> d           7.670   2.842  -3.746  0.00  0.00     0.220 C 
ATOM      2  O3  <0> d           8.200   3.130  -2.693  0.00  0.00    -0.273 OA
ATOM      3  N2  <0> d           8.367   2.927  -4.896  0.00  0.00    -0.351 N 
ATOM      4  C11 <0> d           9.766   3.372  -4.894  0.00  0.00     0.132 C 
ATOM      5  C12 <0> d           9.974   4.472  -5.919  0.00  0.00     0.023 C 
ATOM      6  C13 <0> d           9.403   4.072  -7.280  0.00  0.00     0.020 C 
ATOM      7  C14 <0> d           7.907   3.795  -7.114  0.00  0.00     0.054 C 
ATOM      8  C15 <0> d           7.740   2.583  -6.182  0.00  0.00     0.136 C 
ATOM      9  C16 <0> d           7.240   4.978  -6.454  0.00  0.00     0.020 C 
ATOM     10  C17 <0> d           5.924   5.189  -6.726  0.00  0.00     0.026 C 
ATOM     11  C18 <0> d           5.225   6.225  -6.097  0.00  0.00     0.007 C 
ATOM     12  C19 <0> d           5.878   7.003  -5.186  0.00  0.00     0.074 C 
ATOM     13  C20 <0> d           7.233   6.757  -4.926  0.00  0.00     0.247 C 
ATOM     14  O4  <0> d           7.811   7.402  -4.065  0.00  0.00    -0.268 OA
ATOM     15  N3  <0> d           7.909   5.810  -5.622  0.00  0.00    -0.317 N 
ATOM     16  C21 <0> d           9.364   5.787  -5.469  0.00  0.00     0.138 C 
ENDROOT
BRANCH   1  17
ATOM     17  C9  <0> d           6.232   2.390  -3.767  0.00  0.00     0.112 C 
BRANCH  17  18
ATOM     18  C8  <0> d           5.679   2.382  -2.341  0.00  0.00     0.112 C 
BRANCH  18  19
ATOM     19  C7  <0> d           4.242   1.930  -2.362  0.00  0.00     0.218 C 
ATOM     20  N1  <0> d           3.545   1.845  -1.212  0.00  0.00    -0.356 N 
ATOM     21  H13 <0> d           3.968   2.075  -0.370  0.00  0.00     0.162 HD
ATOM     22  O2  <0> d           3.712   1.643  -3.415  0.00  0.00    -0.274 OA
BRANCH  20  23
ATOM     23  C4  <0> d           2.147   1.406  -1.233  0.00  0.00     0.089 C 
ATOM     24  C3  <0> d           1.419   1.953  -0.001  0.00  0.00     0.062 C 
ATOM     25  C2  <0> d          -0.017   1.425   0.010  0.00  0.00     0.055 C 
ATOM     26  C1  <0> d          -0.757   1.932  -1.230  0.00  0.00     0.045 C 
ATOM     27  O1  <0> d           0.002  -0.004   0.002  0.00  0.00    -0.381 OA
ATOM     28  C22 <0> d          -0.733   1.919   1.269  0.00  0.00     0.045 C 
ATOM     29  C6  <0> d           0.628  -0.573  -1.150  0.00  0.00     0.171 C 
ATOM     30  C5  <0> d           2.091  -0.124  -1.207  0.00  0.00     0.051 C 
ENDBRANCH  20  23
ENDBRANCH  18  19
ENDBRANCH  17  18
ENDBRANCH   1  17
TORSDOF 4
