REMARK  4 active torsions:
REMARK  status: ('A' for Active; 'I' for Inactive)
REMARK    1  A    between atoms: C2_2  and  N1_3 
REMARK    2  A    between atoms: C6_7  and  C11_16 
REMARK    3  A    between atoms: C12_19  and  C13_21 
REMARK    4  A    between atoms: N5_25  and  C17_27 
ROOT
ATOM      1  C11 <0> d          -3.920  -1.501   4.943  0.00  0.00     0.163 A 
ATOM      2  N3  <0> d          -5.122  -1.964   5.064  0.00  0.00    -0.113 NA
ATOM      3  O3  <0> d          -5.478  -2.094   6.428  0.00  0.00    -0.228 OA
ATOM      4  C12 <0> d          -4.344  -1.653   7.190  0.00  0.00     0.261 A 
ATOM      5  N4  <0> d          -3.342  -1.278   6.180  0.00  0.00    -0.344 N 
ATOM      6  H12 <0> d          -2.450  -0.939   6.348  0.00  0.00     0.164 HD
ENDROOT
BRANCH   1   7
ATOM      7  C6  <0> d          -3.248  -1.249   3.649  0.00  0.00     0.014 A 
ATOM      8  C5  <0> d          -1.942  -0.752   3.624  0.00  0.00     0.018 A 
ATOM      9  C4  <0> d          -1.316  -0.518   2.422  0.00  0.00     0.033 A 
ATOM     10  C3  <0> d          -1.978  -0.774   1.224  0.00  0.00     0.064 A 
ATOM     11  N1  <0> d          -1.331  -0.532   0.017  0.00  0.00    -0.308 N 
ATOM     12  C8  <0> d          -3.285  -1.270   1.242  0.00  0.00     0.063 A 
ATOM     13  C10 <0> d          -1.963  -0.770  -1.150  0.00  0.00     0.316 A 
ATOM     14  C9  <0> d          -3.355  -1.305  -1.132  0.00  0.00     0.314 A 
ATOM     15  O2  <0> d          -1.402  -0.555  -2.205  0.00  0.00    -0.262 OA
ATOM     16  N2  <0> d          -3.960  -1.530   0.052  0.00  0.00    -0.317 N 
ATOM     17  O1  <0> d          -3.940  -1.530  -2.172  0.00  0.00    -0.262 OA
ATOM     18  H1  <0> d          -4.867  -1.875   0.075  0.00  0.00     0.169 HD
ATOM     19  C7  <0> d          -3.917  -1.507   2.454  0.00  0.00     0.047 A 
BRANCH  11  20
ATOM     20  C2  <0> d           0.038  -0.011   0.014  0.00  0.00     0.128 C 
ATOM     21  C1  <0> d           0.001   1.519   0.015  0.00  0.00     0.027 C 
ENDBRANCH  11  20
ENDBRANCH   1   7
BRANCH   4  22
ATOM     22  C13 <0> d          -3.815  -2.790   8.067  0.00  0.00     0.064 C 
ATOM     23  C16 <0> d          -4.860  -3.202   9.127  0.00  0.00     0.141 C 
ATOM     24  N5  <0> d          -4.086  -3.532  10.331  0.00  0.00    -0.318 N 
ATOM     25  C15 <0> d          -2.838  -3.038  10.260  0.00  0.00     0.225 C 
ATOM     26  C14 <0> d          -2.641  -2.308   8.950  0.00  0.00     0.114 C 
ATOM     27  O4  <0> d          -1.993  -3.159  11.122  0.00  0.00    -0.273 OA
BRANCH  24  28
ATOM     28  C17 <0> d          -4.584  -4.268  11.412  0.00  0.00     0.037 A 
ATOM     29  C22 <0> d          -5.923  -4.635  11.446  0.00  0.00     0.037 A 
ATOM     30  C21 <0> d          -6.410  -5.367  12.511  0.00  0.00    -0.054 A 
ATOM     31  C20 <0> d          -5.568  -5.724  13.549  0.00  0.00    -0.056 A 
ATOM     32  C23 <0> d          -7.861  -5.772  12.546  0.00  0.00     0.049 C 
ATOM     33  C19 <0> d          -4.236  -5.355  13.521  0.00  0.00     0.009 A 
ATOM     34  C24 <0> d          -6.104  -6.517  14.713  0.00  0.00     0.049 C 
ATOM     35  C18 <0> d          -3.741  -4.628  12.455  0.00  0.00     0.030 A 
ENDBRANCH  24  28
ENDBRANCH   4  22
TORSDOF 4
