REMARK  4 active torsions:
REMARK  status: ('A' for Active; 'I' for Inactive)
REMARK    1  A    between atoms: C3_3  and  C5_6 
REMARK    2  A    between atoms: C6_8  and  C7_12 
REMARK    3  A    between atoms: C7_12  and  N4_13 
REMARK       I    between atoms: N4_13  and  C8_14 
REMARK       I    between atoms: C8_14  and  N5_16 
REMARK    4  A    between atoms: N5_16  and  C9_17 
ROOT
ATOM      1  N4  <0> d           7.773   1.057   1.298  0.00  0.00    -0.336 N 
ATOM      2  C8  <0> d           9.024   0.611   1.526  0.00  0.00     0.316 C 
ATOM      3  O1  <0> d           9.788   0.443   0.595  0.00  0.00    -0.247 OA
ATOM      4  N5  <0> d           9.429   0.350   2.785  0.00  0.00    -0.338 N 
ATOM      5  H8  <0> d           7.164   1.191   2.041  0.00  0.00     0.164 HD
ATOM      6  H9  <0> d           8.819   0.484   3.527  0.00  0.00     0.164 HD
ENDROOT
BRANCH   1   7
ATOM      7  C7  <0> d           7.333   1.339  -0.070  0.00  0.00     0.204 C 
BRANCH   7   8
ATOM      8  C6  <0> d           5.906   1.821  -0.050  0.00  0.00     0.140 A 
ATOM      9  N1  <0> d           4.842   1.062  -0.044  0.00  0.00    -0.210 NA
ATOM     10  C5  <0> d           3.740   1.825  -0.024  0.00  0.00     0.188 A 
ATOM     11  N3  <0> d           4.104   3.091  -0.022  0.00  0.00    -0.152 NA
ATOM     12  N2  <0> d           5.508   3.106  -0.033  0.00  0.00    -0.261 N 
ATOM     13  H1  <0> d           6.080   3.890  -0.033  0.00  0.00     0.190 HD
BRANCH  10  14
ATOM     14  C3  <0> d           2.347   1.329  -0.013  0.00  0.00     0.054 A 
ATOM     15  C2  <0> d           1.178   2.041   0.002  0.00  0.00     0.023 A 
ATOM     16  C1  <0> d          -0.016   1.353   0.009  0.00  0.00     0.009 A 
ATOM     17  C4  <0> d           0.002  -0.004   0.002  0.00  0.00     0.050 A 
ATOM     18  S1  <0> d           1.752  -0.354  -0.017  0.00  0.00    -0.098 SA
ENDBRANCH  10  14
ENDBRANCH   7   8
ENDBRANCH   1   7
BRANCH   4  19
ATOM     19  C9  <0> d          10.789  -0.135   3.032  0.00  0.00     0.101 C 
ATOM     20  C12 <0> d          10.813  -0.948   4.348  0.00  0.00     0.165 C 
ATOM     21  S2  <0> d          12.505  -0.627   4.991  0.00  0.00     0.146 S 
ATOM     22  C11 <0> d          13.101   0.552   3.706  0.00  0.00     0.142 C 
ATOM     23  O2  <0> d          12.405   0.056   6.233  0.00  0.00    -0.228 OA
ATOM     24  O3  <0> d          13.268  -1.823   4.910  0.00  0.00    -0.228 OA
ATOM     25  C10 <0> d          11.747   1.064   3.139  0.00  0.00     0.041 C 
ENDBRANCH   4  19
TORSDOF 4
