REMARK  8 active torsions:
REMARK  status: ('A' for Active; 'I' for Inactive)
REMARK    1  A    between atoms: C2_2  and  C4_4 
REMARK    2  A    between atoms: C2_2  and  N5_32 
REMARK    3  A    between atoms: C7_7  and  C10_10 
REMARK    4  A    between atoms: C13_14  and  N3_16 
REMARK    5  A    between atoms: N3_16  and  C14_17 
REMARK    6  A    between atoms: C17_20  and  C20_23 
REMARK    7  A    between atoms: C20_23  and  C21_24 
REMARK    8  A    between atoms: C21_24  and  N4_25 
ROOT
ATOM      1  C10 <0> d           2.602   1.228   0.254  0.00  0.00     0.109 A 
ATOM      2  C11 <0> d           3.751   1.819  -0.281  0.00  0.00     0.082 A 
ATOM      3  C12 <0> d           4.936   1.105  -0.247  0.00  0.00     0.162 A 
ATOM      4  N1  <0> d           4.944  -0.111   0.276  0.00  0.00    -0.073 NA
ATOM      5  C13 <0> d           3.838  -0.648   0.771  0.00  0.00     0.727 A 
ATOM      6  N2  <0> d           2.685   0.002   0.764  0.00  0.00    -0.060 NA
ATOM      7 Cl1  <0> d           3.693   3.414  -0.964  0.00  0.00    -0.080 Cl
ENDROOT
BRANCH   5   8
ATOM      8  N3  <0> d           3.891  -1.924   1.310  0.00  0.00    -0.188 N 
ATOM      9  H12 <0> d           3.005  -2.348   1.806  0.00  0.00     0.184 HD
BRANCH   8  10
ATOM     10  C14 <0> d           5.069  -2.672   1.223  0.00  0.00     0.049 A 
ATOM     11  C19 <0> d           5.415  -3.547   2.245  0.00  0.00     0.030 A 
ATOM     12  C18 <0> d           6.579  -4.285   2.155  0.00  0.00     0.009 A 
ATOM     13  C17 <0> d           7.400  -4.152   1.051  0.00  0.00    -0.056 A 
ATOM     14  C16 <0> d           7.059  -3.282   0.032  0.00  0.00     0.009 A 
ATOM     15  C15 <0> d           5.893  -2.546   0.112  0.00  0.00     0.030 A 
BRANCH  13  16
ATOM     16  C20 <0> d           8.670  -4.959   0.957  0.00  0.00     0.068 C 
BRANCH  16  17
ATOM     17  C21 <0> d           8.378  -6.291   0.262  0.00  0.00     0.277 C 
BRANCH  17  18
ATOM     18  N4  <0> d           9.615  -7.077   0.171  0.00  0.00     0.092 N 
ATOM     19  C25 <0> d           9.335  -8.450  -0.272  0.00  0.00     0.298 C 
ATOM     20  C24 <0> d          10.642  -9.249  -0.296  0.00  0.00     0.198 C 
ATOM     21  O1  <0> d          11.583  -8.588  -1.145  0.00  0.00    -0.388 OA
ATOM     22  C23 <0> d          11.880  -7.248  -0.743  0.00  0.00     0.198 C 
ATOM     23  C22 <0> d          10.586  -6.429  -0.723  0.00  0.00     0.298 C 
ENDBRANCH  17  18
ENDBRANCH  16  17
ENDBRANCH  13  16
ENDBRANCH   8  10
ENDBRANCH   5   8
BRANCH   1  24
ATOM     24  C7  <0> d           1.308   1.954   0.247  0.00  0.00    -0.005 A 
ATOM     25  C6  <0> d           0.116   1.257   0.061  0.00  0.00     0.014 A 
ATOM     26  C5  <0> d          -1.084   1.938   0.050  0.00  0.00     0.010 A 
ATOM     27  C4  <0> d          -1.106   3.309   0.235  0.00  0.00    -0.023 A 
ATOM     28  C9  <0> d           0.074   4.006   0.421  0.00  0.00     0.010 A 
ATOM     29  C8  <0> d           1.281   3.336   0.428  0.00  0.00     0.014 A 
BRANCH  27  30
ATOM     30  C2  <0> d          -2.420   4.047   0.228  0.00  0.00     0.143 C 
ATOM     31  C1  <0> d          -3.411   3.314  -0.678  0.00  0.00     0.051 C 
ATOM     32  C3  <0> d          -2.978   4.108   1.651  0.00  0.00     0.051 C 
BRANCH  30  33
ATOM     33  N5  <0> d          -2.213   5.411  -0.276  0.00  0.00    -0.067 N 
ATOM     34  H29 <0> d          -1.500   5.938   0.375  0.00  0.00     0.275 HD
ATOM     35  H30 <0> d          -3.172   5.950  -0.282  0.00  0.00     0.275 HD
ATOM     36  H31 <0> d          -1.811   5.367  -1.299  0.00  0.00     0.275 HD
ENDBRANCH  30  33
ENDBRANCH  27  30
ENDBRANCH   1  24
TORSDOF 8
