REMARK  4 active torsions:
REMARK  status: ('A' for Active; 'I' for Inactive)
REMARK    1  A    between atoms: C3_3  and  C10_15 
REMARK    2  A    between atoms: N1_5  and  C5_7 
REMARK    3  A    between atoms: C10_15  and  N3_16 
REMARK       I    between atoms: N3_16  and  C12_18 
REMARK       I    between atoms: C12_18  and  N4_20 
REMARK    4  A    between atoms: N4_20  and  C13_21 
ROOT
ATOM      1  C1  <0> d           1.567   5.609   3.732  0.00  0.00     0.073 C 
ATOM      2  C2  <0> d           1.726   4.935   2.393  0.00  0.00     0.061 A 
ATOM      3  C3  <0> d           2.248   5.522   1.236  0.00  0.00     0.010 A 
ATOM      4  C4  <0> d           2.223   4.595   0.251  0.00  0.00     0.037 A 
ATOM      5  N1  <0> d           1.703   3.462   0.766  0.00  0.00    -0.268 N 
ATOM      6  N2  <0> d           1.393   3.701   2.111  0.00  0.00    -0.176 NA
ATOM      7  C9  <0> d           2.692   4.794  -1.168  0.00  0.00     0.070 C 
ENDROOT
BRANCH   3   8
ATOM      8  C10 <0> d           2.750   6.938   1.109  0.00  0.00     0.169 C 
BRANCH   8   9
ATOM      9  N3  <0> d           1.646   7.813   0.708  0.00  0.00    -0.334 N 
ATOM     10  C11 <0> d           0.816   8.459   1.728  0.00  0.00     0.154 C 
ATOM     11  C12 <0> d           1.395   8.025  -0.599  0.00  0.00     0.322 C 
ATOM     12  O3  <0> d           2.084   7.489  -1.445  0.00  0.00    -0.247 OA
ATOM     13  N4  <0> d           0.380   8.830  -0.968  0.00  0.00    -0.306 N 
ATOM     14  H19 <0> d          -0.221   9.193  -0.298  0.00  0.00     0.171 HD
BRANCH  13  15
ATOM     15  C13 <0> d           0.191   9.144  -2.320  0.00  0.00     0.075 A 
ATOM     16  C18 <0> d          -1.070   9.506  -2.782  0.00  0.00     0.143 A 
ATOM     17  C17 <0> d          -1.251   9.820  -4.117  0.00  0.00     0.044 A 
ATOM     18  F1  <0> d          -2.115   9.555  -1.927  0.00  0.00    -0.204 F 
ATOM     19  C16 <0> d          -0.182   9.764  -4.992  0.00  0.00     0.003 A 
ATOM     20  C15 <0> d           1.071   9.399  -4.536  0.00  0.00     0.002 A 
ATOM     21  C14 <0> d           1.260   9.090  -3.203  0.00  0.00     0.033 A 
ENDBRANCH  13  15
ENDBRANCH   8   9
ENDBRANCH   3   8
BRANCH   5  22
ATOM     22  C5  <0> d           1.494   2.204   0.044  0.00  0.00     0.125 C 
ATOM     23  C8  <0> d          -0.011   1.842   0.068  0.00  0.00     0.167 C 
ATOM     24  S1  <0> d           0.016   0.003   0.072  0.00  0.00     0.146 S 
ATOM     25  C7  <0> d           1.836  -0.276   0.138  0.00  0.00     0.142 C 
ATOM     26  O1  <0> d          -0.568  -0.465   1.280  0.00  0.00    -0.228 OA
ATOM     27  O2  <0> d          -0.480  -0.469  -1.173  0.00  0.00    -0.228 OA
ATOM     28  C6  <0> d           2.312   1.088   0.715  0.00  0.00     0.043 C 
ENDBRANCH   5  22
TORSDOF 4
