REMARK  8 active torsions:
REMARK  status: ('A' for Active; 'I' for Inactive)
REMARK    1  A    between atoms: C3_3  and  C19_24 
REMARK    2  A    between atoms: C4_5  and  C5_7 
REMARK    3  A    between atoms: C9_11  and  N2_13 
REMARK       I    between atoms: N2_13  and  C11_14 
REMARK    4  A    between atoms: C11_14  and  C12_16 
REMARK    5  A    between atoms: C12_16  and  C13_17 
REMARK    6  A    between atoms: C13_17  and  C14_18 
REMARK    7  A    between atoms: C19_24  and  N4_25 
REMARK       I    between atoms: N4_25  and  C20_26 
REMARK    8  A    between atoms: C20_26  and  C21_28 
ROOT
ATOM      1  C1  <0> d           0.034   1.617  -0.353  0.00  0.00     0.046 C 
ATOM      2  C2  <0> d          -0.862   2.022  -1.525  0.00  0.00     0.169 C 
ATOM      3  C3  <0> d          -0.261   1.556  -2.833  0.00  0.00     0.056 C 
ATOM      4  N1  <0> d          -0.884   0.505  -3.215  0.00  0.00    -0.258 NA
ATOM      5  C4  <0> d          -1.927   0.165  -2.240  0.00  0.00     0.279 C 
ATOM      6  O1  <0> d          -2.134   1.347  -1.442  0.00  0.00    -0.350 OA
ENDROOT
BRANCH   5   7
ATOM      7  C5  <0> d          -3.200  -0.209  -2.953  0.00  0.00    -0.006 A 
ATOM      8  C10 <0> d          -3.150  -0.998  -4.085  0.00  0.00     0.041 A 
ATOM      9  C9  <0> d          -4.325  -1.347  -4.740  0.00  0.00     0.035 A 
ATOM     10  C8  <0> d          -5.545  -0.892  -4.259  0.00  0.00     0.029 A 
ATOM     11  C7  <0> d          -5.588  -0.098  -3.129  0.00  0.00     0.003 A 
ATOM     12  C6  <0> d          -4.418   0.242  -2.477  0.00  0.00     0.012 A 
BRANCH   9  13
ATOM     13  N2  <0> d          -4.278  -2.151  -5.884  0.00  0.00    -0.327 N 
ATOM     14  C11 <0> d          -5.176  -1.970  -6.872  0.00  0.00     0.222 C 
ATOM     15  O2  <0> d          -5.964  -1.050  -6.814  0.00  0.00    -0.273 OA
ATOM     16  H11 <0> d          -3.599  -2.839  -5.966  0.00  0.00     0.169 HD
BRANCH  14  17
ATOM     17  C12 <0> d          -5.201  -2.911  -8.049  0.00  0.00     0.108 C 
BRANCH  17  18
ATOM     18  C13 <0> d          -6.306  -2.485  -9.018  0.00  0.00     0.049 C 
BRANCH  18  19
ATOM     19  C14 <0> d          -6.332  -3.426 -10.195  0.00  0.00    -0.040 A 
ATOM     20  C18 <0> d          -7.118  -4.562 -10.166  0.00  0.00     0.123 A 
ATOM     21  N3  <0> d          -7.150  -5.387 -11.195  0.00  0.00    -0.273 NA
ATOM     22  C17 <0> d          -6.431  -5.172 -12.279  0.00  0.00     0.116 A 
ATOM     23  C16 <0> d          -5.617  -4.059 -12.378  0.00  0.00     0.020 A 
ATOM     24  C15 <0> d          -5.562  -3.166 -11.319  0.00  0.00     0.010 A 
ENDBRANCH  18  19
ENDBRANCH  17  18
ENDBRANCH  14  17
ENDBRANCH   9  13
ENDBRANCH   5   7
BRANCH   3  25
ATOM     25  C19 <0> d           0.878   2.218  -3.563  0.00  0.00     0.180 C 
BRANCH  25  26
ATOM     26  N4  <0> d           1.172   1.471  -4.789  0.00  0.00    -0.351 N 
ATOM     27  C20 <0> d           2.161   1.882  -5.607  0.00  0.00     0.251 C 
ATOM     28  O3  <0> d           2.809   2.872  -5.329  0.00  0.00    -0.268 OA
ATOM     29  H22 <0> d           0.655   0.681  -5.011  0.00  0.00     0.163 HD
BRANCH  27  30
ATOM     30  C21 <0> d           2.457   1.128  -6.845  0.00  0.00     0.030 C 
ATOM     31  C28 <0> d           1.657  -0.063  -7.153  0.00  0.00     0.017 C 
ATOM     32  C27 <0> d           1.690  -0.603  -8.406  0.00  0.00     0.011 C 
ATOM     33  C24 <0> d           2.575   0.020  -9.309  0.00  0.00    -0.029 C 
ATOM     34  C23 <0> d           3.823   0.751  -8.853  0.00  0.00     0.164 C 
ATOM     35  C25 <0> d           2.485   0.250 -10.630  0.00  0.00     0.028 C 
ATOM     36  C22 <0> d           3.459   1.561  -7.644  0.00  0.00     0.022 C 
ATOM     37  N5  <0> d           4.238   1.530 -10.011  0.00  0.00    -0.288 NA
ATOM     38  C26 <0> d           3.470   1.190 -11.010  0.00  0.00     0.112 C 
ENDBRANCH  27  30
ENDBRANCH  25  26
ENDBRANCH   3  25
TORSDOF 8
