REMARK  3 active torsions:
REMARK  status: ('A' for Active; 'I' for Inactive)
REMARK    1  A    between atoms: C5_5  and  C8_9 
REMARK    2  A    between atoms: C11_12  and  C12_14 
REMARK    3  A    between atoms: C12_14  and  N1_16 
ROOT
ATOM      1  C8  <0> d          -0.122  -4.268  -0.000  0.00  0.00     0.024 A 
ATOM      2  C9  <0> d           0.164  -5.120   1.033  0.00  0.00    -0.043 A 
ATOM      3  C10 <0> d           0.343  -6.458   0.758  0.00  0.00     0.024 A 
ATOM      4  C11 <0> d           0.230  -6.891  -0.523  0.00  0.00     0.014 A 
ATOM      5  S1  <0> d          -0.147  -5.380  -1.397  0.00  0.00    -0.091 SA
ATOM      6  C14 <0> d           0.281  -4.603   2.444  0.00  0.00     0.049 C 
ENDROOT
BRANCH   1   7
ATOM      7  C5  <0> d          -0.356  -2.809   0.033  0.00  0.00     0.016 A 
ATOM      8  C4  <0> d           0.719  -1.924  -0.071  0.00  0.00     0.024 A 
ATOM      9  C3  <0> d           0.493  -0.562  -0.040  0.00  0.00     0.026 A 
ATOM     10 Br2  <0> d           2.480  -2.589  -0.254  0.00  0.00    -0.050 Br
ATOM     11  C2  <0> d          -0.794  -0.074   0.093  0.00  0.00    -0.059 A 
ATOM     12  C1  <0> d          -1.032   1.414   0.126  0.00  0.00     0.048 C 
ATOM     13  C7  <0> d          -1.863  -0.945   0.201  0.00  0.00     0.026 A 
ATOM     14  C6  <0> d          -1.653  -2.309   0.167  0.00  0.00     0.024 A 
ATOM     15 Br1  <0> d          -3.117  -3.498   0.308  0.00  0.00    -0.050 Br
ENDBRANCH   1   7
BRANCH   4  16
ATOM     16  C12 <0> d           0.380  -8.288  -1.068  0.00  0.00     0.219 C 
ATOM     17  C13 <0> d          -1.004  -8.902  -1.285  0.00  0.00     0.045 C 
BRANCH  16  18
ATOM     18  N1  <0> d           1.101  -8.240  -2.347  0.00  0.00    -0.071 N 
ATOM     19  H11 <0> d           0.582  -7.677  -3.005  0.00  0.00     0.275 HD
ATOM     20  H12 <0> d           2.014  -7.835  -2.204  0.00  0.00     0.275 HD
ATOM     21  H16 <0> d           1.201  -9.176  -2.712  0.00  0.00     0.275 HD
ENDBRANCH  16  18
ENDBRANCH   4  16
TORSDOF 3
