REMARK  7 active torsions:
REMARK  status: ('A' for Active; 'I' for Inactive)
REMARK    1  A    between atoms: C6_7  and  N4_14 
REMARK    2  A    between atoms: C7_9  and  C8_11 
REMARK    3  A    between atoms: C8_11  and  C9_12 
REMARK    4  A    between atoms: C9_12  and  N3_13 
REMARK    5  A    between atoms: N4_14  and  C10_15 
REMARK    6  A    between atoms: C10_15  and  C11_16 
REMARK    7  A    between atoms: C12_18  and  C13_21 
ROOT
ATOM      1  C1  <0> d          -0.556   1.486   0.114  0.00  0.00     0.050 C 
ATOM      2  C2  <0> d          -0.484  -0.020   0.096  0.00  0.00    -0.032 A 
ATOM      3  C3  <0> d          -0.771  -0.699  -1.024  0.00  0.00    -0.012 A 
ATOM      4  S1  <0> d          -0.546  -2.402  -0.548  0.00  0.00    -0.074 SA
ATOM      5  C4  <0> d          -0.073  -2.156   1.143  0.00  0.00     0.114 A 
ATOM      6  C5  <0> d          -0.097  -0.751   1.289  0.00  0.00     0.052 A 
ATOM      7  C6  <0> d           0.255  -0.267   2.579  0.00  0.00     0.139 A 
ATOM      8  N1  <0> d           0.577  -1.132   3.527  0.00  0.00    -0.215 NA
ATOM      9  C7  <0> d           0.583  -2.436   3.318  0.00  0.00     0.131 A 
ATOM     10  N2  <0> d           0.256  -2.946   2.146  0.00  0.00    -0.225 NA
ATOM     11  C16 <0> d          -1.185  -0.153  -2.366  0.00  0.00     0.057 C 
ENDROOT
BRANCH   7  12
ATOM     12  N4  <0> d           0.262   1.092   2.839  0.00  0.00    -0.367 N 
ATOM     13  H10 <0> d           0.110   1.724   2.119  0.00  0.00     0.161 HD
BRANCH  12  14
ATOM     14  C10 <0> d           0.498   1.576   4.201  0.00  0.00     0.204 C 
BRANCH  14  15
ATOM     15  C11 <0> d           0.455   3.082   4.214  0.00  0.00     0.173 A 
ATOM     16  N6  <0> d          -0.609   3.807   4.411  0.00  0.00    -0.109 NA
ATOM     17  O1  <0> d          -0.192   5.163   4.342  0.00  0.00    -0.196 OA
ATOM     18  C12 <0> d           1.123   5.138   4.093  0.00  0.00     0.176 A 
ATOM     19  N5  <0> d           1.501   3.892   4.018  0.00  0.00    -0.207 NA
BRANCH  18  20
ATOM     20  C13 <0> d           2.014   6.343   3.928  0.00  0.00     0.057 C 
ATOM     21  C14 <0> d           1.516   7.187   2.753  0.00  0.00     0.018 C 
ATOM     22  C15 <0> d           1.981   7.180   5.208  0.00  0.00     0.018 C 
ENDBRANCH  18  20
ENDBRANCH  14  15
ENDBRANCH  12  14
ENDBRANCH   7  12
BRANCH   9  23
ATOM     23  C8  <0> d           0.960  -3.362   4.445  0.00  0.00     0.107 C 
BRANCH  23  24
ATOM     24  C9  <0> d          -0.295  -3.747   5.231  0.00  0.00     0.237 C 
BRANCH  24  25
ATOM     25  N3  <0> d           0.073  -4.649   6.330  0.00  0.00    -0.079 N 
ATOM     26  H8  <0> d           0.501  -5.481   5.953  0.00  0.00     0.274 HD
ATOM     27  H9  <0> d           0.724  -4.184   6.944  0.00  0.00     0.274 HD
ATOM     28  H23 <0> d          -0.755  -4.903   6.848  0.00  0.00     0.274 HD
ENDBRANCH  24  25
ENDBRANCH  23  24
ENDBRANCH   9  23
TORSDOF 7
