REMARK  9 active torsions:
REMARK  status: ('A' for Active; 'I' for Inactive)
REMARK    1  A    between atoms: N1_2  and  C2_3 
REMARK    2  A    between atoms: N1_2  and  C16_23 
REMARK    3  A    between atoms: C2_3  and  C3_4 
REMARK    4  A    between atoms: C6_10  and  C9_15 
REMARK    5  A    between atoms: C13_19  and  O2_21 
REMARK    6  A    between atoms: C16_23  and  C17_24 
REMARK    7  A    between atoms: C17_24  and  C18_25 
REMARK    8  A    between atoms: C17_24  and  O3_32 
REMARK    9  A    between atoms: C18_25  and  C19_26 
ROOT
ATOM      1  C3  <0> d           0.063   0.034  -2.490  0.00  0.00     0.134 A 
ATOM      2  N2  <0> d           0.576  -0.208  -3.723  0.00  0.00    -0.309 N 
ATOM      3  H1  <0> d           1.447  -0.628  -3.802  0.00  0.00     0.170 HD
ATOM      4  C4  <0> d          -0.099   0.124  -4.839  0.00  0.00     0.260 A 
ATOM      5  O1  <0> d           0.375  -0.100  -5.939  0.00  0.00    -0.267 OA
ATOM      6  C5  <0> d          -1.384   0.744  -4.714  0.00  0.00     0.079 A 
ATOM      7  C6  <0> d          -2.298   1.190  -5.758  0.00  0.00    -0.001 A 
ATOM      8  C7  <0> d          -3.474   1.756  -5.396  0.00  0.00     0.065 A 
ATOM      9  S1  <0> d          -3.418   1.721  -3.615  0.00  0.00    -0.080 SA
ATOM     10  C8  <0> d          -1.832   0.954  -3.400  0.00  0.00     0.116 A 
ATOM     11  N3  <0> d          -1.108   0.594  -2.344  0.00  0.00    -0.225 NA
ENDROOT
BRANCH   1  12
ATOM     12  C2  <0> d           0.855  -0.355  -1.268  0.00  0.00     0.312 C 
BRANCH  12  13
ATOM     13  N1  <0> d           0.098  -0.002  -0.060  0.00  0.00    -0.066 N 
ATOM     14  C1  <0> d          -0.046   1.457   0.019  0.00  0.00     0.270 C 
ATOM     15  H26 <0> d          -0.816  -0.429  -0.100  0.00  0.00     0.280 HD
BRANCH  13  16
ATOM     16  C16 <0> d           0.814  -0.489   1.126  0.00  0.00     0.266 C 
BRANCH  16  17
ATOM     17  C17 <0> d           0.835  -2.019   1.118  0.00  0.00     0.148 C 
BRANCH  17  18
ATOM     18  C18 <0> d           1.575  -2.526   2.357  0.00  0.00     0.071 C 
BRANCH  18  19
ATOM     19  C19 <0> d           1.702  -4.026   2.288  0.00  0.00    -0.056 A 
ATOM     20  C24 <0> d           2.804  -4.598   1.680  0.00  0.00     0.007 A 
ATOM     21  C23 <0> d           2.924  -5.974   1.620  0.00  0.00     0.001 A 
ATOM     22  C22 <0> d           1.937  -6.777   2.160  0.00  0.00     0.000 A 
ATOM     23  C21 <0> d           0.832  -6.205   2.763  0.00  0.00     0.001 A 
ATOM     24  C20 <0> d           0.715  -4.829   2.826  0.00  0.00     0.007 A 
ENDBRANCH  18  19
ENDBRANCH  17  18
BRANCH  17  25
ATOM     25  O3  <0> d          -0.506  -2.513   1.128  0.00  0.00    -0.394 OA
ATOM     26  H25 <0> d          -1.021  -2.239   1.899  0.00  0.00     0.210 HD
ENDBRANCH  17  25
ENDBRANCH  16  17
ENDBRANCH  13  16
ENDBRANCH  12  13
ENDBRANCH   1  12
BRANCH   7  27
ATOM     27  C9  <0> d          -1.947   1.028  -7.189  0.00  0.00    -0.022 A 
ATOM     28  C14 <0> d          -2.856   0.446  -8.070  0.00  0.00     0.049 A 
ATOM     29  C13 <0> d          -2.525   0.303  -9.408  0.00  0.00     0.069 A 
ATOM     30  C12 <0> d          -1.285   0.728  -9.865  0.00  0.00     0.037 A 
ATOM     31  C11 <0> d          -0.380   1.301  -8.990  0.00  0.00     0.004 A 
ATOM     32  C10 <0> d          -0.704   1.453  -7.657  0.00  0.00     0.012 A 
BRANCH  29  33
ATOM     33  O2  <0> d          -3.411  -0.259 -10.271  0.00  0.00    -0.356 OA
ATOM     34  C15 <0> d          -3.000  -0.380 -11.634  0.00  0.00     0.210 C 
ENDBRANCH  29  33
ENDBRANCH   7  27
TORSDOF 9
