REMARK  6 active torsions:
REMARK  status: ('A' for Active; 'I' for Inactive)
REMARK    1  A    between atoms: C4_4  and  N4_24 
REMARK    2  A    between atoms: C5_5  and  N1_7 
REMARK       I    between atoms: N1_7  and  C7_8 
REMARK       I    between atoms: C7_8  and  N2_10 
REMARK    3  A    between atoms: N2_10  and  C8_11 
REMARK    4  A    between atoms: C8_11  and  C9_12 
REMARK    5  A    between atoms: C9_12  and  C10_13 
REMARK    6  A    between atoms: C9_12  and  N3_18 
ROOT
ATOM      1  N1  <0> d           1.125  -2.010   0.052  0.00  0.00    -0.307 N 
ATOM      2  C7  <0> d          -0.038  -2.625  -0.241  0.00  0.00     0.320 C 
ATOM      3  O1  <0> d          -1.021  -1.965  -0.519  0.00  0.00    -0.247 OA
ATOM      4  N2  <0> d          -0.113  -3.970  -0.225  0.00  0.00    -0.340 N 
ATOM      5  H6  <0> d           1.927  -2.536   0.201  0.00  0.00     0.170 HD
ATOM      6  H7  <0> d           0.671  -4.497  -0.002  0.00  0.00     0.164 HD
ENDROOT
BRANCH   4   7
ATOM      7  C8  <0> d          -1.377  -4.638  -0.543  0.00  0.00     0.164 C 
BRANCH   7   8
ATOM      8  C9  <0> d          -1.160  -6.152  -0.579  0.00  0.00     0.262 C 
BRANCH   8   9
ATOM      9  C10 <0> d          -2.437  -6.833  -0.999  0.00  0.00     0.085 A 
ATOM     10  O2  <0> d          -2.860  -6.998  -2.263  0.00  0.00    -0.325 OA
ATOM     11  C13 <0> d          -4.034  -7.650  -2.261  0.00  0.00     0.142 A 
ATOM     12  C12 <0> d          -4.379  -7.900  -0.985  0.00  0.00     0.027 A 
ATOM     13  C11 <0> d          -3.349  -7.373  -0.172  0.00  0.00     0.037 A 
ENDBRANCH   8   9
BRANCH   8  14
ATOM     14  N3  <0> d          -0.096  -6.471  -1.541  0.00  0.00    -0.059 N 
ATOM     15  C18 <0> d           0.032  -7.928  -1.662  0.00  0.00     0.236 C 
ATOM     16  C17 <0> d           1.193  -8.266  -2.600  0.00  0.00     0.028 C 
ATOM     17  C16 <0> d           0.920  -7.660  -3.979  0.00  0.00     0.003 C 
ATOM     18  C15 <0> d           0.714  -6.149  -3.831  0.00  0.00     0.028 C 
ATOM     19  C14 <0> d          -0.428  -5.890  -2.847  0.00  0.00     0.236 C 
ATOM     20  H26 <0> d           0.777  -6.083  -1.215  0.00  0.00     0.280 HD
ENDBRANCH   8  14
ENDBRANCH   7   8
ENDBRANCH   4   7
BRANCH   1  21
ATOM     21  C5  <0> d           1.177  -0.614   0.141  0.00  0.00     0.065 A 
ATOM     22  C4  <0> d           2.109  -0.001   0.977  0.00  0.00     0.084 A 
ATOM     23  C3  <0> d           2.154   1.383   1.061  0.00  0.00     0.034 A 
ATOM     24  C2  <0> d           1.277   2.149   0.317  0.00  0.00     0.002 A 
ATOM     25  C1  <0> d           0.353   1.541  -0.512  0.00  0.00     0.002 A 
ATOM     26  C6  <0> d           0.300   0.163  -0.602  0.00  0.00     0.032 A 
BRANCH  22  27
ATOM     27  N4  <0> d           2.998  -0.781   1.731  0.00  0.00    -0.243 N 
ATOM     28  N5  <0> d           2.981  -2.177   1.840  0.00  0.00    -0.180 NA
ATOM     29  C21 <0> d           3.965  -2.539   2.624  0.00  0.00     0.140 A 
ATOM     30  C20 <0> d           4.633  -1.385   3.048  0.00  0.00     0.040 A 
ATOM     31  C19 <0> d           4.020  -0.318   2.485  0.00  0.00     0.120 A 
ENDBRANCH  22  27
ENDBRANCH   1  21
TORSDOF 6
