REMARK  4 active torsions:
REMARK  status: ('A' for Active; 'I' for Inactive)
REMARK    1  A    between atoms: N1_6  and  C7_10 
REMARK    2  A    between atoms: C11_14  and  C12_16 
REMARK    3  A    between atoms: C13_17  and  C14_18 
REMARK    4  A    between atoms: C14_18  and  O3_19 
ROOT
ATOM      1  C7  <0> d           1.027  -4.043  -0.022  0.00  0.00     0.140 A 
ATOM      2  C8  <0> d           2.285  -4.626  -0.132  0.00  0.00     0.051 A 
ATOM      3  C9  <0> d           2.395  -6.007  -0.140  0.00  0.00     0.007 A 
ATOM      4  C10 <0> d           1.240  -6.765  -0.035  0.00  0.00     0.041 A 
ATOM      5  C11 <0> d           0.009  -6.118   0.073  0.00  0.00     0.112 A 
ATOM      6  N2  <0> d          -0.058  -4.791   0.082  0.00  0.00    -0.222 NA
ENDROOT
BRANCH   1   7
ATOM      7  N1  <0> d           0.910  -2.651  -0.014  0.00  0.00    -0.235 N 
ATOM      8  C4  <0> d           0.749  -2.011  -1.182  0.00  0.00     0.233 C 
ATOM      9  C3  <0> d           0.629  -0.511  -1.242  0.00  0.00     0.113 C 
ATOM     10  O1  <0> d           0.701  -2.653  -2.209  0.00  0.00    -0.273 OA
ATOM     11  C2  <0> d           0.005  -0.004   0.063  0.00  0.00    -0.031 C 
ATOM     12  C1  <0> d          -0.016   1.526   0.061  0.00  0.00     0.016 C 
ATOM     13  C6  <0> d           0.853  -0.506   1.236  0.00  0.00     0.113 C 
ATOM     14  C15 <0> d          -1.423  -0.538   0.195  0.00  0.00     0.016 C 
ATOM     15  C5  <0> d           0.962  -2.006   1.161  0.00  0.00     0.233 C 
ATOM     16  O2  <0> d           1.099  -2.644   2.183  0.00  0.00    -0.273 OA
ENDBRANCH   1   7
BRANCH   5  17
ATOM     17  C12 <0> d          -1.192  -6.890   0.181  0.00  0.00    -0.044 C 
ATOM     18  C13 <0> d          -2.176  -7.523   0.270  0.00  0.00    -0.074 C 
BRANCH  18  19
ATOM     19  C14 <0> d          -3.411  -8.317   0.381  0.00  0.00     0.258 C 
BRANCH  19  20
ATOM     20  O3  <0> d          -4.534  -7.439   0.479  0.00  0.00    -0.389 OA
ATOM     21  H13 <0> d          -5.384  -7.895   0.555  0.00  0.00     0.210 HD
ENDBRANCH  19  20
ENDBRANCH  18  19
ENDBRANCH   5  17
TORSDOF 4
