REMARK  3 active torsions:
REMARK  status: ('A' for Active; 'I' for Inactive)
REMARK    1  A    between atoms: C4_4  and  N2_7 
REMARK       I    between atoms: N2_7  and  C5_8 
REMARK    2  A    between atoms: C5_8  and  C6_10 
REMARK    3  A    between atoms: C6_10  and  N3_12 
ROOT
ATOM      1  C6  <0> d          -3.646  -4.389  -0.006  0.00  0.00     0.310 C 
ATOM      2  C7  <0> d          -3.346  -5.229   1.237  0.00  0.00     0.053 C 
ENDROOT
BRANCH   1   3
ATOM      3  C5  <0> d          -2.774  -3.159  -0.003  0.00  0.00     0.256 C 
ATOM      4  N2  <0> d          -1.432  -3.285  -0.010  0.00  0.00    -0.308 N 
ATOM      5  H7  <0> d          -1.027  -4.166  -0.017  0.00  0.00     0.170 HD
ATOM      6  O2  <0> d          -3.280  -2.057   0.006  0.00  0.00    -0.271 OA
BRANCH   4   7
ATOM      7  C4  <0> d          -0.625  -2.147  -0.007  0.00  0.00     0.160 A 
ATOM      8  C3  <0> d          -1.076  -0.808   0.003  0.00  0.00     0.087 A 
ATOM      9  C2  <0> d           0.002  -0.004   0.002  0.00  0.00     0.078 A 
ATOM     10  C1  <0> d          -0.018   1.503   0.010  0.00  0.00     0.079 C 
ATOM     11  O1  <0> d           1.100  -0.776  -0.013  0.00  0.00    -0.216 OA
ATOM     12  N1  <0> d           0.683  -2.130  -0.013  0.00  0.00    -0.110 NA
ENDBRANCH   4   7
ENDBRANCH   1   3
BRANCH   1  13
ATOM     13  N3  <0> d          -5.059  -3.987   0.003  0.00  0.00     0.107 N 
ATOM     14  C11 <0> d          -5.940  -5.158  -0.119  0.00  0.00     0.310 C 
ATOM     15  C10 <0> d          -7.397  -4.691  -0.165  0.00  0.00     0.080 C 
ATOM     16  O3  <0> d          -7.682  -3.918   1.004  0.00  0.00    -0.372 OA
ATOM     17  C12 <0> d          -7.618  -3.832  -1.412  0.00  0.00     0.047 C 
ATOM     18  C13 <0> d          -8.322  -5.908  -0.211  0.00  0.00     0.047 C 
ATOM     19  C9  <0> d          -6.843  -2.770   1.154  0.00  0.00     0.147 C 
ATOM     20  C8  <0> d          -5.380  -3.218   1.214  0.00  0.00     0.305 C 
ATOM     21  C14 <0> d          -7.205  -2.036   2.447  0.00  0.00     0.041 C 
ENDBRANCH   1  13
TORSDOF 3
