REMARK  4 active torsions:
REMARK  status: ('A' for Active; 'I' for Inactive)
REMARK    1  A    between atoms: C5_5  and  N1_8 
REMARK    2  A    between atoms: C9_10  and  C12_14 
REMARK       I    between atoms: C12_14  and  N2_16 
REMARK    3  A    between atoms: N2_16  and  C13_17 
REMARK    4  A    between atoms: C17_22  and  N4_23 
ROOT
ATOM      1  C12 <0> d           2.563   0.790   1.750  0.00  0.00     0.228 C 
ATOM      2  O2  <0> d           2.116  -0.054   2.498  0.00  0.00    -0.273 OA
ATOM      3  N2  <0> d           3.363   1.762   2.232  0.00  0.00    -0.324 N 
ATOM      4  H13 <0> d           3.713   2.566   1.568  0.00  0.00     0.169 HD
ENDROOT
BRANCH   1   5
ATOM      5  C9  <0> d           2.222   0.754   0.282  0.00  0.00     0.105 C 
ATOM      6  C8  <0> d           1.296  -0.440  -0.041  0.00  0.00     0.146 C 
ATOM      7  N1  <0> d          -0.070   0.087   0.055  0.00  0.00    -0.317 N 
ATOM      8  C11 <0> d          -0.079   1.431   0.013  0.00  0.00     0.225 C 
ATOM      9  C10 <0> d           1.334   1.957  -0.110  0.00  0.00     0.119 C 
ATOM     10  O1  <0> d          -1.075   2.121   0.062  0.00  0.00    -0.273 OA
BRANCH   7  11
ATOM     11  C5  <0> d          -1.216  -0.706   0.176  0.00  0.00     0.037 A 
ATOM     12  C4  <0> d          -1.116  -2.089   0.096  0.00  0.00     0.030 A 
ATOM     13  C3  <0> d          -2.249  -2.870   0.216  0.00  0.00     0.009 A 
ATOM     14  C2  <0> d          -3.482  -2.276   0.415  0.00  0.00    -0.062 A 
ATOM     15  C1  <0> d          -4.716  -3.131   0.546  0.00  0.00     0.048 C 
ATOM     16  C7  <0> d          -3.585  -0.899   0.494  0.00  0.00     0.009 A 
ATOM     17  C6  <0> d          -2.455  -0.113   0.380  0.00  0.00     0.030 A 
ENDBRANCH   7  11
ENDBRANCH   1   5
BRANCH   3  18
ATOM     18  C13 <0> d           3.749   1.747   3.578  0.00  0.00     0.083 A 
ATOM     19  C17 <0> d           4.927   2.376   3.983  0.00  0.00     0.177 A 
ATOM     20  N3  <0> d           5.292   2.362   5.254  0.00  0.00    -0.239 NA
ATOM     21  C16 <0> d           4.567   1.761   6.178  0.00  0.00     0.119 A 
ATOM     22  C15 <0> d           3.389   1.117   5.850  0.00  0.00     0.022 A 
ATOM     23  C14 <0> d           2.963   1.110   4.531  0.00  0.00     0.035 A 
BRANCH  19  24
ATOM     24  N4  <0> d           5.727   3.027   3.039  0.00  0.00    -0.225 N 
ATOM     25  N5  <0> d           5.779   2.745   1.667  0.00  0.00    -0.179 NA
ATOM     26  C20 <0> d           6.641   3.561   1.114  0.00  0.00     0.141 A 
ATOM     27  C19 <0> d           7.167   4.389   2.112  0.00  0.00     0.040 A 
ATOM     28  C18 <0> d           6.587   4.048   3.286  0.00  0.00     0.122 A 
ENDBRANCH  19  24
ENDBRANCH   3  18
TORSDOF 4
