REMARK  4 active torsions:
REMARK  status: ('A' for Active; 'I' for Inactive)
REMARK    1  A    between atoms: C5_6  and  S1_12 
REMARK    2  A    between atoms: S1_12  and  N2_15 
REMARK    3  A    between atoms: N2_15  and  C10_16 
REMARK    4  A    between atoms: C10_16  and  C11_17 
ROOT
ATOM      1  N2  <0> d          -4.706  -4.350  -1.581  0.00  0.00    -0.311 N 
ATOM      2  H10 <0> d          -5.588  -4.151  -1.933  0.00  0.00     0.172 HD
ENDROOT
BRANCH   1   3
ATOM      3  S1  <0> d          -4.352  -4.013   0.001  0.00  0.00     0.259 S 
ATOM      4  O2  <0> d          -3.754  -5.183   0.542  0.00  0.00    -0.201 OA
ATOM      5  O3  <0> d          -5.517  -3.424   0.562  0.00  0.00    -0.201 OA
BRANCH   3   6
ATOM      6  C5  <0> d          -3.107  -2.765   0.002  0.00  0.00     0.080 A 
ATOM      7  C4  <0> d          -3.464  -1.429   0.011  0.00  0.00     0.027 A 
ATOM      8  C3  <0> d          -2.495  -0.448   0.012  0.00  0.00     0.032 A 
ATOM      9  C2  <0> d          -1.146  -0.797   0.003  0.00  0.00     0.043 A 
ATOM     10  N1  <0> d           0.002  -0.004   0.002  0.00  0.00    -0.322 N 
ATOM     11  C7  <0> d          -0.800  -2.143  -0.007  0.00  0.00    -0.021 A 
ATOM     12  C1  <0> d          -0.018   1.461   0.010  0.00  0.00     0.159 C 
ATOM     13  C9  <0> d           1.128  -0.738  -0.013  0.00  0.00     0.228 A 
ATOM     14  C8  <0> d           0.711  -2.193  -0.015  0.00  0.00     0.144 A 
ATOM     15  O1  <0> d           2.264  -0.314  -0.022  0.00  0.00    -0.273 OA
ATOM     16  C6  <0> d          -1.769  -3.120  -0.007  0.00  0.00     0.035 A 
ENDBRANCH   3   6
ENDBRANCH   1   3
BRANCH   1  17
ATOM     17  C10 <0> d          -3.688  -4.948  -2.448  0.00  0.00     0.176 C 
BRANCH  17  18
ATOM     18  C11 <0> d          -4.343  -5.488  -3.693  0.00  0.00     0.029 A 
ATOM     19  C19 <0> d          -4.906  -6.782  -3.687  0.00  0.00     0.253 A 
ATOM     20  N3  <0> d          -5.503  -7.297  -4.776  0.00  0.00    -0.322 N 
ATOM     21  O4  <0> d          -4.853  -7.448  -2.667  0.00  0.00    -0.268 OA
ATOM     22  C18 <0> d          -5.579  -6.579  -5.950  0.00  0.00     0.045 A 
ATOM     23  H1  <0> d          -5.883  -8.189  -4.736  0.00  0.00     0.169 HD
ATOM     24  C13 <0> d          -5.029  -5.285  -6.010  0.00  0.00    -0.009 A 
ATOM     25  C17 <0> d          -6.193  -7.113  -7.078  0.00  0.00     0.030 A 
ATOM     26  C12 <0> d          -4.386  -4.731  -4.817  0.00  0.00     0.028 A 
ATOM     27  C14 <0> d          -5.103  -4.551  -7.199  0.00  0.00     0.014 A 
ATOM     28  C15 <0> d          -5.710  -5.097  -8.295  0.00  0.00     0.001 A 
ATOM     29  C16 <0> d          -6.254  -6.373  -8.239  0.00  0.00     0.002 A 
ENDBRANCH  17  18
ENDBRANCH   1  17
TORSDOF 4
