REMARK  7 active torsions:
REMARK  status: ('A' for Active; 'I' for Inactive)
REMARK    1  A    between atoms: C4_4  and  O1_7 
REMARK    2  A    between atoms: O1_7  and  C7_8 
REMARK    3  A    between atoms: C7_8  and  C8_9 
REMARK       I    between atoms: C8_9  and  N1_11 
REMARK    4  A    between atoms: N1_11  and  C9_12 
REMARK    5  A    between atoms: C9_12  and  C10_13 
REMARK    6  A    between atoms: C10_13  and  N2_14 
REMARK       I    between atoms: N2_14  and  C11_15 
REMARK    7  A    between atoms: C11_15  and  C12_17 
ROOT
ATOM      1  N2  <0> d           7.794  -6.558  -0.112  0.00  0.00    -0.353 N 
ATOM      2  C11 <0> d           7.990  -7.891  -0.121  0.00  0.00     0.287 C 
ATOM      3  O3  <0> d           7.037  -8.645  -0.115  0.00  0.00    -0.264 OA
ATOM      4  H14 <0> d           8.554  -5.956  -0.116  0.00  0.00     0.162 HD
ENDROOT
BRANCH   1   5
ATOM      5  C10 <0> d           6.432  -6.018  -0.095  0.00  0.00     0.142 C 
BRANCH   5   6
ATOM      6  C9  <0> d           6.490  -4.489  -0.087  0.00  0.00     0.142 C 
BRANCH   6   7
ATOM      7  N1  <0> d           5.128  -3.949  -0.070  0.00  0.00    -0.358 N 
ATOM      8  C8  <0> d           4.932  -2.615  -0.061  0.00  0.00     0.241 C 
ATOM      9  O2  <0> d           5.883  -1.863  -0.067  0.00  0.00    -0.271 OA
ATOM     10  H9  <0> d           4.368  -4.551  -0.066  0.00  0.00     0.162 HD
BRANCH   8  11
ATOM     11  C7  <0> d           3.531  -2.060  -0.044  0.00  0.00     0.278 C 
BRANCH  11  12
ATOM     12  O1  <0> d           3.586  -0.632  -0.037  0.00  0.00    -0.342 OA
BRANCH  12  13
ATOM     13  C4  <0> d           2.399   0.030  -0.021  0.00  0.00     0.069 A 
ATOM     14  C3  <0> d           2.377   1.417  -0.013  0.00  0.00     0.037 A 
ATOM     15  C2  <0> d           1.170   2.088   0.002  0.00  0.00     0.003 A 
ATOM     16  C1  <0> d          -0.017   1.378   0.010  0.00  0.00     0.000 A 
ATOM     17  C6  <0> d           0.002  -0.004   0.002  0.00  0.00     0.003 A 
ATOM     18  C5  <0> d           1.207  -0.680  -0.013  0.00  0.00     0.037 A 
ENDBRANCH  12  13
ENDBRANCH  11  12
ENDBRANCH   8  11
ENDBRANCH   6   7
ENDBRANCH   5   6
ENDBRANCH   1   5
BRANCH   2  19
ATOM     19  C12 <0> d           9.369  -8.438  -0.138  0.00  0.00     0.200 A 
ATOM     20  N4  <0> d          10.368  -7.601  -0.144  0.00  0.00    -0.225 NA
ATOM     21  C19 <0> d          11.647  -8.024  -0.154  0.00  0.00     0.075 A 
ATOM     22  C14 <0> d          11.915  -9.412  -0.171  0.00  0.00     0.061 A 
ATOM     23  C18 <0> d          12.715  -7.122  -0.155  0.00  0.00     0.032 A 
ATOM     24  C13 <0> d          10.771 -10.339  -0.169  0.00  0.00     0.259 A 
ATOM     25  C15 <0> d          13.229  -9.869  -0.188  0.00  0.00     0.019 A 
ATOM     26  N3  <0> d           9.530  -9.797  -0.152  0.00  0.00    -0.303 N 
ATOM     27  O4  <0> d          10.934 -11.545  -0.183  0.00  0.00    -0.267 OA
ATOM     28  H1  <0> d           8.751 -10.376  -0.151  0.00  0.00     0.171 HD
ATOM     29  C16 <0> d          14.266  -8.960  -0.189  0.00  0.00     0.001 A 
ATOM     30  C17 <0> d          14.008  -7.595  -0.173  0.00  0.00     0.002 A 
ENDBRANCH   2  19
TORSDOF 7
