REMARK  4 active torsions:
REMARK  status: ('A' for Active; 'I' for Inactive)
REMARK    1  A    between atoms: C2_2  and  C4_4 
REMARK    2  A    between atoms: C2_2  and  N1_11 
REMARK    3  A    between atoms: N1_11  and  S1_12 
REMARK    4  A    between atoms: S1_12  and  C10_15 
ROOT
ATOM      1  S1  <0> d           2.000  -0.265  -1.345  0.00  0.00     0.266 S 
ATOM      2  O1  <0> d           2.697  -0.369  -2.579  0.00  0.00    -0.200 OA
ATOM      3  O2  <0> d           2.069   0.896  -0.527  0.00  0.00    -0.200 OA
ENDROOT
BRANCH   1   4
ATOM      4  N1  <0> d           0.398  -0.511  -1.683  0.00  0.00    -0.302 N 
ATOM      5  H11 <0> d           0.112  -0.648  -2.600  0.00  0.00     0.173 HD
BRANCH   4   6
ATOM      6  C2  <0> d          -0.586  -0.522  -0.598  0.00  0.00     0.060 C 
ATOM      7  C1  <0> d          -0.681   0.874   0.019  0.00  0.00     0.044 C 
ATOM      8  C3  <0> d          -0.154  -1.525   0.473  0.00  0.00     0.044 C 
BRANCH   6   9
ATOM      9  C4  <0> d          -1.933  -0.921  -1.146  0.00  0.00    -0.030 A 
ATOM     10  C9  <0> d          -3.086  -0.553  -0.479  0.00  0.00     0.011 A 
ATOM     11  C8  <0> d          -4.321  -0.915  -0.983  0.00  0.00     0.019 A 
ATOM     12  C7  <0> d          -4.402  -1.655  -2.150  0.00  0.00     0.011 A 
ATOM     13  C6  <0> d          -3.247  -2.027  -2.813  0.00  0.00     0.019 A 
ATOM     14 Br1  <0> d          -6.091  -2.156  -2.836  0.00  0.00    -0.051 Br
ATOM     15  C5  <0> d          -2.013  -1.661  -2.311  0.00  0.00     0.011 A 
ENDBRANCH   6   9
ENDBRANCH   4   6
ENDBRANCH   1   4
BRANCH   1  16
ATOM     16  C10 <0> d           2.536  -1.615  -0.348  0.00  0.00     0.163 A 
ATOM     17  C13 <0> d           2.523  -2.935  -0.861  0.00  0.00     0.276 A 
ATOM     18  N3  <0> d           2.943  -3.952  -0.082  0.00  0.00    -0.269 N 
ATOM     19  O4  <0> d           2.140  -3.149  -1.997  0.00  0.00    -0.266 OA
ATOM     20  C12 <0> d           3.361  -3.715   1.175  0.00  0.00     0.330 A 
ATOM     21  C14 <0> d           2.940  -5.321  -0.604  0.00  0.00     0.164 C 
ATOM     22  N2  <0> d           3.373  -2.467   1.677  0.00  0.00    -0.312 N 
ATOM     23  O3  <0> d           3.732  -4.643   1.868  0.00  0.00    -0.246 OA
ATOM     24  C11 <0> d           2.960  -1.407   0.917  0.00  0.00     0.126 A 
ATOM     25  C15 <0> d           3.833  -2.240   3.049  0.00  0.00     0.160 C 
ENDBRANCH   1  16
TORSDOF 4
