REMARK  7 active torsions:
REMARK  status: ('A' for Active; 'I' for Inactive)
REMARK    1  A    between atoms: C6_7  and  C9_10 
REMARK    2  A    between atoms: C10_13  and  S1_18 
REMARK    3  A    between atoms: N4_14  and  C11_15 
REMARK    4  A    between atoms: S1_18  and  C14_19 
REMARK    5  A    between atoms: C14_19  and  C15_20 
REMARK       I    between atoms: C15_20  and  N5_22 
REMARK    6  A    between atoms: N5_22  and  C16_23 
REMARK    7  A    between atoms: C16_23  and  C17_24 
ROOT
ATOM      1  C9  <0> d           0.684  -3.156   0.163  0.00  0.00     0.157 A 
ATOM      2  N2  <0> d          -0.617  -3.037   0.207  0.00  0.00    -0.158 NA
ATOM      3  N3  <0> d          -1.248  -4.260  -0.049  0.00  0.00    -0.279 N 
ATOM      4  C10 <0> d          -0.177  -5.244  -0.278  0.00  0.00     0.268 A 
ATOM      5  N4  <0> d           1.065  -4.467  -0.133  0.00  0.00    -0.328 N 
ATOM      6  H9  <0> d          -2.204  -4.426  -0.072  0.00  0.00     0.185 HD
ENDROOT
BRANCH   4   7
ATOM      7  S1  <0> d          -0.257  -6.567   0.960  0.00  0.00    -0.112 SA
BRANCH   7   8
ATOM      8  C14 <0> d          -0.092  -5.698   2.543  0.00  0.00     0.180 C 
BRANCH   8   9
ATOM      9  C15 <0> d          -0.143  -6.696   3.672  0.00  0.00     0.227 C 
ATOM     10  O1  <0> d          -0.278  -7.877   3.431  0.00  0.00    -0.273 OA
ATOM     11  N5  <0> d          -0.040  -6.275   4.948  0.00  0.00    -0.358 N 
ATOM     12  H17 <0> d           0.068  -5.331   5.141  0.00  0.00     0.162 HD
BRANCH  11  13
ATOM     13  C16 <0> d          -0.089  -7.245   6.045  0.00  0.00     0.154 C 
BRANCH  13  14
ATOM     14  C17 <0> d           0.050  -6.512   7.381  0.00  0.00     0.139 C 
ATOM     15  O2  <0> d          -1.098  -5.684   7.603  0.00  0.00    -0.384 OA
ATOM     16  C20 <0> d          -1.794  -6.120   8.784  0.00  0.00     0.168 C 
ATOM     17  C19 <0> d          -0.724  -6.843   9.640  0.00  0.00     0.029 C 
ATOM     18  C18 <0> d           0.120  -7.535   8.535  0.00  0.00     0.035 C 
ENDBRANCH  13  14
ENDBRANCH  11  13
ENDBRANCH   8   9
ENDBRANCH   7   8
ENDBRANCH   4   7
BRANCH   5  19
ATOM     19  C11 <0> d           2.434  -4.971  -0.270  0.00  0.00     0.089 A 
ATOM     20  C13 <0> d           2.909  -6.011   0.747  0.00  0.00     0.027 A 
ATOM     21  C12 <0> d           2.610  -6.431  -0.694  0.00  0.00     0.027 A 
ENDBRANCH   5  19
BRANCH   1  22
ATOM     22  C6  <0> d           1.583  -2.100   0.379  0.00  0.00     0.019 A 
ATOM     23  C5  <0> d           3.088  -2.137   0.237  0.00  0.00     0.163 A 
ATOM     24  N1  <0> d           3.560  -0.790   0.571  0.00  0.00    -0.385 N 
ATOM     25  C4  <0> d           2.526  -0.029   0.874  0.00  0.00     0.039 A 
ATOM     26  H26 <0> d           4.487  -0.504   0.570  0.00  0.00     0.160 HD
ATOM     27  C3  <0> d           2.445   1.333   1.260  0.00  0.00     0.030 A 
ATOM     28  C7  <0> d           1.274  -0.796   0.769  0.00  0.00     0.002 A 
ATOM     29  C2  <0> d           1.236   1.889   1.521  0.00  0.00     0.002 A 
ATOM     30  C1  <0> d           0.051   1.157   1.420  0.00  0.00     0.001 A 
ATOM     31  C8  <0> d           0.053  -0.151   1.056  0.00  0.00     0.014 A 
ENDBRANCH   1  22
TORSDOF 7
