REMARK  5 active torsions:
REMARK  status: ('A' for Active; 'I' for Inactive)
REMARK    1  A    between atoms: N1_4  and  C12_19 
REMARK    2  A    between atoms: C4_5  and  S1_7 
REMARK    3  A    between atoms: S1_7  and  C5_8 
REMARK    4  A    between atoms: C5_8  and  C7_10 
REMARK       I    between atoms: C7_10  and  N3_12 
REMARK       I    between atoms: N3_12  and  C8_13 
REMARK       I    between atoms: C8_13  and  N4_15 
REMARK    5  A    between atoms: N4_15  and  C9_16 
ROOT
ATOM      1  S1  <0> d           1.082  -2.380  -0.742  0.00  0.00    -0.078 SA
ENDROOT
BRANCH   1   2
ATOM      2  C4  <0> d           2.752  -2.942  -0.777  0.00  0.00     0.170 A 
ATOM      3  N1  <0> d           3.175  -4.152  -1.234  0.00  0.00    -0.323 N 
ATOM      4  C3  <0> d           4.543  -4.182  -1.085  0.00  0.00     0.035 A 
ATOM      5  C2  <0> d           4.904  -3.008  -0.540  0.00  0.00     0.056 A 
ATOM      6  C17 <0> d           5.461  -5.319  -1.455  0.00  0.00     0.070 C 
ATOM      7  C1  <0> d           6.310  -2.593  -0.189  0.00  0.00     0.072 C 
ATOM      8  N2  <0> d           3.797  -2.267  -0.360  0.00  0.00    -0.228 NA
BRANCH   3   9
ATOM      9  C12 <0> d           2.335  -5.218  -1.785  0.00  0.00     0.092 C 
ATOM     10  C16 <0> d           1.295  -5.662  -0.741  0.00  0.00     0.026 C 
ATOM     11  C15 <0> d          -0.092  -5.391  -1.358  0.00  0.00     0.002 C 
ATOM     12  C14 <0> d           0.165  -5.391  -2.885  0.00  0.00     0.002 C 
ATOM     13  C13 <0> d           1.544  -4.693  -3.001  0.00  0.00     0.026 C 
ENDBRANCH   3   9
ENDBRANCH   1   2
BRANCH   1  14
ATOM     14  C5  <0> d           1.317  -0.740  -0.015  0.00  0.00     0.143 C 
ATOM     15  C6  <0> d           1.837  -0.887   1.417  0.00  0.00     0.031 C 
BRANCH  14  16
ATOM     16  C7  <0> d           0.002  -0.004   0.002  0.00  0.00     0.239 C 
ATOM     17  O1  <0> d          -1.040  -0.625   0.009  0.00  0.00    -0.272 OA
ATOM     18  N3  <0> d          -0.016   1.344   0.009  0.00  0.00    -0.278 N 
ATOM     19  C8  <0> d          -1.192   2.002   0.019  0.00  0.00     0.323 C 
ATOM     20  H8  <0> d           0.929   1.907   0.008  0.00  0.00     0.173 HD
ATOM     21  O2  <0> d          -2.237   1.380   0.020  0.00  0.00    -0.247 OA
ATOM     22  N4  <0> d          -1.211   3.349   0.026  0.00  0.00    -0.338 N 
ATOM     23  H9  <0> d          -0.266   3.912   0.025  0.00  0.00     0.164 HD
BRANCH  22  24
ATOM     24  C9  <0> d          -2.489   4.064   0.036  0.00  0.00     0.086 A 
ATOM     25  C11 <0> d          -2.502   5.480   0.615  0.00  0.00     0.027 A 
ATOM     26  C10 <0> d          -2.632   5.270  -0.895  0.00  0.00     0.027 A 
ENDBRANCH  22  24
ENDBRANCH  14  16
ENDBRANCH   1  14
TORSDOF 5
