REMARK  8 active torsions:
REMARK  status: ('A' for Active; 'I' for Inactive)
REMARK    1  A    between atoms: C2_2  and  N1_3 
REMARK    2  A    between atoms: N1_3  and  C3_4 
REMARK    3  A    between atoms: N1_3  and  C5_6 
REMARK    4  A    between atoms: C10_11  and  C14_17 
REMARK    5  A    between atoms: C14_17  and  N3_19 
REMARK    6  A    between atoms: N3_19  and  N4_20 
REMARK       I    between atoms: N4_20  and  C15_21 
REMARK    7  A    between atoms: C15_21  and  C16_23 
REMARK    8  A    between atoms: C19_26  and  N5_29 
ROOT
ATOM      1  C14 <0> d           8.245  -2.367   2.026  0.00  0.00     0.130 C 
ATOM      2  N2  <0> d           8.996  -1.984   1.029  0.00  0.00    -0.384 N 
ATOM      3  H15 <0> d           9.948  -2.168   1.041  0.00  0.00     0.157 HD
ATOM      4  H22 <0> d           8.602  -1.514   0.277  0.00  0.00     0.157 HD
ENDROOT
BRANCH   1   5
ATOM      5  C10 <0> d           6.796  -2.086   2.008  0.00  0.00     0.085 C 
ATOM      6  C9  <0> d           6.204  -1.416   0.946  0.00  0.00     0.035 C 
ATOM      7  C8  <0> d           4.814  -1.154   1.013  0.00  0.00    -0.001 A 
ATOM      8  C7  <0> d           4.127  -0.662  -0.108  0.00  0.00     0.016 A 
ATOM      9  C12 <0> d           4.116  -1.385   2.216  0.00  0.00     0.091 A 
ATOM     10  C6  <0> d           2.784  -0.446  -0.041  0.00  0.00     0.030 A 
ATOM     11  C5  <0> d           2.083  -0.702   1.140  0.00  0.00     0.032 A 
ATOM     12  C13 <0> d           2.750  -1.162   2.268  0.00  0.00     0.067 A 
ATOM     13  O2  <0> d           4.783  -1.803   3.319  0.00  0.00    -0.274 OA
ATOM     14  C11 <0> d           5.922  -2.504   3.116  0.00  0.00     0.302 C 
ATOM     15  O1  <0> d           6.215  -3.449   3.826  0.00  0.00    -0.259 OA
BRANCH  11  16
ATOM     16  N1  <0> d           0.711  -0.489   1.189  0.00  0.00    -0.382 N 
BRANCH  16  17
ATOM     17  C2  <0> d           0.002  -0.004   0.002  0.00  0.00     0.118 C 
ATOM     18  C1  <0> d          -0.019   1.526   0.010  0.00  0.00     0.026 C 
ENDBRANCH  16  17
BRANCH  16  19
ATOM     19  C3  <0> d          -0.028  -0.750   2.427  0.00  0.00     0.118 C 
ATOM     20  C4  <0> d          -0.511  -2.202   2.437  0.00  0.00     0.026 C 
ENDBRANCH  16  19
ENDBRANCH  11  16
ENDBRANCH   1   5
BRANCH   1  21
ATOM     21  N3  <0> d           8.805  -3.034   3.094  0.00  0.00    -0.282 N 
ATOM     22  H16 <0> d           8.247  -3.318   3.835  0.00  0.00     0.188 HD
BRANCH  21  23
ATOM     23  N4  <0> d          10.180  -3.300   3.111  0.00  0.00    -0.264 N 
ATOM     24  C15 <0> d          10.728  -3.952   4.156  0.00  0.00     0.270 C 
ATOM     25  O3  <0> d          10.028  -4.309   5.084  0.00  0.00    -0.266 OA
ATOM     26  H17 <0> d          10.739  -3.016   2.371  0.00  0.00     0.190 HD
BRANCH  24  27
ATOM     27  C16 <0> d          12.179  -4.234   4.173  0.00  0.00     0.033 A 
ATOM     28  C21 <0> d          12.749  -4.909   5.254  0.00  0.00     0.019 A 
ATOM     29  C20 <0> d          14.103  -5.173   5.261  0.00  0.00     0.037 A 
ATOM     30  C19 <0> d          14.898  -4.761   4.206  0.00  0.00     0.102 A 
ATOM     31  C18 <0> d          14.340  -4.086   3.135  0.00  0.00     0.037 A 
ATOM     32  C17 <0> d          12.986  -3.821   3.112  0.00  0.00     0.019 A 
BRANCH  30  33
ATOM     33  N5  <0> d          16.351  -5.042   4.224  0.00  0.00    -0.116 N 
ATOM     34  O4  <0> d          17.047  -4.683   3.303  0.00  0.00    -0.532 OA
ATOM     35  O5  <0> d          16.841  -5.631   5.159  0.00  0.00    -0.532 OA
ENDBRANCH  30  33
ENDBRANCH  24  27
ENDBRANCH  21  23
ENDBRANCH   1  21
TORSDOF 8
