REMARK  5 active torsions:
REMARK  status: ('A' for Active; 'I' for Inactive)
REMARK    1  A    between atoms: C5_5  and  C12_18 
REMARK    2  A    between atoms: C7_7  and  S1_8 
REMARK    3  A    between atoms: S1_8  and  N1_11 
REMARK    4  A    between atoms: C13_19  and  C14_20 
REMARK    5  A    between atoms: C14_20  and  N2_21 
ROOT
ATOM      1  C1  <0> d          -0.143   1.390  -0.026  0.00  0.00     0.050 C 
ATOM      2  C2  <0> d          -0.019  -0.112   0.014  0.00  0.00    -0.039 A 
ATOM      3  C3  <0> d          -0.087  -0.840  -1.161  0.00  0.00     0.010 A 
ATOM      4  C4  <0> d           0.027  -2.214  -1.131  0.00  0.00     0.021 A 
ATOM      5  C5  <0> d           0.212  -2.870   0.087  0.00  0.00     0.019 A 
ATOM      6  C6  <0> d           0.280  -2.130   1.268  0.00  0.00     0.046 A 
ATOM      7  C7  <0> d           0.170  -0.755   1.224  0.00  0.00     0.086 A 
ENDROOT
BRANCH   7   8
ATOM      8  S1  <0> d           0.263   0.183   2.713  0.00  0.00     0.261 S 
ATOM      9  O1  <0> d          -0.849   1.067   2.705  0.00  0.00    -0.200 OA
ATOM     10  O2  <0> d           0.490  -0.746   3.764  0.00  0.00    -0.200 OA
BRANCH   8  11
ATOM     11  N1  <0> d           1.619   1.127   2.613  0.00  0.00    -0.305 N 
ATOM     12  C11 <0> d           1.500   2.522   2.186  0.00  0.00     0.148 C 
ATOM     13  C10 <0> d           1.882   3.443   3.357  0.00  0.00     0.129 C 
ATOM     14  S2  <0> d           3.568   3.029   3.894  0.00  0.00     0.018 S 
ATOM     15  C9  <0> d           3.477   1.240   4.202  0.00  0.00     0.129 C 
ATOM     16  O3  <0> d           3.857   3.704   5.111  0.00  0.00    -0.258 OA
ATOM     17  C8  <0> d           2.925   0.554   2.946  0.00  0.00     0.148 C 
ENDBRANCH   8  11
ENDBRANCH   7   8
BRANCH   5  18
ATOM     18  C12 <0> d           0.330  -4.297   0.125  0.00  0.00    -0.065 C 
ATOM     19  C13 <0> d           0.427  -5.466   0.156  0.00  0.00    -0.074 C 
BRANCH  19  20
ATOM     20  C14 <0> d           0.549  -6.933   0.195  0.00  0.00     0.323 C 
BRANCH  20  21
ATOM     21  N2  <0> d           0.735  -7.372   1.585  0.00  0.00    -0.069 N 
ATOM     22  H17 <0> d           1.574  -6.954   1.960  0.00  0.00     0.275 HD
ATOM     23  H18 <0> d          -0.059  -7.085   2.137  0.00  0.00     0.275 HD
ATOM     24  H19 <0> d           0.819  -8.377   1.612  0.00  0.00     0.275 HD
ENDBRANCH  20  21
ENDBRANCH  19  20
ENDBRANCH   5  18
TORSDOF 5
