REMARK  5 active torsions:
REMARK  status: ('A' for Active; 'I' for Inactive)
REMARK    1  A    between atoms: C2_2  and  N1_4 
REMARK    2  A    between atoms: N1_4  and  S1_6 
REMARK    3  A    between atoms: S1_6  and  N2_9 
REMARK    4  A    between atoms: N3_12  and  C9_15 
REMARK    5  A    between atoms: C13_20  and  N5_21 
ROOT
ATOM      1  N2  <0> d          -1.591  -3.035  -0.817  0.00  0.00    -0.291 N 
ATOM      2  C5  <0> d          -0.311  -3.657  -1.184  0.00  0.00     0.156 C 
ATOM      3  C6  <0> d           0.351  -4.203   0.088  0.00  0.00     0.143 C 
ATOM      4  N3  <0> d          -0.638  -4.999   0.827  0.00  0.00    -0.376 N 
ATOM      5  C7  <0> d          -1.918  -4.377   1.194  0.00  0.00     0.143 C 
ATOM      6  C8  <0> d          -2.578  -3.830  -0.073  0.00  0.00     0.156 C 
ENDROOT
BRANCH   4   7
ATOM      7  C9  <0> d          -0.367  -6.323   1.174  0.00  0.00     0.059 A 
ATOM      8  C13 <0> d          -0.705  -7.375   0.315  0.00  0.00     0.068 A 
ATOM      9  C12 <0> d          -0.413  -8.674   0.698  0.00  0.00     0.118 A 
ATOM     10  N4  <0> d           0.165  -8.921   1.858  0.00  0.00    -0.373 N 
ATOM     11  C11 <0> d           0.493  -7.955   2.695  0.00  0.00     0.090 A 
ATOM     12  H24 <0> d           0.355  -9.841   2.103  0.00  0.00     0.164 HD
ATOM     13  C10 <0> d           0.242  -6.633   2.387  0.00  0.00     0.048 A 
BRANCH   8  14
ATOM     14  N5  <0> d          -1.325  -7.118  -0.914  0.00  0.00    -0.396 N 
ATOM     15  H22 <0> d          -1.523  -6.205  -1.177  0.00  0.00     0.156 HD
ATOM     16  H23 <0> d          -1.556  -7.853  -1.504  0.00  0.00     0.156 HD
ENDBRANCH   8  14
ENDBRANCH   4   7
BRANCH   1  17
ATOM     17  S1  <0> d          -1.913  -1.464  -1.230  0.00  0.00     0.319 S 
ATOM     18  O1  <0> d          -3.328  -1.333  -1.256  0.00  0.00    -0.182 OA
ATOM     19  O2  <0> d          -1.099  -1.164  -2.355  0.00  0.00    -0.182 OA
BRANCH  17  20
ATOM     20  N1  <0> d          -1.372  -0.511   0.012  0.00  0.00    -0.294 N 
ATOM     21  C4  <0> d          -2.269  -0.175   1.122  0.00  0.00     0.165 C 
BRANCH  20  22
ATOM     22  C2  <0> d           0.002  -0.004   0.002  0.00  0.00     0.088 C 
ATOM     23  C1  <0> d          -0.019   1.526   0.010  0.00  0.00     0.032 C 
ATOM     24  C3  <0> d           0.742  -0.511   1.242  0.00  0.00     0.032 C 
ENDBRANCH  20  22
ENDBRANCH  17  20
ENDBRANCH   1  17
TORSDOF 5
