REMARK  3 active torsions:
REMARK  status: ('A' for Active; 'I' for Inactive)
REMARK    1  A    between atoms: C4_4  and  C7_7 
REMARK    2  A    between atoms: C9_9  and  C16_23 
REMARK    3  A    between atoms: C11_13  and  N4_15 
ROOT
ATOM      1  C7  <0> d           3.711  -0.707  -0.038  0.00  0.00     0.135 C 
ATOM      2  C8  <0> d           4.019  -1.178  -1.464  0.00  0.00     0.063 C 
ATOM      3  C9  <0> d           2.874  -2.061  -1.976  0.00  0.00     0.164 C 
ATOM      4  N1  <0> d           2.569  -3.072  -0.963  0.00  0.00    -0.074 N 
ATOM      5  C10 <0> d           2.928  -2.979   0.340  0.00  0.00     0.736 A 
ATOM      6  N2  <0> d           2.501  -4.048   0.957  0.00  0.00     0.132 NA
ATOM      7  C11 <0> d           1.865  -4.843   0.084  0.00  0.00     0.771 A 
ATOM      8  N3  <0> d           1.885  -4.280  -1.103  0.00  0.00     0.038 NA
ATOM      9  N5  <0> d           3.630  -1.887   0.844  0.00  0.00    -0.213 N 
ATOM     10  H14 <0> d           4.044  -1.901   1.722  0.00  0.00     0.178 HD
ENDROOT
BRANCH   7  11
ATOM     11  N4  <0> d           1.274  -6.077   0.389  0.00  0.00    -0.077 N 
ATOM     12  C15 <0> d           1.286  -6.601   1.620  0.00  0.00     0.246 A 
ATOM     13  C14 <0> d           0.563  -7.930   1.603  0.00  0.00     0.113 A 
ATOM     14  O2  <0> d           1.794  -6.091   2.596  0.00  0.00    -0.272 OA
ATOM     15  C13 <0> d           0.135  -8.089   0.129  0.00  0.00     0.113 A 
ATOM     16  C12 <0> d           0.657  -6.831  -0.529  0.00  0.00     0.246 A 
ATOM     17  O1  <0> d           0.535  -6.550  -1.702  0.00  0.00    -0.272 OA
ENDBRANCH   7  11
BRANCH   3  18
ATOM     18  C16 <0> d           3.292  -2.736  -3.257  0.00  0.00    -0.033 A 
ATOM     19  C21 <0> d           2.575  -2.516  -4.419  0.00  0.00     0.009 A 
ATOM     20  C20 <0> d           2.961  -3.132  -5.595  0.00  0.00     0.001 A 
ATOM     21  C19 <0> d           4.057  -3.974  -5.607  0.00  0.00     0.000 A 
ATOM     22  C18 <0> d           4.770  -4.198  -4.444  0.00  0.00     0.001 A 
ATOM     23  C17 <0> d           4.387  -3.579  -3.269  0.00  0.00     0.009 A 
ENDBRANCH   3  18
BRANCH   1  24
ATOM     24  C4  <0> d           2.396   0.029  -0.020  0.00  0.00    -0.035 A 
ATOM     25  C3  <0> d           2.377   1.411  -0.013  0.00  0.00     0.009 A 
ATOM     26  C2  <0> d           1.171   2.086   0.002  0.00  0.00     0.001 A 
ATOM     27  C1  <0> d          -0.017   1.378   0.010  0.00  0.00     0.000 A 
ATOM     28  C6  <0> d           0.002  -0.004   0.002  0.00  0.00     0.001 A 
ATOM     29  C5  <0> d           1.208  -0.679  -0.012  0.00  0.00     0.009 A 
ENDBRANCH   1  24
TORSDOF 3
