REMARK  9 active torsions:
REMARK  status: ('A' for Active; 'I' for Inactive)
REMARK    1  A    between atoms: N2_4  and  C24_30 
REMARK    2  A    between atoms: C5_8  and  C6_9 
REMARK    3  A    between atoms: N3_11  and  C14_18 
REMARK    4  A    between atoms: C14_18  and  C15_19 
REMARK    5  A    between atoms: C15_19  and  C16_20 
REMARK    6  A    between atoms: C15_19  and  O2_29 
REMARK    7  A    between atoms: C16_20  and  N4_21 
REMARK    8  A    between atoms: N4_21  and  C17_22 
REMARK    9  A    between atoms: C17_22  and  C18_23 
ROOT
ATOM      1  C6  <0> d          -0.038  -1.511   3.494  0.00  0.00    -0.007 A 
ATOM      2  C7  <0> d          -0.020  -2.878   3.276  0.00  0.00     0.103 A 
ATOM      3  N3  <0> d          -0.104  -3.523   4.454  0.00  0.00    -0.353 N 
ATOM      4  C8  <0> d          -0.181  -2.625   5.500  0.00  0.00     0.045 A 
ATOM      5  C9  <0> d          -0.138  -1.332   4.957  0.00  0.00     0.002 A 
ATOM      6  C10 <0> d          -0.194  -0.221   5.793  0.00  0.00     0.014 A 
ATOM      7  C11 <0> d          -0.289  -0.396   7.157  0.00  0.00     0.001 A 
ATOM      8  C12 <0> d          -0.328  -1.673   7.696  0.00  0.00     0.002 A 
ATOM      9  C13 <0> d          -0.281  -2.782   6.878  0.00  0.00     0.030 A 
ENDROOT
BRANCH   3  10
ATOM     10  C14 <0> d          -0.114  -4.980   4.605  0.00  0.00     0.162 C 
BRANCH  10  11
ATOM     11  C15 <0> d          -1.560  -5.476   4.679  0.00  0.00     0.162 C 
BRANCH  11  12
ATOM     12  C16 <0> d          -1.570  -6.979   4.962  0.00  0.00     0.265 C 
BRANCH  12  13
ATOM     13  N4  <0> d          -2.958  -7.455   5.032  0.00  0.00    -0.069 N 
ATOM     14  H15 <0> d          -3.442  -6.970   5.773  0.00  0.00     0.277 HD
ATOM     15  H29 <0> d          -3.420  -7.275   4.154  0.00  0.00     0.277 HD
BRANCH  13  16
ATOM     16  C17 <0> d          -2.968  -8.899   5.304  0.00  0.00     0.270 C 
BRANCH  16  17
ATOM     17  C18 <0> d          -4.392  -9.387   5.376  0.00  0.00    -0.033 A 
ATOM     18  C23 <0> d          -5.029  -9.832   4.233  0.00  0.00     0.009 A 
ATOM     19  C22 <0> d          -6.333 -10.283   4.300  0.00  0.00     0.001 A 
ATOM     20  C21 <0> d          -7.004 -10.281   5.509  0.00  0.00     0.000 A 
ATOM     21  C20 <0> d          -6.369  -9.831   6.651  0.00  0.00     0.001 A 
ATOM     22  C19 <0> d          -5.062  -9.384   6.585  0.00  0.00     0.009 A 
ENDBRANCH  16  17
ENDBRANCH  13  16
ENDBRANCH  12  13
ENDBRANCH  11  12
BRANCH  11  23
ATOM     23  O2  <0> d          -2.215  -5.221   3.435  0.00  0.00    -0.392 OA
ATOM     24  H23 <0> d          -1.802  -5.656   2.676  0.00  0.00     0.210 HD
ENDBRANCH  11  23
ENDBRANCH  10  11
ENDBRANCH   3  10
BRANCH   1  25
ATOM     25  C5  <0> d           0.032  -0.496   2.519  0.00  0.00     0.033 C 
ATOM     26  C4  <0> d           0.814  -0.675   1.384  0.00  0.00     0.061 A 
ATOM     27  C2  <0> d           0.886   0.193   0.201  0.00  0.00     0.067 A 
ATOM     28  C3  <0> d           1.746  -1.775   1.104  0.00  0.00     0.281 A 
ATOM     29  C1  <0> d           0.114   1.469  -0.015  0.00  0.00     0.073 C 
ATOM     30  N1  <0> d           1.741  -0.335  -0.622  0.00  0.00    -0.168 NA
ATOM     31  N2  <0> d           2.274  -1.518  -0.109  0.00  0.00    -0.197 N 
ATOM     32  O1  <0> d           1.995  -2.727   1.825  0.00  0.00    -0.265 OA
BRANCH  31  33
ATOM     33  C24 <0> d           3.220  -2.320  -0.760  0.00  0.00     0.062 A 
ATOM     34  C29 <0> d           3.697  -1.956  -2.012  0.00  0.00     0.032 A 
ATOM     35  C28 <0> d           4.635  -2.746  -2.648  0.00  0.00     0.002 A 
ATOM     36  C27 <0> d           5.089  -3.904  -2.045  0.00  0.00     0.000 A 
ATOM     37  C26 <0> d           4.612  -4.272  -0.800  0.00  0.00     0.002 A 
ATOM     38  C25 <0> d           3.679  -3.483  -0.156  0.00  0.00     0.032 A 
ENDBRANCH  31  33
ENDBRANCH   1  25
TORSDOF 9
