REMARK  0 active torsions:
REMARK  status: ('A' for Active; 'I' for Inactive)
ROOT
ATOM      1  C1  <0> d          -0.018   1.459   0.010  0.00  0.00     0.014 C 
ATOM      2  C2  <0> d           1.222   1.925   0.001  0.00  0.00     0.017 C 
ATOM      3  C3  <0> d           2.138   0.741  -0.293  0.00  0.00     0.186 C 
ATOM      4  C4  <0> d           1.254  -0.460  -0.142  0.00  0.00     0.018 C 
ATOM      5  C5  <0> d           0.002  -0.004   0.002  0.00  0.00     0.018 C 
ATOM      6 Br1  <0> d           1.800  -2.270  -0.153  0.00  0.00    -0.053 Br
ATOM      7  N1  <0> d           3.247   0.836   0.645  0.00  0.00    -0.269 NA
ATOM      8  C6  <0> d           3.572   1.944   1.209  0.00  0.00     0.203 C 
ATOM      9  N2  <0> d           2.943   3.155   1.076  0.00  0.00    -0.336 N 
ATOM     10  C7  <0> d           1.830   3.247   0.231  0.00  0.00     0.129 C 
ATOM     11  N3  <0> d           1.404   4.363  -0.299  0.00  0.00    -0.283 NA
ATOM     12  H5  <0> d           0.635   4.357  -0.890  0.00  0.00     0.188 HD
ATOM     13  H6  <0> d           3.259   3.932   1.565  0.00  0.00     0.168 HD
ENDROOT
TORSDOF 0
