REMARK  4 active torsions:
REMARK  status: ('A' for Active; 'I' for Inactive)
REMARK    1  A    between atoms: C5_5  and  N1_8 
REMARK    2  A    between atoms: C9_10  and  C12_14 
REMARK       I    between atoms: C12_14  and  N2_16 
REMARK    3  A    between atoms: N2_16  and  C13_17 
REMARK    4  A    between atoms: C17_22  and  N4_26 
ROOT
ATOM      1  C12 <0> d           0.533  -7.479   1.442  0.00  0.00     0.229 C 
ATOM      2  O2  <0> d           1.410  -7.163   2.218  0.00  0.00    -0.273 OA
ATOM      3  N2  <0> d           0.287  -8.781   1.197  0.00  0.00    -0.305 N 
ATOM      4  H13 <0> d          -0.414  -9.033   0.576  0.00  0.00     0.171 HD
ENDROOT
BRANCH   1   5
ATOM      5  C9  <0> d          -0.280  -6.415   0.751  0.00  0.00     0.105 C 
ATOM      6  C8  <0> d           0.176  -5.003   1.182  0.00  0.00     0.146 C 
ATOM      7  N1  <0> d           0.059  -4.170  -0.021  0.00  0.00    -0.317 N 
ATOM      8  C11 <0> d          -0.034  -4.923  -1.130  0.00  0.00     0.225 C 
ATOM      9  C10 <0> d           0.013  -6.391  -0.767  0.00  0.00     0.119 C 
ATOM     10  O1  <0> d          -0.139  -4.490  -2.258  0.00  0.00    -0.273 OA
BRANCH   7  11
ATOM     11  C5  <0> d           0.040  -2.771  -0.013  0.00  0.00     0.037 A 
ATOM     12  C4  <0> d           0.039  -2.068  -1.211  0.00  0.00     0.030 A 
ATOM     13  C3  <0> d           0.020  -0.687  -1.200  0.00  0.00     0.009 A 
ATOM     14  C2  <0> d           0.002  -0.004   0.002  0.00  0.00    -0.062 A 
ATOM     15  C1  <0> d          -0.018   1.503   0.010  0.00  0.00     0.048 C 
ATOM     16  C7  <0> d           0.009  -0.701   1.197  0.00  0.00     0.009 A 
ATOM     17  C6  <0> d           0.022  -2.082   1.192  0.00  0.00     0.030 A 
ENDBRANCH   7  11
ENDBRANCH   1   5
BRANCH   3  18
ATOM     18  C13 <0> d           1.035  -9.759   1.832  0.00  0.00     0.174 A 
ATOM     19  S1  <0> d           0.912 -11.536   1.686  0.00  0.00    -0.050 SA
ATOM     20  C19 <0> d           2.218 -11.944   2.820  0.00  0.00     0.039 A 
ATOM     21  C14 <0> d           2.658 -10.669   3.243  0.00  0.00     0.077 A 
ATOM     22  C18 <0> d           2.775 -13.110   3.280  0.00  0.00     0.057 A 
ATOM     23  N3  <0> d           2.010  -9.616   2.699  0.00  0.00    -0.223 NA
ATOM     24  C15 <0> d           3.717 -10.653   4.180  0.00  0.00     0.035 A 
ATOM     25  C16 <0> d           4.267 -11.823   4.635  0.00  0.00     0.038 A 
ATOM     26  C17 <0> d           3.810 -13.058   4.196  0.00  0.00     0.104 A 
BRANCH  26  27
ATOM     27  N4  <0> d           4.423 -14.306   4.703  0.00  0.00    -0.116 N 
ATOM     28  O3  <0> d           5.328 -14.252   5.504  0.00  0.00    -0.532 OA
ATOM     29  O4  <0> d           4.020 -15.378   4.317  0.00  0.00    -0.532 OA
ENDBRANCH  26  27
ENDBRANCH   3  18
TORSDOF 4
