REMARK  3 active torsions:
REMARK  status: ('A' for Active; 'I' for Inactive)
REMARK    1  A    between atoms: C7_7  and  C8_8 
REMARK    2  A    between atoms: C7_7  and  N4_24 
REMARK    3  A    between atoms: C8_8  and  C9_10 
ROOT
ATOM      1  C9  <0> d          -0.268   1.257  -2.501  0.00  0.00     0.123 A 
ATOM      2  C10 <0> d          -0.985   1.622  -3.653  0.00  0.00     0.124 A 
ATOM      3  N1  <0> d          -0.485   1.284  -4.878  0.00  0.00    -0.289 N 
ATOM      4  C11 <0> d           0.671   0.613  -4.998  0.00  0.00     0.332 A 
ATOM      5  O2  <0> d           1.074   0.336  -6.111  0.00  0.00    -0.246 OA
ATOM      6  N2  <0> d           1.400   0.237  -3.935  0.00  0.00    -0.270 N 
ATOM      7  C12 <0> d           0.995   0.529  -2.681  0.00  0.00     0.269 A 
ATOM      8  O3  <0> d           1.661   0.193  -1.719  0.00  0.00    -0.267 OA
ATOM      9  C13 <0> d           2.653  -0.493  -4.138  0.00  0.00     0.164 C 
ATOM     10  C14 <0> d          -1.226   1.660  -6.085  0.00  0.00     0.163 C 
ATOM     11  N3  <0> d          -2.159   2.302  -3.549  0.00  0.00    -0.384 N 
ATOM     12  H20 <0> d          -2.465   2.857  -4.284  0.00  0.00     0.157 HD
ATOM     13  H21 <0> d          -2.691   2.232  -2.741  0.00  0.00     0.157 HD
ENDROOT
BRANCH   1  14
ATOM     14  C8  <0> d          -0.743   1.583  -1.213  0.00  0.00     0.194 C 
ATOM     15  O1  <0> d          -1.729   2.281  -1.088  0.00  0.00    -0.290 OA
BRANCH  14  16
ATOM     16  C7  <0> d          -0.026   1.067   0.008  0.00  0.00     0.318 C 
BRANCH  16  17
ATOM     17  N4  <0> d          -0.740   1.536   1.213  0.00  0.00    -0.064 N 
ATOM     18  C5  <0> d          -0.191   0.874   2.416  0.00  0.00     0.239 C 
ATOM     19  C4  <0> d          -1.022   1.284   3.633  0.00  0.00     0.008 C 
ATOM     20  C3  <0> d          -0.953   2.804   3.803  0.00  0.00     0.011 C 
ATOM     21  C15 <0> d          -2.477   0.860   3.424  0.00  0.00     0.011 C 
ATOM     22  C2  <0> d          -1.456   3.477   2.523  0.00  0.00     0.008 C 
ATOM     23  C1  <0> d          -1.334   4.996   2.662  0.00  0.00     0.011 C 
ATOM     24  C6  <0> d          -0.611   3.003   1.338  0.00  0.00     0.239 C 
ATOM     25  H25 <0> d          -1.735   1.295   1.126  0.00  0.00     0.280 HD
ENDBRANCH  16  17
ENDBRANCH  14  16
ENDBRANCH   1  14
TORSDOF 3
