REMARK  6 active torsions:
REMARK  status: ('A' for Active; 'I' for Inactive)
REMARK    1  A    between atoms: C5_5  and  C8_8 
REMARK    2  A    between atoms: C9_11  and  S1_16 
REMARK    3  A    between atoms: N3_12  and  C10_13 
REMARK    4  A    between atoms: C10_13  and  C11_14 
REMARK    5  A    between atoms: S1_16  and  C13_17 
REMARK    6  A    between atoms: C13_17  and  C14_18 
ROOT
ATOM      1  C8  <0> d          -0.019  -4.278  -0.057  0.00  0.00     0.311 C 
ATOM      2  N1  <0> d          -0.890  -4.841  -1.114  0.00  0.00    -0.225 NA
ATOM      3  N2  <0> d          -1.460  -6.057  -0.512  0.00  0.00    -0.221 NA
ATOM      4  C9  <0> d          -1.691  -5.656   0.900  0.00  0.00     0.340 C 
ATOM      5  N3  <0> d          -0.529  -4.796   1.230  0.00  0.00    -0.020 N 
ATOM      6  H11 <0> d          -1.617  -4.189  -1.369  0.00  0.00     0.143 HD
ATOM      7  H12 <0> d          -2.326  -6.311  -0.963  0.00  0.00     0.143 HD
ATOM      8  H24 <0> d           0.184  -5.340   1.692  0.00  0.00     0.285 HD
ENDROOT
BRANCH   4   9
ATOM      9  S1  <0> d          -1.730  -7.115   1.976  0.00  0.00    -0.112 SA
BRANCH   9  10
ATOM     10  C13 <0> d          -0.112  -7.894   1.719  0.00  0.00     0.155 C 
BRANCH  10  11
ATOM     11  C14 <0> d          -0.011  -9.135   2.567  0.00  0.00     0.116 A 
ATOM     12  N5  <0> d          -1.024  -9.456   3.312  0.00  0.00    -0.234 NA
ATOM     13  C21 <0> d          -1.008 -10.562   4.097  0.00  0.00     0.074 A 
ATOM     14  C16 <0> d           0.146 -11.376   4.110  0.00  0.00     0.061 A 
ATOM     15  C20 <0> d          -2.100 -10.911   4.895  0.00  0.00     0.032 A 
ATOM     16  C15 <0> d           1.278 -10.982   3.258  0.00  0.00     0.259 A 
ATOM     17  C17 <0> d           0.189 -12.515   4.912  0.00  0.00     0.019 A 
ATOM     18  N4  <0> d           1.138  -9.859   2.516  0.00  0.00    -0.310 N 
ATOM     19  O1  <0> d           2.302 -11.639   3.223  0.00  0.00    -0.267 OA
ATOM     20  H3  <0> d           1.864  -9.568   1.942  0.00  0.00     0.170 HD
ATOM     21  C18 <0> d          -0.901 -12.838   5.690  0.00  0.00     0.001 A 
ATOM     22  C19 <0> d          -2.038 -12.040   5.680  0.00  0.00     0.002 A 
ENDBRANCH  10  11
ENDBRANCH   9  10
ENDBRANCH   4   9
BRANCH   5  23
ATOM     23  C10 <0> d          -0.953  -3.683   2.089  0.00  0.00     0.266 C 
BRANCH  23  24
ATOM     24  C11 <0> d          -1.322  -4.212   3.451  0.00  0.00    -0.009 C 
ATOM     25  C12 <0> d          -0.747  -3.722   4.522  0.00  0.00     0.008 C 
ENDBRANCH  23  24
ENDBRANCH   5  23
BRANCH   1  26
ATOM     26  C5  <0> d          -0.094  -2.773  -0.073  0.00  0.00    -0.012 A 
ATOM     27  C4  <0> d          -1.321  -2.143  -0.153  0.00  0.00     0.011 A 
ATOM     28  C3  <0> d          -1.390  -0.762  -0.167  0.00  0.00     0.007 A 
ATOM     29  C2  <0> d          -0.231  -0.012  -0.101  0.00  0.00    -0.062 A 
ATOM     30  C1  <0> d          -0.305   1.493  -0.117  0.00  0.00     0.048 C 
ATOM     31  C7  <0> d           0.997  -0.642  -0.027  0.00  0.00     0.007 A 
ATOM     32  C6  <0> d           1.065  -2.023  -0.009  0.00  0.00     0.011 A 
ENDBRANCH   1  26
TORSDOF 6
