REMARK  5 active torsions:
REMARK  status: ('A' for Active; 'I' for Inactive)
REMARK    1  A    between atoms: C4_4  and  S1_10 
REMARK    2  A    between atoms: C5_5  and  C7_7 
REMARK       I    between atoms: C7_7  and  N1_9 
REMARK    3  A    between atoms: S1_10  and  C8_13 
REMARK    4  A    between atoms: C8_13  and  C9_14 
REMARK    5  A    between atoms: C11_17  and  C12_19 
ROOT
ATOM      1  S1  <0> d           3.961  -0.806  -0.042  0.00  0.00     0.181 S 
ATOM      2  O2  <0> d           3.853  -1.732  -1.114  0.00  0.00    -0.222 OA
ATOM      3  O3  <0> d           4.939   0.225  -0.070  0.00  0.00    -0.222 OA
ENDROOT
BRANCH   1   4
ATOM      4  C4  <0> d           2.416   0.041  -0.021  0.00  0.00     0.075 A 
ATOM      5  C3  <0> d           2.383   1.420  -0.013  0.00  0.00     0.024 A 
ATOM      6  C2  <0> d           1.170   2.086   0.002  0.00  0.00     0.002 A 
ATOM      7  C1  <0> d          -0.017   1.375   0.010  0.00  0.00     0.001 A 
ATOM      8  C6  <0> d           0.002  -0.004   0.002  0.00  0.00     0.018 A 
ATOM      9  C5  <0> d           1.222  -0.682  -0.014  0.00  0.00     0.053 A 
BRANCH   9  10
ATOM     10  C7  <0> d           1.250  -2.161  -0.023  0.00  0.00     0.250 C 
ATOM     11  O1  <0> d           2.313  -2.748  -0.037  0.00  0.00    -0.268 OA
ATOM     12  N1  <0> d           0.095  -2.856  -0.016  0.00  0.00    -0.366 N 
ATOM     13  H5  <0> d          -0.754  -2.387  -0.004  0.00  0.00     0.159 HD
ATOM     14  H6  <0> d           0.113  -3.826  -0.022  0.00  0.00     0.159 HD
ENDBRANCH   9  10
ENDBRANCH   1   4
BRANCH   1  15
ATOM     15  C8  <0> d           4.030  -1.688   1.541  0.00  0.00     0.205 C 
BRANCH  15  16
ATOM     16  C9  <0> d           5.324  -2.455   1.633  0.00  0.00     0.056 A 
ATOM     17  N2  <0> d           6.389  -1.889   2.153  0.00  0.00    -0.244 NA
ATOM     18  C11 <0> d           7.538  -2.543   2.250  0.00  0.00     0.110 A 
ATOM     19  S2  <0> d           7.101  -4.119   1.528  0.00  0.00    -0.079 SA
ATOM     20  C10 <0> d           5.392  -3.731   1.173  0.00  0.00     0.080 A 
BRANCH  18  21
ATOM     21  C12 <0> d           8.833  -2.090   2.801  0.00  0.00     0.024 A 
ATOM     22  C15 <0> d           9.115  -0.873   3.342  0.00  0.00     0.155 A 
ATOM     23  O4  <0> d          10.400  -0.867   3.724  0.00  0.00    -0.334 OA
ATOM     24  C14 <0> d          10.985  -2.042   3.446  0.00  0.00     0.142 A 
ATOM     25  C13 <0> d          10.083  -2.856   2.873  0.00  0.00     0.041 A 
ENDBRANCH  18  21
ENDBRANCH  15  16
ENDBRANCH   1  15
TORSDOF 5
