REMARK  8 active torsions:
REMARK  status: ('A' for Active; 'I' for Inactive)
REMARK    1  A    between atoms: C2_2  and  S1_3 
REMARK    2  A    between atoms: S1_3  and  N1_6 
REMARK    3  A    between atoms: N1_6  and  C3_7 
REMARK    4  A    between atoms: C6_10  and  N2_14 
REMARK       I    between atoms: N2_14  and  C10_15 
REMARK    5  A    between atoms: C10_15  and  C11_17 
REMARK    6  A    between atoms: C11_17  and  N3_18 
REMARK    7  A    between atoms: N3_18  and  C12_19 
REMARK    8  A    between atoms: C17_24  and  N4_25 
ROOT
ATOM      1  N2  <0> d          -6.040  -5.632  -0.190  0.00  0.00    -0.326 N 
ATOM      2  C10 <0> d          -7.211  -5.136  -0.637  0.00  0.00     0.239 C 
ATOM      3  O3  <0> d          -7.245  -4.046  -1.169  0.00  0.00    -0.271 OA
ATOM      4  H12 <0> d          -6.000  -6.533   0.166  0.00  0.00     0.169 HD
ENDROOT
BRANCH   1   5
ATOM      5  C6  <0> d          -4.882  -4.845  -0.239  0.00  0.00     0.035 A 
ATOM      6  C5  <0> d          -4.968  -3.470  -0.064  0.00  0.00     0.032 A 
ATOM      7  C4  <0> d          -3.827  -2.695  -0.113  0.00  0.00     0.035 A 
ATOM      8  C3  <0> d          -2.592  -3.290  -0.337  0.00  0.00     0.075 A 
ATOM      9  C8  <0> d          -2.507  -4.664  -0.518  0.00  0.00    -0.030 A 
ATOM     10  C7  <0> d          -3.648  -5.440  -0.463  0.00  0.00     0.038 A 
ATOM     11  C9  <0> d          -1.168  -5.309  -0.768  0.00  0.00     0.050 C 
BRANCH   8  12
ATOM     12  N1  <0> d          -1.436  -2.505  -0.386  0.00  0.00    -0.164 NA
BRANCH  12  13
ATOM     13  S1  <0> d          -1.538  -0.866  -0.170  0.00  0.00     0.251 S 
ATOM     14  O1  <0> d          -2.003  -0.704   1.163  0.00  0.00    -0.204 OA
ATOM     15  O2  <0> d          -2.311  -0.403  -1.269  0.00  0.00    -0.204 OA
BRANCH  13  16
ATOM     16  C2  <0> d           0.169  -0.270  -0.313  0.00  0.00     0.161 C 
ATOM     17  C1  <0> d           0.196   1.249  -0.128  0.00  0.00     0.023 C 
ENDBRANCH  13  16
ENDBRANCH  12  13
ENDBRANCH   8  12
ENDBRANCH   1   5
BRANCH   2  18
ATOM     18  C11 <0> d          -8.478  -5.936  -0.477  0.00  0.00     0.223 C 
BRANCH  18  19
ATOM     19  N3  <0> d          -9.604  -5.185  -1.039  0.00  0.00    -0.379 N 
ATOM     20  H15 <0> d          -9.456  -4.312  -1.434  0.00  0.00     0.160 HD
BRANCH  19  21
ATOM     21  C12 <0> d         -10.891  -5.728  -1.007  0.00  0.00     0.061 A 
ATOM     22  C17 <0> d         -11.945  -5.056  -1.613  0.00  0.00     0.129 A 
ATOM     23  C16 <0> d         -13.215  -5.598  -1.583  0.00  0.00     0.038 A 
ATOM     24  C15 <0> d         -13.440  -6.801  -0.942  0.00  0.00     0.003 A 
ATOM     25  C14 <0> d         -12.394  -7.470  -0.332  0.00  0.00     0.002 A 
ATOM     26  C13 <0> d         -11.121  -6.937  -0.363  0.00  0.00     0.032 A 
BRANCH  22  27
ATOM     27  N4  <0> d         -11.706  -3.764  -2.295  0.00  0.00    -0.113 N 
ATOM     28  O4  <0> d         -10.926  -2.968  -1.826  0.00  0.00    -0.532 OA
ATOM     29  O5  <0> d         -12.290  -3.505  -3.321  0.00  0.00    -0.532 OA
ENDBRANCH  22  27
ENDBRANCH  19  21
ENDBRANCH  18  19
ENDBRANCH   2  18
TORSDOF 8
