REMARK  5 active torsions:
REMARK  status: ('A' for Active; 'I' for Inactive)
REMARK    1  A    between atoms: N1_9  and  C8_13 
REMARK    2  A    between atoms: C8_13  and  C9_14 
REMARK    3  A    between atoms: C9_14  and  C10_15 
REMARK       I    between atoms: C10_15  and  N2_17 
REMARK    4  A    between atoms: N2_17  and  C11_18 
REMARK    5  A    between atoms: C11_18  and  C12_19 
ROOT
ATOM      1  C1  <0> d           1.173   1.789   0.001  0.00  0.00     0.001 A 
ATOM      2  C2  <0> d          -0.013   1.076   0.008  0.00  0.00     0.002 A 
ATOM      3  C3  <0> d          -1.220   1.758   0.017  0.00  0.00     0.026 A 
ATOM      4  C4  <0> d          -1.226   3.124   0.030  0.00  0.00     0.095 A 
ATOM      5  C5  <0> d          -0.042   3.873   0.022  0.00  0.00     0.056 A 
ATOM      6  C6  <0> d           1.172   3.165   0.007  0.00  0.00     0.018 A 
ATOM      7  C7  <0> d          -0.291   5.321   0.032  0.00  0.00     0.269 A 
ATOM      8  O1  <0> d           0.631   6.113   0.026  0.00  0.00    -0.266 OA
ATOM      9  N1  <0> d          -1.564   5.745   0.046  0.00  0.00    -0.236 N 
ATOM     10  S1  <0> d          -2.498   4.358   0.048  0.00  0.00     0.268 S 
ATOM     11  O2  <0> d          -3.156   4.282   1.306  0.00  0.00    -0.200 OA
ATOM     12  O3  <0> d          -3.180   4.294  -1.197  0.00  0.00    -0.200 OA
ENDROOT
BRANCH   9  13
ATOM     13  C8  <0> d          -2.036   7.132   0.057  0.00  0.00     0.154 C 
BRANCH  13  14
ATOM     14  C9  <0> d          -2.095   7.662  -1.378  0.00  0.00     0.123 C 
BRANCH  14  15
ATOM     15  C10 <0> d          -2.580   9.088  -1.367  0.00  0.00     0.219 C 
ATOM     16  O4  <0> d          -2.853   9.628  -0.315  0.00  0.00    -0.274 OA
ATOM     17  N2  <0> d          -2.712   9.764  -2.525  0.00  0.00    -0.360 N 
ATOM     18  H9  <0> d          -2.494   9.333  -3.366  0.00  0.00     0.162 HD
BRANCH  17  19
ATOM     19  C11 <0> d          -3.184  11.151  -2.514  0.00  0.00     0.137 C 
BRANCH  19  20
ATOM     20  C12 <0> d          -3.243  11.681  -3.949  0.00  0.00     0.134 C 
ATOM     21 Cl1  <0> d          -3.825  13.388  -3.936  0.00  0.00    -0.129 Cl
ENDBRANCH  19  20
ENDBRANCH  17  19
ENDBRANCH  14  15
ENDBRANCH  13  14
ENDBRANCH   9  13
TORSDOF 5
