REMARK  5 active torsions:
REMARK  status: ('A' for Active; 'I' for Inactive)
REMARK    1  A    between atoms: C2_2  and  C3_3 
REMARK    2  A    between atoms: C4_6  and  S1_9 
REMARK    3  A    between atoms: S1_9  and  C5_10 
REMARK    4  A    between atoms: C5_10  and  C6_11 
REMARK       I    between atoms: C6_11  and  N4_13 
REMARK    5  A    between atoms: N4_13  and  C7_14 
ROOT
ATOM      1  C6  <0> d          -1.725   5.089   0.044  0.00  0.00     0.231 C 
ATOM      2  O1  <0> d          -2.897   4.779   0.045  0.00  0.00    -0.272 OA
ATOM      3  N4  <0> d          -1.371   6.390   0.044  0.00  0.00    -0.325 N 
ATOM      4  H9  <0> d          -0.436   6.638   0.109  0.00  0.00     0.169 HD
ENDROOT
BRANCH   1   5
ATOM      5  C5  <0> d          -0.663   4.020   0.045  0.00  0.00     0.185 C 
BRANCH   5   6
ATOM      6  S1  <0> d          -1.449   2.389   0.046  0.00  0.00    -0.081 SA
BRANCH   6   7
ATOM      7  C4  <0> d          -0.018   1.361   0.046  0.00  0.00     0.189 A 
ATOM      8  N1  <0> d          -0.000  -0.005   0.047  0.00  0.00    -0.321 N 
ATOM      9  C3  <0> d           1.321  -0.358   0.041  0.00  0.00     0.128 A 
ATOM     10  H1  <0> d          -0.766  -0.601   0.051  0.00  0.00     0.169 HD
ATOM     11  N3  <0> d           2.017   0.744   0.037  0.00  0.00    -0.134 NA
ATOM     12  N2  <0> d           1.232   1.762   0.040  0.00  0.00    -0.123 NA
BRANCH   9  13
ATOM     13  C2  <0> d           1.871  -1.761   0.039  0.00  0.00     0.076 C 
ATOM     14  C1  <0> d           2.821  -1.935  -1.147  0.00  0.00     0.013 C 
ENDBRANCH   9  13
ENDBRANCH   6   7
ENDBRANCH   5   6
ENDBRANCH   1   5
BRANCH   3  15
ATOM     15  C7  <0> d          -2.354   7.382  -0.052  0.00  0.00     0.052 A 
ATOM     16  C12 <0> d          -2.093   8.556  -0.748  0.00  0.00     0.037 A 
ATOM     17  C11 <0> d          -3.066   9.533  -0.841  0.00  0.00     0.021 A 
ATOM     18 Br1  <0> d          -0.410   8.815  -1.569  0.00  0.00    -0.049 Br
ATOM     19  C10 <0> d          -4.298   9.343  -0.241  0.00  0.00     0.002 A 
ATOM     20  C9  <0> d          -4.560   8.176   0.452  0.00  0.00     0.002 A 
ATOM     21  C8  <0> d          -3.594   7.193   0.544  0.00  0.00     0.031 A 
ENDBRANCH   3  15
TORSDOF 5
