REMARK  1 active torsions:
REMARK  status: ('A' for Active; 'I' for Inactive)
REMARK    1  A    between atoms: C11_12  and  N1_13 
ROOT
ATOM      1  C1  <0> d           0.009   1.424  -0.089  0.00  0.00     0.021 A 
ATOM      2  C2  <0> d           1.209   2.110  -0.091  0.00  0.00     0.021 A 
ATOM      3  C3  <0> d           2.398   1.410  -0.085  0.00  0.00     0.019 A 
ATOM      4  C4  <0> d           2.401   0.018  -0.071  0.00  0.00    -0.003 A 
ATOM      5  C5  <0> d           1.208  -0.661  -0.051  0.00  0.00    -0.031 A 
ATOM      6  C6  <0> d           0.010   0.044  -0.071  0.00  0.00     0.018 A 
ATOM      7 Br1  <0> d          -1.631  -0.895  -0.074  0.00  0.00    -0.051 Br
ATOM      8  C7  <0> d           1.127  -2.163   0.023  0.00  0.00     0.040 C 
ATOM      9  C8  <0> d           2.008  -2.811  -1.049  0.00  0.00     0.005 C 
ATOM     10  C9  <0> d           3.370  -3.097  -0.424  0.00  0.00     0.003 C 
ATOM     11  C10 <0> d           3.698  -2.019   0.611  0.00  0.00     0.037 C 
ATOM     12  C11 <0> d           3.746  -0.665  -0.096  0.00  0.00     0.218 C 
ATOM     13 Br2  <0> d           4.039   2.350  -0.096  0.00  0.00    -0.050 Br
ENDROOT
BRANCH  12  14
ATOM     14  N1  <0> d           4.732   0.192   0.576  0.00  0.00    -0.071 N 
ATOM     15  H12 <0> d           4.264   0.779   1.250  0.00  0.00     0.275 HD
ATOM     16  H13 <0> d           5.413  -0.384   1.047  0.00  0.00     0.275 HD
ATOM     17  H14 <0> d           5.197   0.771  -0.108  0.00  0.00     0.275 HD
ENDBRANCH  12  14
TORSDOF 1
