REMARK  6 active torsions:
REMARK  status: ('A' for Active; 'I' for Inactive)
REMARK    1  A    between atoms: C2_2  and  C3_3 
REMARK    2  A    between atoms: C3_3  and  C5_5 
REMARK    3  A    between atoms: C5_5  and  C6_6 
REMARK       I    between atoms: C6_6  and  N1_8 
REMARK    4  A    between atoms: C8_10  and  C15_18 
REMARK       I    between atoms: C15_18  and  N3_20 
REMARK    5  A    between atoms: N3_20  and  C16_21 
REMARK    6  A    between atoms: C16_21  and  C18_23 
REMARK       I    between atoms: C18_23  and  N4_25 
ROOT
ATOM      1  C6  <0> d           1.025  -2.560   2.359  0.00  0.00     0.220 C 
ATOM      2  O1  <0> d           1.430  -1.688   3.099  0.00  0.00    -0.273 OA
ATOM      3  N1  <0> d           1.154  -3.855   2.709  0.00  0.00    -0.351 N 
ATOM      4  C7  <0> d           0.732  -5.050   1.941  0.00  0.00     0.140 C 
ATOM      5  C8  <0> d           1.864  -6.077   2.162  0.00  0.00     0.106 C 
ATOM      6  C9  <0> d           2.528  -5.650   3.482  0.00  0.00    -0.007 C 
ATOM      7  C10 <0> d           1.757  -4.406   3.946  0.00  0.00     0.136 C 
ATOM      8  C11 <0> d           3.994  -5.298   3.247  0.00  0.00     0.039 C 
ATOM      9  C12 <0> d           4.647  -4.932   4.582  0.00  0.00     0.233 C 
ATOM     10  N2  <0> d           4.539  -6.065   5.509  0.00  0.00    -0.075 N 
ATOM     11  C13 <0> d           3.127  -6.338   5.803  0.00  0.00     0.233 C 
ATOM     12  C14 <0> d           2.409  -6.764   4.518  0.00  0.00     0.039 C 
ATOM     13  H22 <0> d           4.958  -6.882   5.090  0.00  0.00     0.277 HD
ATOM     14  H35 <0> d           5.022  -5.844   6.366  0.00  0.00     0.277 HD
ENDROOT
BRANCH   5  15
ATOM     15  C15 <0> d           2.856  -6.017   1.030  0.00  0.00     0.225 C 
ATOM     16  O2  <0> d           3.049  -4.971   0.447  0.00  0.00    -0.273 OA
ATOM     17  N3  <0> d           3.530  -7.125   0.664  0.00  0.00    -0.348 N 
ATOM     18  H27 <0> d           3.376  -7.962   1.130  0.00  0.00     0.163 HD
BRANCH  17  19
ATOM     19  C16 <0> d           4.494  -7.067  -0.437  0.00  0.00     0.172 C 
ATOM     20  C17 <0> d           5.849  -6.597   0.096  0.00  0.00     0.042 C 
BRANCH  19  21
ATOM     21  C18 <0> d           4.642  -8.436  -1.049  0.00  0.00     0.239 C 
ATOM     22  O3  <0> d           4.005  -9.369  -0.608  0.00  0.00    -0.271 OA
ATOM     23  N4  <0> d           5.483  -8.624  -2.086  0.00  0.00    -0.364 N 
ATOM     24  C19 <0> d           5.627  -9.955  -2.680  0.00  0.00     0.149 C 
ATOM     25  H31 <0> d           5.993  -7.878  -2.438  0.00  0.00     0.161 HD
ENDBRANCH  19  21
ENDBRANCH  17  19
ENDBRANCH   5  15
BRANCH   1  26
ATOM     26  C5  <0> d           0.378  -2.194   1.048  0.00  0.00     0.107 C 
BRANCH  26  27
ATOM     27  C3  <0> d           0.357  -0.672   0.896  0.00  0.00    -0.010 C 
ATOM     28  C4  <0> d           1.792  -0.149   0.799  0.00  0.00     0.010 C 
BRANCH  27  29
ATOM     29  C2  <0> d          -0.409  -0.296  -0.374  0.00  0.00     0.000 C 
ATOM     30  C1  <0> d          -0.538   1.226  -0.460  0.00  0.00     0.005 C 
ENDBRANCH  27  29
ENDBRANCH  26  27
ENDBRANCH   1  26
TORSDOF 6
