REMARK  6 active torsions:
REMARK  status: ('A' for Active; 'I' for Inactive)
REMARK    1  A    between atoms: C2_2  and  C3_3 
REMARK    2  A    between atoms: C3_3  and  C4_4 
REMARK    3  A    between atoms: C4_4  and  O1_5 
REMARK    4  A    between atoms: O1_5  and  C5_6 
REMARK    5  A    between atoms: C5_6  and  C6_8 
REMARK    6  A    between atoms: C7_9  and  N2_29 
ROOT
ATOM      1  C6  <0> d          -1.917   1.817  -1.114  0.00  0.00     0.095 C 
ATOM      2  C7  <0> d          -3.261   1.977  -1.243  0.00  0.00     0.156 C 
ATOM      3  O3  <0> d          -4.054   2.189  -0.182  0.00  0.00    -0.293 OA
ATOM      4  C8  <0> d          -3.624   1.877   1.066  0.00  0.00     0.086 A 
ATOM      5  C9  <0> d          -4.552   1.726   2.089  0.00  0.00     0.039 A 
ATOM      6  C10 <0> d          -4.130   1.407   3.364  0.00  0.00     0.022 A 
ATOM      7  C11 <0> d          -2.782   1.236   3.625  0.00  0.00     0.011 A 
ATOM      8  C12 <0> d          -1.857   1.387   2.609  0.00  0.00     0.031 A 
ATOM      9  C13 <0> d          -2.274   1.707   1.330  0.00  0.00     0.005 A 
ATOM     10  C14 <0> d          -1.260   1.869   0.233  0.00  0.00     0.140 A 
ATOM     11  C15 <0> d          -0.486   3.142   0.408  0.00  0.00     0.038 A 
ATOM     12  C16 <0> d           0.816   2.785   0.586  0.00  0.00     0.024 A 
ATOM     13  C17 <0> d           1.899   3.822   0.802  0.00  0.00     0.058 C 
ATOM     14  C18 <0> d           1.254   5.060   1.434  0.00  0.00     0.014 C 
ATOM     15  C19 <0> d           0.105   5.565   0.560  0.00  0.00     0.084 C 
ATOM     16  C20 <0> d          -0.930   4.473   0.397  0.00  0.00     0.159 C 
ATOM     17  O4  <0> d          -2.107   4.740   0.261  0.00  0.00    -0.293 OA
ATOM     18  N1  <0> d           0.967   1.435   0.543  0.00  0.00    -0.329 N 
ATOM     19  C21 <0> d          -0.201   0.791   0.342  0.00  0.00     0.245 A 
ATOM     20  O5  <0> d          -0.368  -0.407   0.259  0.00  0.00    -0.271 OA
ATOM     21 Br1  <0> d          -2.205   0.797   5.372  0.00  0.00    -0.051 Br
ATOM     22  H19 <0> d           1.965   0.990   0.667  0.00  0.00     0.168 HD
ENDROOT
BRANCH   1  23
ATOM     23  C5  <0> d          -1.134   1.600  -2.257  0.00  0.00     0.295 C 
ATOM     24  O2  <0> d          -1.668   1.440  -3.340  0.00  0.00    -0.259 OA
BRANCH  23  25
ATOM     25  O1  <0> d           0.213   1.568  -2.157  0.00  0.00    -0.318 OA
BRANCH  25  26
ATOM     26  C4  <0> d           0.948   1.343  -3.361  0.00  0.00     0.179 C 
BRANCH  26  27
ATOM     27  C3  <0> d           2.446   1.340  -3.052  0.00  0.00     0.026 C 
BRANCH  27  28
ATOM     28  C2  <0> d           3.233   1.099  -4.342  0.00  0.00    -0.002 C 
ATOM     29  C1  <0> d           4.731   1.096  -4.032  0.00  0.00     0.005 C 
ENDBRANCH  27  28
ENDBRANCH  26  27
ENDBRANCH  25  26
ENDBRANCH  23  25
ENDBRANCH   1  23
BRANCH   2  30
ATOM     30  N2  <0> d          -3.820   1.920  -2.491  0.00  0.00    -0.379 N 
ATOM     31  H20 <0> d          -4.906   2.048  -2.614  0.00  0.00     0.158 HD
ATOM     32  H21 <0> d          -3.184   1.747  -3.372  0.00  0.00     0.158 HD
ENDBRANCH   2  30
TORSDOF 6
