REMARK  4 active torsions:
REMARK  status: ('A' for Active; 'I' for Inactive)
REMARK    1  A    between atoms: N5_16  and  C9_17 
REMARK    2  A    between atoms: C9_17  and  C10_18 
REMARK    3  A    between atoms: C10_18  and  C11_19 
REMARK    4  A    between atoms: C11_19  and  N6_20 
ROOT
ATOM      1  C1  <0> d          -0.018   1.503   0.010  0.00  0.00     0.071 C 
ATOM      2  C2  <0> d           0.002  -0.004   0.002  0.00  0.00     0.048 A 
ATOM      3  C3  <0> d           0.008  -0.778  -1.079  0.00  0.00     0.054 A 
ATOM      4  N1  <0> d           0.028  -2.099  -0.668  0.00  0.00    -0.138 N 
ATOM      5  C4  <0> d           0.045  -3.419  -1.094  0.00  0.00     0.172 A 
ATOM      6  C5  <0> d           0.049  -4.048  -2.350  0.00  0.00     0.281 A 
ATOM      7  O1  <0> d           0.035  -3.383  -3.372  0.00  0.00    -0.265 OA
ATOM      8  N2  <0> d           0.067  -5.395  -2.415  0.00  0.00    -0.273 N 
ATOM      9  H1  <0> d           0.070  -5.831  -3.281  0.00  0.00     0.173 HD
ATOM     10  C6  <0> d           0.083  -6.143  -1.298  0.00  0.00     0.330 A 
ATOM     11  O2  <0> d           0.100  -7.355  -1.396  0.00  0.00    -0.246 OA
ATOM     12  N3  <0> d           0.080  -5.583  -0.073  0.00  0.00    -0.286 N 
ATOM     13  C7  <0> d           0.061  -4.203   0.059  0.00  0.00     0.186 A 
ATOM     14  N4  <0> d           0.054  -3.378   1.103  0.00  0.00    -0.043 NA
ATOM     15  C8  <0> d           0.034  -2.120   0.685  0.00  0.00     0.716 A 
ATOM     16  N5  <0> d           0.024  -0.821   1.117  0.00  0.00    -0.183 N 
ATOM     17  C19 <0> d           0.097  -6.433   1.120  0.00  0.00     0.163 C 
ATOM     18  C20 <0> d          -0.005  -0.298  -2.508  0.00  0.00     0.071 C 
ENDROOT
BRANCH  16  19
ATOM     19  C9  <0> d           0.031  -0.375   2.512  0.00  0.00     0.149 C 
BRANCH  19  20
ATOM     20  C10 <0> d          -1.409  -0.240   3.012  0.00  0.00     0.048 C 
BRANCH  20  21
ATOM     21  C11 <0> d          -1.401   0.226   4.469  0.00  0.00     0.236 C 
BRANCH  21  22
ATOM     22  N6  <0> d          -2.784   0.355   4.949  0.00  0.00    -0.070 N 
ATOM     23  C16 <0> d          -2.775   0.685   6.379  0.00  0.00     0.239 C 
ATOM     24  C15 <0> d          -4.212   0.742   6.902  0.00  0.00     0.008 C 
ATOM     25  C14 <0> d          -4.987   1.817   6.134  0.00  0.00     0.011 C 
ATOM     26  C17 <0> d          -4.201   1.088   8.393  0.00  0.00     0.011 C 
ATOM     27  C13 <0> d          -4.926   1.502   4.636  0.00  0.00     0.008 C 
ATOM     28  C12 <0> d          -3.463   1.417   4.197  0.00  0.00     0.239 C 
ATOM     29  C18 <0> d          -5.632   2.611   3.852  0.00  0.00     0.011 C 
ATOM     30  H31 <0> d          -3.271  -0.517   4.809  0.00  0.00     0.279 HD
ENDBRANCH  21  22
ENDBRANCH  20  21
ENDBRANCH  19  20
ENDBRANCH  16  19
TORSDOF 4
