REMARK  8 active torsions:
REMARK  status: ('A' for Active; 'I' for Inactive)
REMARK    1  A    between atoms: C2_2  and  C3_3 
REMARK    2  A    between atoms: C3_3  and  C4_4 
REMARK    3  A    between atoms: C4_4  and  N1_5 
REMARK    4  A    between atoms: C5_6  and  N4_33 
REMARK    5  A    between atoms: C6_7  and  N3_14 
REMARK    6  A    between atoms: N3_14  and  C9_15 
REMARK       I    between atoms: N3_14  and  C16_22 
REMARK    7  A    between atoms: C9_15  and  C10_16 
REMARK    8  A    between atoms: C16_22  and  C17_24 
ROOT
ATOM      1  N3  <0> d           0.123   1.425  -0.029  0.00  0.00    -0.305 N 
ATOM      2  C16 <0> d           0.107   0.126  -0.396  0.00  0.00     0.239 C 
ATOM      3  O3  <0> d          -0.941  -0.483  -0.425  0.00  0.00    -0.272 OA
ENDROOT
BRANCH   1   4
ATOM      4  C6  <0> d          -1.089   2.099   0.229  0.00  0.00     0.150 A 
ATOM      5  C5  <0> d          -1.508   3.128  -0.590  0.00  0.00     0.138 A 
ATOM      6  N1  <0> d          -2.697   3.763  -0.315  0.00  0.00    -0.284 N 
ATOM      7  C8  <0> d          -3.437   3.393   0.746  0.00  0.00     0.331 A 
ATOM      8  N2  <0> d          -3.042   2.397   1.558  0.00  0.00    -0.273 N 
ATOM      9  O2  <0> d          -4.483   3.971   0.974  0.00  0.00    -0.246 OA
ATOM     10  C7  <0> d          -1.889   1.739   1.330  0.00  0.00     0.280 A 
ATOM     11  H1  <0> d          -3.611   2.141   2.339  0.00  0.00     0.173 HD
ATOM     12  O1  <0> d          -1.540   0.837   2.073  0.00  0.00    -0.265 OA
BRANCH   5  13
ATOM     13  N4  <0> d          -0.749   3.510  -1.670  0.00  0.00    -0.383 N 
ATOM     14  H25 <0> d           0.027   2.988  -1.926  0.00  0.00     0.157 HD
ATOM     15  H26 <0> d          -0.989   4.302  -2.175  0.00  0.00     0.157 HD
ENDBRANCH   5  13
BRANCH   6  16
ATOM     16  C4  <0> d          -3.158   4.852  -1.180  0.00  0.00     0.135 C 
BRANCH  16  17
ATOM     17  C3  <0> d          -2.613   6.183  -0.658  0.00  0.00     0.020 C 
BRANCH  17  18
ATOM     18  C2  <0> d          -3.093   7.321  -1.561  0.00  0.00    -0.003 C 
ATOM     19  C1  <0> d          -2.548   8.651  -1.039  0.00  0.00     0.005 C 
ENDBRANCH  17  18
ENDBRANCH  16  17
ENDBRANCH   6  16
ENDBRANCH   1   4
BRANCH   1  20
ATOM     20  C9  <0> d           1.398   2.136   0.095  0.00  0.00     0.171 C 
BRANCH  20  21
ATOM     21  C10 <0> d           1.863   2.086   1.528  0.00  0.00    -0.040 A 
ATOM     22  C15 <0> d           2.721   1.085   1.941  0.00  0.00     0.009 A 
ATOM     23  C14 <0> d           3.148   1.039   3.255  0.00  0.00     0.001 A 
ATOM     24  C13 <0> d           2.718   1.996   4.155  0.00  0.00     0.000 A 
ATOM     25  C12 <0> d           1.860   2.998   3.741  0.00  0.00     0.001 A 
ATOM     26  C11 <0> d           1.437   3.046   2.426  0.00  0.00     0.009 A 
ENDBRANCH  20  21
ENDBRANCH   1  20
BRANCH   2  27
ATOM     27  C17 <0> d           1.393  -0.567  -0.768  0.00  0.00     0.149 C 
ATOM     28  S1  <0> d           1.580  -0.695  -2.595  0.00  0.00    -0.115 SA
ATOM     29  C24 <0> d           2.266  -2.336  -2.680  0.00  0.00     0.007 A 
ATOM     30  C19 <0> d           2.066  -2.915  -1.429  0.00  0.00    -0.040 A 
ATOM     31  C23 <0> d           2.897  -3.014  -3.707  0.00  0.00     0.019 A 
ATOM     32  C18 <0> d           1.348  -2.068  -0.407  0.00  0.00     0.065 C 
ATOM     33  C20 <0> d           2.545  -4.214  -1.246  0.00  0.00     0.008 A 
ATOM     34  C21 <0> d           3.178  -4.890  -2.264  0.00  0.00     0.001 A 
ATOM     35  C22 <0> d           3.358  -4.300  -3.502  0.00  0.00     0.001 A 
ENDBRANCH   2  27
TORSDOF 8
