REMARK  6 active torsions:
REMARK  status: ('A' for Active; 'I' for Inactive)
REMARK    1  A    between atoms: N1_2  and  C3_4 
REMARK    2  A    between atoms: C3_4  and  C4_5 
REMARK    3  A    between atoms: C4_5  and  N2_6 
REMARK    4  A    between atoms: N3_9  and  C9_12 
REMARK    5  A    between atoms: C10_13  and  C14_19 
REMARK    6  A    between atoms: C14_19  and  N5_20 
ROOT
ATOM      1  N2  <0> d           0.577  -0.232   3.865  0.00  0.00     0.093 N 
ATOM      2  C5  <0> d           0.588  -1.698   3.785  0.00  0.00     0.292 C 
ATOM      3  C6  <0> d           1.504  -2.260   4.878  0.00  0.00     0.154 C 
ATOM      4  N3  <0> d           1.076  -1.711   6.173  0.00  0.00    -0.362 N 
ATOM      5  C7  <0> d           0.909  -0.255   6.291  0.00  0.00     0.154 C 
ATOM      6  C8  <0> d           0.016   0.228   5.143  0.00  0.00     0.292 C 
ENDROOT
BRANCH   4   7
ATOM      7  C9  <0> d           0.836  -2.547   7.258  0.00  0.00     0.133 A 
ATOM      8  N4  <0> d          -0.398  -2.949   7.516  0.00  0.00    -0.242 NA
ATOM      9  C13 <0> d          -0.669  -3.747   8.532  0.00  0.00     0.138 A 
ATOM     10  C12 <0> d           0.334  -4.184   9.375  0.00  0.00     0.029 A 
ATOM     11  C11 <0> d           1.643  -3.781   9.142  0.00  0.00     0.033 A 
ATOM     12 Br1  <0> d          -0.070  -5.322  10.831  0.00  0.00    -0.050 Br
ATOM     13  C10 <0> d           1.895  -2.949   8.066  0.00  0.00     0.014 A 
BRANCH  13  14
ATOM     14  C14 <0> d           3.299  -2.485   7.772  0.00  0.00     0.272 C 
BRANCH  14  15
ATOM     15  N5  <0> d           3.481  -1.121   8.286  0.00  0.00    -0.075 N 
ATOM     16  H23 <0> d           2.769  -0.519   7.902  0.00  0.00     0.274 HD
ATOM     17  H24 <0> d           3.409  -1.129   9.292  0.00  0.00     0.274 HD
ATOM     18  H26 <0> d           4.392  -0.779   8.016  0.00  0.00     0.274 HD
ENDBRANCH  14  15
ENDBRANCH  13  14
ENDBRANCH   4   7
BRANCH   1  19
ATOM     19  C4  <0> d          -0.151   0.352   2.731  0.00  0.00     0.300 C 
BRANCH  19  20
ATOM     20  C3  <0> d           0.604   0.057   1.434  0.00  0.00     0.264 C 
BRANCH  20  21
ATOM     21  N1  <0> d          -0.124   0.641   0.299  0.00  0.00    -0.077 N 
ATOM     22  C1  <0> d          -0.129   2.105   0.421  0.00  0.00     0.269 C 
ATOM     23  C2  <0> d           0.536   0.257  -0.956  0.00  0.00     0.269 C 
ATOM     24  H25 <0> d          -1.073   0.300   0.298  0.00  0.00     0.279 HD
ENDBRANCH  20  21
ENDBRANCH  19  20
ENDBRANCH   1  19
TORSDOF 6
