REMARK  4 active torsions:
REMARK  status: ('A' for Active; 'I' for Inactive)
REMARK    1  A    between atoms: C4_4  and  N1_7 
REMARK    2  A    between atoms: C8_9  and  C10_12 
REMARK    3  A    between atoms: C15_18  and  O3_27 
REMARK    4  A    between atoms: C18_22  and  C19_23 
ROOT
ATOM      1  C10 <0> d           1.804  -1.796  -0.025  0.00  0.00     0.067 A 
ATOM      2  C11 <0> d           1.565  -2.687   1.123  0.00  0.00     0.198 A 
ATOM      3  O1  <0> d           0.960  -2.308   2.111  0.00  0.00    -0.286 OA
ATOM      4  C12 <0> d           2.090  -4.060   1.018  0.00  0.00     0.049 A 
ATOM      5  C13 <0> d           1.913  -4.983   2.050  0.00  0.00     0.021 A 
ATOM      6  C14 <0> d           2.418  -6.246   1.923  0.00  0.00     0.037 A 
ATOM      7  C15 <0> d           3.106  -6.616   0.769  0.00  0.00     0.068 A 
ATOM      8  C16 <0> d           3.289  -5.711  -0.263  0.00  0.00     0.074 A 
ATOM      9  C17 <0> d           2.783  -4.423  -0.150  0.00  0.00     0.093 A 
ATOM     10  O2  <0> d           2.953  -3.530  -1.145  0.00  0.00    -0.304 OA
ATOM     11  C18 <0> d           2.489  -2.277  -1.093  0.00  0.00     0.174 A 
ENDROOT
BRANCH   1  12
ATOM     12  C8  <0> d           1.308  -0.396  -0.013  0.00  0.00     0.018 A 
ATOM     13  C7  <0> d           0.002  -0.004   0.002  0.00  0.00     0.132 A 
ATOM     14  N1  <0> d          -0.016   1.354   0.009  0.00  0.00    -0.245 N 
ATOM     15  N2  <0> d           1.309   1.806  -0.001  0.00  0.00    -0.179 NA
ATOM     16  C9  <0> d           2.103   0.767  -0.014  0.00  0.00     0.153 A 
BRANCH  14  17
ATOM     17  C4  <0> d          -1.162   2.162   0.019  0.00  0.00     0.058 A 
ATOM     18  C3  <0> d          -1.037   3.544   0.026  0.00  0.00     0.031 A 
ATOM     19  C2  <0> d          -2.168   4.338   0.036  0.00  0.00     0.002 A 
ATOM     20  C1  <0> d          -3.422   3.756   0.038  0.00  0.00     0.000 A 
ATOM     21  C6  <0> d          -3.549   2.379   0.032  0.00  0.00     0.002 A 
ATOM     22  C5  <0> d          -2.423   1.581   0.017  0.00  0.00     0.031 A 
ENDBRANCH  14  17
ENDBRANCH   1  12
BRANCH  11  23
ATOM     23  C19 <0> d           2.738  -1.364  -2.265  0.00  0.00     0.440 C 
ATOM     24  F1  <0> d           3.946  -0.685  -2.079  0.00  0.00    -0.164 F 
ATOM     25  F2  <0> d           2.804  -2.120  -3.440  0.00  0.00    -0.164 F 
ATOM     26  F3  <0> d           1.693  -0.438  -2.365  0.00  0.00    -0.164 F 
ENDBRANCH  11  23
BRANCH   7  27
ATOM     27  O3  <0> d           3.602  -7.874   0.656  0.00  0.00    -0.361 OA
ATOM     28  H11 <0> d           4.146  -8.171  -0.253  0.00  0.00     0.217 HD
ENDBRANCH   7  27
TORSDOF 4
