REMARK  7 active torsions:
REMARK  status: ('A' for Active; 'I' for Inactive)
REMARK    1  A    between atoms: C2_2  and  C4_4 
REMARK    2  A    between atoms: C4_4  and  C5_5 
REMARK    3  A    between atoms: C5_5  and  C6_6 
REMARK    4  A    between atoms: C5_5  and  N4_23 
REMARK    5  A    between atoms: C7_9  and  C8_11 
REMARK    6  A    between atoms: C8_11  and  O2_12 
REMARK    7  A    between atoms: O2_12  and  C9_13 
ROOT
ATOM      1  C6  <0> d           6.452   5.154  -0.664  0.00  0.00     0.199 A 
ATOM      2  N1  <0> d           6.465   5.045   0.634  0.00  0.00    -0.124 NA
ATOM      3  N2  <0> d           5.471   4.321   1.012  0.00  0.00    -0.124 NA
ATOM      4  C7  <0> d           4.795   3.935  -0.033  0.00  0.00     0.193 A 
ATOM      5  O1  <0> d           5.396   4.455  -1.116  0.00  0.00    -0.273 OA
ENDROOT
BRANCH   4   6
ATOM      6  C8  <0> d           3.561   3.070  -0.028  0.00  0.00     0.264 C 
BRANCH   6   7
ATOM      7  O2  <0> d           2.400   3.896   0.074  0.00  0.00    -0.341 OA
BRANCH   7   8
ATOM      8  C9  <0> d           1.196   3.268   0.093  0.00  0.00     0.098 A 
ATOM      9  C14 <0> d           0.006   4.019   0.192  0.00  0.00     0.100 A 
ATOM     10  C13 <0> d          -1.237   3.339   0.209  0.00  0.00    -0.005 A 
ATOM     11  N3  <0> d           0.036   5.353   0.270  0.00  0.00    -0.257 NA
ATOM     12  C12 <0> d          -1.263   1.938   0.122  0.00  0.00     0.014 A 
ATOM     13  C17 <0> d          -2.424   4.090   0.308  0.00  0.00     0.015 A 
ATOM     14  C11 <0> d          -0.095   1.245   0.033  0.00  0.00     0.004 A 
ATOM     15  C10 <0> d           1.130   1.906   0.015  0.00  0.00     0.039 A 
ATOM     16  C16 <0> d          -2.322   5.450   0.384  0.00  0.00     0.020 A 
ATOM     17  C15 <0> d          -1.067   6.055   0.362  0.00  0.00     0.117 A 
ENDBRANCH   7   8
ENDBRANCH   6   7
ENDBRANCH   4   6
BRANCH   1  18
ATOM     18  C5  <0> d           7.438   5.922  -1.505  0.00  0.00     0.262 C 
BRANCH  18  19
ATOM     19  C4  <0> d           7.159   7.421  -1.377  0.00  0.00     0.045 C 
BRANCH  19  20
ATOM     20  C2  <0> d           8.086   8.195  -2.317  0.00  0.00    -0.020 C 
ATOM     21  C1  <0> d           7.736   7.859  -3.768  0.00  0.00     0.009 C 
ATOM     22  C3  <0> d           7.910   9.697  -2.085  0.00  0.00     0.009 C 
ENDBRANCH  19  20
ENDBRANCH  18  19
BRANCH  18  23
ATOM     23  N4  <0> d           8.803   5.637  -1.042  0.00  0.00    -0.068 N 
ATOM     24  H19 <0> d           9.004   4.560  -1.133  0.00  0.00     0.275 HD
ATOM     25  H20 <0> d           8.903   5.941   0.011  0.00  0.00     0.275 HD
ATOM     26  H21 <0> d           9.523   6.198  -1.655  0.00  0.00     0.275 HD
ENDBRANCH  18  23
ENDBRANCH   1  18
TORSDOF 7
