REMARK  2 active torsions:
REMARK  status: ('A' for Active; 'I' for Inactive)
REMARK    1  A    between atoms: C2_3  and  C5_9 
REMARK    2  A    between atoms: C8_12  and  N3_15 
ROOT
ATOM      1  C1  <0> d          -3.518   2.182   2.110  0.00  0.00     0.154 C 
ATOM      2  N1  <0> d          -3.552   1.744   0.713  0.00  0.00    -0.342 N 
ATOM      3  C2  <0> d          -2.513   0.976   0.019  0.00  0.00     0.266 A 
ATOM      4  O1  <0> d          -2.955   0.768  -1.325  0.00  0.00    -0.302 OA
ATOM      5  C3  <0> d          -4.167   1.357  -1.462  0.00  0.00     0.198 A 
ATOM      6  N2  <0> d          -4.880   1.374  -2.546  0.00  0.00    -0.275 NA
ATOM      7  C4  <0> d          -4.544   1.974  -0.170  0.00  0.00     0.153 A 
ATOM      8  S1  <0> d          -5.991   2.833   0.147  0.00  0.00    -0.056 SA
ATOM      9  H5  <0> d          -5.856   1.882  -2.554  0.00  0.00     0.189 HD
ENDROOT
BRANCH   3  10
ATOM     10  C5  <0> d          -1.220   1.750   0.017  0.00  0.00    -0.009 A 
ATOM     11  C10 <0> d          -1.243   3.133   0.031  0.00  0.00     0.014 A 
ATOM     12  C9  <0> d          -0.060   3.845   0.023  0.00  0.00     0.030 A 
ATOM     13  C8  <0> d           1.155   3.171   0.008  0.00  0.00     0.029 A 
ATOM     14  C7  <0> d           1.174   1.782   0.000  0.00  0.00     0.030 A 
ATOM     15  C6  <0> d          -0.013   1.076   0.008  0.00  0.00     0.014 A 
BRANCH  13  16
ATOM     16  N3  <0> d           2.353   3.888   0.000  0.00  0.00    -0.390 N 
ATOM     17  C11 <0> d           3.633   3.175  -0.017  0.00  0.00     0.149 C 
ATOM     18  C12 <0> d           2.330   5.353   0.008  0.00  0.00     0.149 C 
ENDBRANCH  13  16
ENDBRANCH   3  10
TORSDOF 2
