REMARK  7 active torsions:
REMARK  status: ('A' for Active; 'I' for Inactive)
REMARK    1  A    between atoms: C6_6  and  C7_7 
REMARK       I    between atoms: C7_7  and  N1_9 
REMARK    2  A    between atoms: N1_9  and  C8_10 
REMARK    3  A    between atoms: C8_10  and  C9_11 
REMARK    4  A    between atoms: C9_11  and  N2_12 
REMARK       I    between atoms: N2_12  and  C10_13 
REMARK       I    between atoms: C10_13  and  N3_15 
REMARK    5  A    between atoms: N3_15  and  C11_16 
REMARK    6  A    between atoms: C11_16  and  C12_17 
REMARK    7  A    between atoms: C12_17  and  N4_18 
ROOT
ATOM      1  N2  <0> d          -3.456  -5.114   0.009  0.00  0.00    -0.342 N 
ATOM      2  C10 <0> d          -3.434  -6.462   0.002  0.00  0.00     0.316 C 
ATOM      3  O2  <0> d          -2.372  -7.053  -0.012  0.00  0.00    -0.247 OA
ATOM      4  N3  <0> d          -4.591  -7.154   0.009  0.00  0.00    -0.342 N 
ATOM      5  H10 <0> d          -4.303  -4.643   0.020  0.00  0.00     0.164 HD
ATOM      6  H11 <0> d          -5.439  -6.682   0.020  0.00  0.00     0.164 HD
ENDROOT
BRANCH   1   7
ATOM      7  C9  <0> d          -2.199  -4.362   0.001  0.00  0.00     0.144 C 
BRANCH   7   8
ATOM      8  C8  <0> d          -2.502  -2.862   0.011  0.00  0.00     0.142 C 
BRANCH   8   9
ATOM      9  N1  <0> d          -1.244  -2.110   0.003  0.00  0.00    -0.355 N 
ATOM     10  C7  <0> d          -1.266  -0.763   0.011  0.00  0.00     0.251 C 
ATOM     11  O1  <0> d          -2.328  -0.171   0.024  0.00  0.00    -0.268 OA
ATOM     12  H5  <0> d          -0.397  -2.582  -0.008  0.00  0.00     0.162 HD
BRANCH  10  13
ATOM     13  C6  <0> d           0.002  -0.004   0.002  0.00  0.00     0.032 A 
ATOM     14  C1  <0> d          -0.017   1.392   0.010  0.00  0.00     0.020 A 
ATOM     15  C2  <0> d           1.169   2.095   0.002  0.00  0.00     0.043 A 
ATOM     16  C3  <0> d           2.379   1.418  -0.013  0.00  0.00     0.116 A 
ATOM     17  C4  <0> d           2.403   0.032  -0.021  0.00  0.00     0.043 A 
ATOM     18  F1  <0> d           3.538   2.112  -0.020  0.00  0.00    -0.206 F 
ATOM     19  C5  <0> d           1.224  -0.681  -0.014  0.00  0.00     0.020 A 
ENDBRANCH  10  13
ENDBRANCH   8   9
ENDBRANCH   7   8
ENDBRANCH   1   7
BRANCH   4  20
ATOM     20  C11 <0> d          -4.568  -8.619   0.001  0.00  0.00     0.152 C 
BRANCH  20  21
ATOM     21  C12 <0> d          -6.002  -9.151   0.013  0.00  0.00     0.255 C 
BRANCH  21  22
ATOM     22  N4  <0> d          -5.979 -10.620   0.004  0.00  0.00    -0.065 N 
ATOM     23  C19 <0> d          -5.374 -11.101   1.252  0.00  0.00     0.274 C 
ATOM     24  C16 <0> d          -5.448 -12.624   1.278  0.00  0.00    -0.019 A 
ATOM     25  C15 <0> d          -6.338 -13.266   0.470  0.00  0.00    -0.008 A 
ATOM     26  C17 <0> d          -4.650 -13.430   2.087  0.00  0.00     0.017 A 
ATOM     27  C14 <0> d          -7.299 -12.624  -0.477  0.00  0.00     0.074 C 
ATOM     28  S1  <0> d          -6.070 -14.980   0.820  0.00  0.00    -0.106 SA
ATOM     29  C13 <0> d          -7.352 -11.124  -0.138  0.00  0.00     0.240 C 
ATOM     30  C18 <0> d          -4.780 -14.776   2.040  0.00  0.00     0.051 A 
ATOM     31  H24 <0> d          -5.427 -10.939  -0.777  0.00  0.00     0.280 HD
ENDBRANCH  21  22
ENDBRANCH  20  21
ENDBRANCH   4  20
TORSDOF 7
