REMARK  5 active torsions:
REMARK  status: ('A' for Active; 'I' for Inactive)
REMARK    1  A    between atoms: C3_4  and  C8_10 
REMARK    2  A    between atoms: C4_5  and  C5_6 
REMARK    3  A    between atoms: C6_7  and  C7_8 
REMARK    4  A    between atoms: C7_8  and  N1_9 
REMARK    5  A    between atoms: C8_10  and  N2_11 
ROOT
ATOM      1  C1  <0> d          -0.017   1.389   0.010  0.00  0.00     0.029 A 
ATOM      2  C2  <0> d           1.156   2.061   0.002  0.00  0.00     0.051 A 
ATOM      3  S1  <0> d           2.352   0.737  -0.016  0.00  0.00    -0.103 SA
ATOM      4  C3  <0> d           1.215  -0.639  -0.013  0.00  0.00     0.029 A 
ATOM      5  C4  <0> d           0.002  -0.004   0.002  0.00  0.00     0.033 A 
ENDROOT
BRANCH   4   6
ATOM      6  C8  <0> d           1.513  -2.116  -0.024  0.00  0.00     0.320 C 
BRANCH   6   7
ATOM      7  N2  <0> d           1.597  -2.588  -1.413  0.00  0.00     0.102 N 
ATOM      8  C12 <0> d           1.649  -4.055  -1.468  0.00  0.00     0.252 C 
ATOM      9  C11 <0> d           1.669  -4.502  -2.932  0.00  0.00     0.154 C 
ATOM     10  C13 <0> d           0.424  -4.652  -0.774  0.00  0.00     0.038 C 
ATOM     11  O1  <0> d           2.794  -3.912  -3.586  0.00  0.00    -0.382 OA
ATOM     12  C16 <0> d           1.764  -6.026  -2.991  0.00  0.00     0.034 C 
ATOM     13  C10 <0> d           2.787  -2.482  -3.553  0.00  0.00     0.198 C 
ATOM     14  C9  <0> d           2.760  -2.005  -2.098  0.00  0.00     0.299 C 
ATOM     15  C15 <0> d           0.544  -6.635  -2.294  0.00  0.00     0.003 C 
ATOM     16  C14 <0> d           0.505  -6.179  -0.835  0.00  0.00     0.002 C 
ENDBRANCH   6   7
ENDBRANCH   4   6
BRANCH   5  17
ATOM     17  C5  <0> d          -1.218  -0.754   0.010  0.00  0.00    -0.064 C 
ATOM     18  C6  <0> d          -2.218  -1.369   0.017  0.00  0.00    -0.074 C 
BRANCH  18  19
ATOM     19  C7  <0> d          -3.472  -2.140   0.025  0.00  0.00     0.323 C 
BRANCH  19  20
ATOM     20  N1  <0> d          -3.164  -3.576   0.014  0.00  0.00    -0.069 N 
ATOM     21  H7  <0> d          -2.636  -3.801  -0.816  0.00  0.00     0.275 HD
ATOM     22  H8  <0> d          -2.620  -3.810   0.832  0.00  0.00     0.275 HD
ATOM     23  H23 <0> d          -4.023  -4.105   0.020  0.00  0.00     0.275 HD
ENDBRANCH  19  20
ENDBRANCH  18  19
ENDBRANCH   5  17
TORSDOF 5
