REMARK  3 active torsions:
REMARK  status: ('A' for Active; 'I' for Inactive)
REMARK    1  A    between atoms: C4_4  and  C7_7 
REMARK    2  A    between atoms: C9_9  and  C10_10 
REMARK    3  A    between atoms: N1_11  and  C11_12 
ROOT
ATOM      1  C7  <0> d           1.173   3.564   0.011  0.00  0.00     0.019 A 
ATOM      2  C8  <0> d           2.233   4.398   0.010  0.00  0.00     0.037 A 
ATOM      3  C9  <0> d           1.999   5.826   0.016  0.00  0.00     0.038 A 
ATOM      4  C17 <0> d           0.582   6.221   0.033  0.00  0.00     0.225 A 
ATOM      5  O1  <0> d           0.098   7.340   0.044  0.00  0.00    -0.279 OA
ATOM      6  S1  <0> d          -0.245   4.641   0.031  0.00  0.00    -0.047 SA
ENDROOT
BRANCH   3   7
ATOM      7  C10 <0> d           3.027   6.748   0.012  0.00  0.00     0.104 C 
ATOM      8  N1  <0> d           4.319   6.325  -0.004  0.00  0.00    -0.364 N 
ATOM      9  H8  <0> d           4.519   5.376  -0.012  0.00  0.00     0.165 HD
BRANCH   8  10
ATOM     10  C11 <0> d           5.360   7.258  -0.009  0.00  0.00     0.053 A 
ATOM     11  C16 <0> d           6.681   6.828  -0.025  0.00  0.00     0.060 A 
ATOM     12  C15 <0> d           7.707   7.753  -0.030  0.00  0.00     0.026 A 
ATOM     13 Cl1  <0> d           7.042   5.130  -0.039  0.00  0.00    -0.082 Cl
ATOM     14  C14 <0> d           7.420   9.106  -0.020  0.00  0.00     0.002 A 
ATOM     15  C13 <0> d           6.106   9.537  -0.005  0.00  0.00     0.002 A 
ATOM     16  C12 <0> d           5.076   8.618  -0.004  0.00  0.00     0.031 A 
ENDBRANCH   8  10
ENDBRANCH   3   7
BRANCH   1  17
ATOM     17  C4  <0> d           1.185   2.087   0.002  0.00  0.00    -0.019 A 
ATOM     18  C3  <0> d          -0.017   1.375   0.010  0.00  0.00     0.013 A 
ATOM     19  C2  <0> d           0.002  -0.004   0.002  0.00  0.00     0.001 A 
ATOM     20  C1  <0> d           1.208  -0.683  -0.013  0.00  0.00     0.000 A 
ATOM     21  C6  <0> d           2.402   0.016  -0.020  0.00  0.00     0.001 A 
ATOM     22  C5  <0> d           2.398   1.395  -0.012  0.00  0.00     0.013 A 
ENDBRANCH   1  17
TORSDOF 3
