REMARK  6 active torsions:
REMARK  status: ('A' for Active; 'I' for Inactive)
REMARK    1  A    between atoms: O1_2  and  C2_3 
REMARK    2  A    between atoms: C2_3  and  C3_4 
REMARK    3  A    between atoms: C3_4  and  N1_5 
REMARK    4  A    between atoms: N1_5  and  C4_6 
REMARK    5  A    between atoms: C4_6  and  C5_9 
REMARK    6  A    between atoms: N2_7  and  N3_8 
ROOT
ATOM      1  C4  <0> d          -0.094  -3.890   1.347  0.00  0.00     0.125 C 
ATOM      2  N2  <0> d          -0.673  -4.758   0.570  0.00  0.00    -0.292 N 
ATOM      3  H14 <0> d          -1.289  -4.460  -0.117  0.00  0.00     0.188 HD
ENDROOT
BRANCH   1   4
ATOM      4  N1  <0> d          -0.465  -2.546   1.291  0.00  0.00    -0.373 N 
ATOM      5  H8  <0> d          -0.034  -1.899   1.870  0.00  0.00     0.161 HD
BRANCH   4   6
ATOM      6  C3  <0> d          -1.508  -2.113   0.357  0.00  0.00     0.147 C 
BRANCH   6   7
ATOM      7  C2  <0> d          -1.722  -0.604   0.496  0.00  0.00     0.186 C 
BRANCH   7   8
ATOM      8  O1  <0> d          -0.538   0.084   0.087  0.00  0.00    -0.394 OA
ATOM      9  C1  <0> d          -0.633   1.507   0.178  0.00  0.00     0.201 C 
ENDBRANCH   7   8
ENDBRANCH   6   7
ENDBRANCH   4   6
ENDBRANCH   1   4
BRANCH   1  10
ATOM     10  C5  <0> d           0.958  -4.327   2.290  0.00  0.00     0.013 A 
ATOM     11  C10 <0> d           1.876  -5.307   1.909  0.00  0.00     0.034 A 
ATOM     12  C9  <0> d           2.860  -5.707   2.791  0.00  0.00     0.014 A 
ATOM     13  C8  <0> d           2.931  -5.148   4.055  0.00  0.00     0.061 A 
ATOM     14 Br1  <0> d           4.110  -7.029   2.274  0.00  0.00    -0.051 Br
ATOM     15  C7  <0> d           2.018  -4.179   4.442  0.00  0.00     0.118 A 
ATOM     16  C6  <0> d           1.033  -3.765   3.565  0.00  0.00     0.057 A 
ATOM     17  F1  <0> d           2.093  -3.637   5.677  0.00  0.00    -0.206 F 
ENDBRANCH   1  10
BRANCH   2  18
ATOM     18  N3  <0> d          -0.408  -6.125   0.727  0.00  0.00    -0.344 N 
ATOM     19  H9  <0> d          -0.637  -6.748   0.020  0.00  0.00     0.176 HD
ATOM     20  H10 <0> d           0.006  -6.449   1.543  0.00  0.00     0.176 HD
ENDBRANCH   2  18
TORSDOF 6
