REMARK  7 active torsions:
REMARK  status: ('A' for Active; 'I' for Inactive)
REMARK    1  A    between atoms: N1_11  and  C11_14 
REMARK    2  A    between atoms: C11_14  and  C12_15 
REMARK    3  A    between atoms: C12_15  and  C13_16 
REMARK    4  A    between atoms: C13_16  and  C14_17 
REMARK       I    between atoms: C14_17  and  N2_19 
REMARK    5  A    between atoms: N2_19  and  C15_20 
REMARK    6  A    between atoms: C16_23  and  C17_25 
REMARK    7  A    between atoms: C17_25  and  O4_26 
ROOT
ATOM      1  C11 <0> d           1.806  -2.467  -2.354  0.00  0.00     0.135 C 
ENDROOT
BRANCH   1   2
ATOM      2  N1  <0> d           1.116  -1.905  -1.190  0.00  0.00    -0.287 N 
ATOM      3  C9  <0> d           0.943  -2.678  -0.102  0.00  0.00     0.231 C 
ATOM      4  C5  <0> d           0.279  -2.095   1.133  0.00  0.00     0.087 C 
ATOM      5  O1  <0> d           1.316  -3.831  -0.107  0.00  0.00    -0.273 OA
ATOM      6  C4  <0> d          -1.232  -1.978   0.818  0.00  0.00     0.016 C 
ATOM      7  C6  <0> d           0.737  -0.613   1.230  0.00  0.00    -0.020 C 
ATOM      8  C3  <0> d          -1.410  -0.632   0.090  0.00  0.00     0.020 C 
ATOM      9  C2  <0> d           0.002  -0.004   0.002  0.00  0.00     0.045 C 
ATOM     10  C1  <0> d          -0.019   1.526   0.010  0.00  0.00     0.026 C 
ATOM     11  C10 <0> d           0.688  -0.582  -1.223  0.00  0.00     0.235 C 
ATOM     12  O2  <0> d           0.821   0.092  -2.222  0.00  0.00    -0.272 OA
ATOM     13  C7  <0> d           0.259   0.029   2.534  0.00  0.00     0.017 C 
ATOM     14  C8  <0> d           2.255  -0.492   1.081  0.00  0.00     0.017 C 
ENDBRANCH   1   2
BRANCH   1  15
ATOM     15  C12 <0> d           0.784  -3.122  -3.286  0.00  0.00     0.029 C 
BRANCH  15  16
ATOM     16  C13 <0> d           1.505  -3.708  -4.502  0.00  0.00     0.105 C 
BRANCH  16  17
ATOM     17  C14 <0> d           0.499  -4.354  -5.419  0.00  0.00     0.223 C 
ATOM     18  O3  <0> d          -0.679  -4.346  -5.129  0.00  0.00    -0.273 OA
ATOM     19  N2  <0> d           0.908  -4.940  -6.562  0.00  0.00    -0.304 N 
ATOM     20  H21 <0> d           1.850  -4.946  -6.794  0.00  0.00     0.171 HD
BRANCH  19  21
ATOM     21  C15 <0> d          -0.021  -5.536  -7.409  0.00  0.00     0.196 A 
ATOM     22  S1  <0> d           0.232  -6.325  -8.877  0.00  0.00    -0.031 SA
ATOM     23  C16 <0> d          -1.478  -6.733  -9.201  0.00  0.00     0.124 A 
ATOM     24  N4  <0> d          -2.050  -6.205  -8.138  0.00  0.00    -0.143 NA
ATOM     25  N3  <0> d          -1.329  -5.626  -7.276  0.00  0.00    -0.123 NA
BRANCH  23  26
ATOM     26  C17 <0> d          -2.092  -7.468 -10.364  0.00  0.00     0.236 C 
BRANCH  26  27
ATOM     27  O4  <0> d          -2.433  -6.534 -11.391  0.00  0.00    -0.389 OA
ATOM     28  C18 <0> d          -3.027  -7.131 -12.546  0.00  0.00     0.201 C 
ENDBRANCH  26  27
ENDBRANCH  23  26
ENDBRANCH  19  21
ENDBRANCH  16  17
ENDBRANCH  15  16
ENDBRANCH   1  15
TORSDOF 7
