REMARK  5 active torsions:
REMARK  status: ('A' for Active; 'I' for Inactive)
REMARK    1  A    between atoms: C6_7  and  N2_8 
REMARK    2  A    between atoms: N2_8  and  C7_9 
REMARK    3  A    between atoms: C7_9  and  C8_10 
REMARK    4  A    between atoms: C8_10  and  C9_11 
REMARK    5  A    between atoms: C9_11  and  O1_12 
ROOT
ATOM      1  C1  <0> d           0.022   1.432  -0.081  0.00  0.00     0.052 C 
ATOM      2  C2  <0> d          -0.702   1.736   1.206  0.00  0.00    -0.017 A 
ATOM      3  C3  <0> d           0.007   1.966   2.366  0.00  0.00     0.128 A 
ATOM      4  N1  <0> d          -0.599   2.235   3.509  0.00  0.00    -0.241 NA
ATOM      5  C4  <0> d          -1.916   2.298   3.600  0.00  0.00     0.151 A 
ATOM      6  C5  <0> d          -2.713   2.077   2.462  0.00  0.00     0.105 A 
ATOM      7  C6  <0> d          -2.096   1.794   1.234  0.00  0.00     0.055 A 
ATOM      8  C11 <0> d          -4.172   2.155   2.600  0.00  0.00     0.267 A 
ATOM      9  O2  <0> d          -4.901   1.970   1.644  0.00  0.00    -0.267 OA
ATOM     10  N3  <0> d          -4.685   2.437   3.818  0.00  0.00    -0.270 N 
ATOM     11  C12 <0> d          -3.884   2.641   4.877  0.00  0.00     0.332 A 
ATOM     12  O3  <0> d          -4.395   2.891   5.951  0.00  0.00    -0.246 OA
ATOM     13  N4  <0> d          -2.544   2.581   4.800  0.00  0.00    -0.287 N 
ATOM     14  C13 <0> d          -1.739   2.816   6.002  0.00  0.00     0.163 C 
ATOM     15  C14 <0> d          -6.138   2.521   3.987  0.00  0.00     0.164 C 
ENDROOT
BRANCH   7  16
ATOM     16  N2  <0> d          -2.846   1.575   0.090  0.00  0.00    -0.388 N 
ATOM     17  H5  <0> d          -3.291   0.639  -0.277  0.00  0.00     0.159 HD
BRANCH  16  18
ATOM     18  C7  <0> d          -3.017   2.819  -0.673  0.00  0.00     0.122 C 
BRANCH  18  19
ATOM     19  C8  <0> d          -3.848   2.538  -1.926  0.00  0.00     0.046 C 
BRANCH  19  20
ATOM     20  C9  <0> d          -4.026   3.833  -2.721  0.00  0.00     0.168 C 
BRANCH  20  21
ATOM     21  O1  <0> d          -4.803   3.571  -3.892  0.00  0.00    -0.396 OA
ATOM     22  C10 <0> d          -5.029   4.721  -4.708  0.00  0.00     0.201 C 
ENDBRANCH  20  21
ENDBRANCH  19  20
ENDBRANCH  18  19
ENDBRANCH  16  18
ENDBRANCH   7  16
TORSDOF 5
