REMARK  6 active torsions:
REMARK  status: ('A' for Active; 'I' for Inactive)
REMARK    1  A    between atoms: C3_3  and  C10_12 
REMARK    2  A    between atoms: C10_12  and  C11_13 
REMARK    3  A    between atoms: C11_13  and  N2_14 
REMARK       I    between atoms: N2_14  and  C12_15 
REMARK       I    between atoms: C12_15  and  N3_16 
REMARK    4  A    between atoms: N4_17  and  S1_18 
REMARK    5  A    between atoms: S1_18  and  C13_21 
REMARK    6  A    between atoms: C16_24  and  O3_27 
ROOT
ATOM      1  N2  <0> d          -4.819  -0.826  -1.544  0.00  0.00    -0.224 N 
ATOM      2  C12 <0> d          -6.061  -1.390  -1.367  0.00  0.00     0.704 C 
ATOM      3  N3  <0> d          -6.313  -2.163  -0.259  0.00  0.00    -0.232 N 
ATOM      4  N4  <0> d          -6.998  -1.192  -2.251  0.00  0.00     0.029 NA
ATOM      5  H12 <0> d          -4.641  -0.280  -2.326  0.00  0.00     0.177 HD
ATOM      6  H13 <0> d          -5.615  -2.311   0.398  0.00  0.00     0.174 HD
ATOM      7  H22 <0> d          -7.188  -2.562  -0.135  0.00  0.00     0.174 HD
ENDROOT
BRANCH   1   8
ATOM      8  C11 <0> d          -3.765  -1.048  -0.551  0.00  0.00     0.142 C 
BRANCH   8   9
ATOM      9  C10 <0> d          -2.494  -0.316  -0.984  0.00  0.00     0.057 C 
BRANCH   9  10
ATOM     10  C3  <0> d          -1.410  -0.545   0.038  0.00  0.00    -0.044 A 
ATOM     11  C2  <0> d           0.002  -0.004   0.002  0.00  0.00     0.108 A 
ATOM     12  C1  <0> d          -0.019   1.526   0.010  0.00  0.00     0.037 C 
ATOM     13  N1  <0> d           0.658  -0.508   1.214  0.00  0.00    -0.381 N 
ATOM     14  C9  <0> d          -0.205  -1.235   1.884  0.00  0.00     0.039 A 
ATOM     15  H21 <0> d           1.576  -0.333   1.475  0.00  0.00     0.160 HD
ATOM     16  C4  <0> d          -1.503  -1.275   1.172  0.00  0.00    -0.002 A 
ATOM     17  C8  <0> d          -0.093  -1.946   3.110  0.00  0.00     0.033 A 
ATOM     18  C5  <0> d          -2.599  -2.045   1.771  0.00  0.00     0.056 A 
ATOM     19  C6  <0> d          -2.387  -2.687   2.945  0.00  0.00     0.117 A 
ATOM     20  C7  <0> d          -1.146  -2.633   3.600  0.00  0.00     0.044 A 
ATOM     21  F1  <0> d          -3.394  -3.396   3.499  0.00  0.00    -0.206 F 
ENDBRANCH   9  10
ENDBRANCH   8   9
ENDBRANCH   1   8
BRANCH   4  22
ATOM     22  S1  <0> d          -8.493  -1.871  -2.038  0.00  0.00     0.298 S 
ATOM     23  O1  <0> d          -8.317  -3.278  -2.136  0.00  0.00    -0.198 OA
ATOM     24  O2  <0> d          -9.061  -1.253  -0.892  0.00  0.00    -0.198 OA
BRANCH  22  25
ATOM     25  C13 <0> d          -9.484  -1.391  -3.413  0.00  0.00     0.082 A 
ATOM     26  C18 <0> d          -9.515  -2.177  -4.551  0.00  0.00     0.028 A 
ATOM     27  C17 <0> d         -10.296  -1.805  -5.628  0.00  0.00     0.038 A 
ATOM     28  C16 <0> d         -11.041  -0.636  -5.572  0.00  0.00     0.068 A 
ATOM     29  C15 <0> d         -11.004   0.154  -4.432  0.00  0.00     0.038 A 
ATOM     30  C14 <0> d         -10.226  -0.225  -3.356  0.00  0.00     0.028 A 
BRANCH  28  31
ATOM     31  O3  <0> d         -11.806  -0.266  -6.633  0.00  0.00    -0.356 OA
ATOM     32  C19 <0> d         -11.795  -1.127  -7.773  0.00  0.00     0.210 C 
ENDBRANCH  28  31
ENDBRANCH  22  25
ENDBRANCH   4  22
TORSDOF 6
