REMARK  3 active torsions:
REMARK  status: ('A' for Active; 'I' for Inactive)
REMARK    1  A    between atoms: C6_6  and  N1_8 
REMARK    2  A    between atoms: C10_12  and  C12_15 
REMARK    3  A    between atoms: C11_13  and  N2_14 
ROOT
ATOM      1  N1  <0> d           0.068  -2.798   2.391  0.00  0.00    -0.326 N 
ATOM      2  C8  <0> d          -0.014  -4.258   2.543  0.00  0.00     0.214 A 
ATOM      3  C9  <0> d           0.022  -4.490   4.039  0.00  0.00     0.181 A 
ATOM      4  O1  <0> d          -0.023  -5.560   4.617  0.00  0.00    -0.291 OA
ATOM      5  C10 <0> d           0.116  -3.229   4.617  0.00  0.00     0.075 A 
ATOM      6  C11 <0> d           0.147  -2.258   3.643  0.00  0.00     0.115 A 
ENDROOT
BRANCH   5   7
ATOM      7  C12 <0> d           0.180  -2.965   6.099  0.00  0.00     0.224 A 
ATOM      8  N4  <0> d          -1.027  -3.483   6.756  0.00  0.00    -0.363 N 
ATOM      9  C18 <0> d          -0.647  -4.383   7.616  0.00  0.00     0.056 A 
ATOM     10  H20 <0> d          -1.940  -3.205   6.582  0.00  0.00     0.162 HD
ATOM     11  C13 <0> d           0.836  -4.510   7.575  0.00  0.00     0.056 A 
ATOM     12  C17 <0> d          -1.382  -5.240   8.557  0.00  0.00     0.031 A 
ATOM     13  N3  <0> d           1.315  -3.683   6.691  0.00  0.00    -0.363 N 
ATOM     14  C14 <0> d           1.466  -5.482   8.479  0.00  0.00     0.031 A 
ATOM     15  H19 <0> d           2.251  -3.564   6.465  0.00  0.00     0.162 HD
ATOM     16  C15 <0> d           0.697  -6.219   9.305  0.00  0.00     0.002 A 
ATOM     17  C16 <0> d          -0.704  -6.100   9.343  0.00  0.00     0.002 A 
ENDBRANCH   5   7
BRANCH   6  18
ATOM     18  N2  <0> d           0.242  -0.917   3.898  0.00  0.00    -0.385 N 
ATOM     19  H9  <0> d           0.172  -0.279   3.171  0.00  0.00     0.157 HD
ATOM     20  H10 <0> d           0.380  -0.604   4.806  0.00  0.00     0.157 HD
ENDBRANCH   6  18
BRANCH   1  21
ATOM     21  C6  <0> d           0.070  -2.091   1.185  0.00  0.00     0.037 A 
ATOM     22  C5  <0> d          -1.065  -2.078   0.384  0.00  0.00     0.036 A 
ATOM     23  C4  <0> d          -1.060  -1.379  -0.807  0.00  0.00    -0.059 A 
ATOM     24  C3  <0> d           0.074  -0.692  -1.203  0.00  0.00     0.013 A 
ATOM     25  C19 <0> d          -2.291  -1.363  -1.676  0.00  0.00     0.048 C 
ATOM     26  C2  <0> d           1.205  -0.704  -0.408  0.00  0.00    -0.059 A 
ATOM     27  C1  <0> d           2.438   0.045  -0.843  0.00  0.00     0.048 C 
ATOM     28  C7  <0> d           1.208  -1.405   0.782  0.00  0.00     0.036 A 
ENDBRANCH   1  21
TORSDOF 3
