REMARK  5 active torsions:
REMARK  status: ('A' for Active; 'I' for Inactive)
REMARK    1  A    between atoms: C2_2  and  N1_3 
REMARK    2  A    between atoms: C5_7  and  N2_10 
REMARK    3  A    between atoms: C9_13  and  C12_16 
REMARK    4  A    between atoms: N3_19  and  C17_22 
REMARK    5  A    between atoms: N4_26  and  C21_29 
ROOT
ATOM      1  N2  <0> d           3.332  -0.250  -3.258  0.00  0.00    -0.058 N 
ATOM      2  C7  <0> d           3.567  -0.657  -4.649  0.00  0.00     0.236 C 
ATOM      3  C8  <0> d           4.488   0.355  -5.332  0.00  0.00     0.032 C 
ATOM      4  C9  <0> d           5.823   0.410  -4.583  0.00  0.00    -0.007 C 
ATOM      5  C10 <0> d           5.559   0.763  -3.116  0.00  0.00     0.032 C 
ATOM      6  C11 <0> d           4.598  -0.264  -2.514  0.00  0.00     0.236 C 
ATOM      7  H35 <0> d           2.946   0.682  -3.243  0.00  0.00     0.281 HD
ENDROOT
BRANCH   4   8
ATOM      8  C12 <0> d           6.720   1.478  -5.213  0.00  0.00    -0.007 C 
ATOM      9  C16 <0> d           8.054   1.533  -4.463  0.00  0.00     0.032 C 
ATOM     10  C15 <0> d           8.975   2.545  -5.147  0.00  0.00     0.236 C 
ATOM     11  N3  <0> d           9.210   2.138  -6.537  0.00  0.00    -0.058 N 
ATOM     12  C14 <0> d           7.944   2.152  -7.281  0.00  0.00     0.236 C 
ATOM     13  H36 <0> d           9.598   1.206  -6.553  0.00  0.00     0.281 HD
ATOM     14  C13 <0> d           6.983   1.124  -6.679  0.00  0.00     0.032 C 
BRANCH  11  15
ATOM     15  C17 <0> d          10.156   3.069  -7.166  0.00  0.00     0.288 A 
ATOM     16  C20 <0> d          10.492   2.619  -8.572  0.00  0.00     0.258 A 
ATOM     17  N4  <0> d          11.808   2.367  -8.647  0.00  0.00    -0.287 N 
ATOM     18  O4  <0> d           9.698   2.505  -9.480  0.00  0.00    -0.271 OA
ATOM     19  C19 <0> d          12.479   2.569  -7.507  0.00  0.00     0.229 A 
ATOM     20  C18 <0> d          11.515   3.036  -6.438  0.00  0.00     0.146 A 
ATOM     21  O3  <0> d          13.670   2.404  -7.354  0.00  0.00    -0.273 OA
BRANCH  17  22
ATOM     22  C21 <0> d          12.456   1.909  -9.879  0.00  0.00     0.130 C 
ATOM     23  C22 <0> d          12.443   0.380  -9.924  0.00  0.00     0.027 C 
ENDBRANCH  17  22
ENDBRANCH  11  15
ENDBRANCH   4   8
BRANCH   1  24
ATOM     24  C5  <0> d           2.386  -1.181  -2.629  0.00  0.00     0.288 A 
ATOM     25  C4  <0> d           1.045  -1.188  -3.390  0.00  0.00     0.146 A 
ATOM     26  C3  <0> d           0.048  -0.715  -2.355  0.00  0.00     0.229 A 
ATOM     27  N1  <0> d           0.688  -0.476  -1.203  0.00  0.00    -0.287 N 
ATOM     28  O1  <0> d          -1.142  -0.574  -2.539  0.00  0.00    -0.273 OA
ATOM     29  C6  <0> d           2.007  -0.700  -1.246  0.00  0.00     0.258 A 
ATOM     30  O2  <0> d           2.776  -0.544  -0.321  0.00  0.00    -0.271 OA
BRANCH  27  31
ATOM     31  C2  <0> d           0.002  -0.004   0.002  0.00  0.00     0.130 C 
ATOM     32  C1  <0> d          -0.019   1.526   0.010  0.00  0.00     0.027 C 
ENDBRANCH  27  31
ENDBRANCH   1  24
TORSDOF 5
