REMARK  7 active torsions:
REMARK  status: ('A' for Active; 'I' for Inactive)
REMARK    1  A    between atoms: C4_4  and  N2_10 
REMARK    2  A    between atoms: N2_10  and  C9_11 
REMARK    3  A    between atoms: N2_10  and  C15_18 
REMARK    4  A    between atoms: C9_11  and  C10_12 
REMARK    5  A    between atoms: N4_20  and  C16_21 
REMARK    6  A    between atoms: C18_23  and  O2_29 
REMARK    7  A    between atoms: C20_25  and  O1_27 
ROOT
ATOM      1  N2  <0> d          -2.812  -2.361   0.012  0.00  0.00    -0.349 N 
ENDROOT
BRANCH   1   2
ATOM      2  C4  <0> d          -1.436  -1.867  -0.121  0.00  0.00     0.091 C 
ATOM      3  C3  <0> d          -0.461  -3.019   0.119  0.00  0.00     0.063 C 
ATOM      4  C2  <0> d           0.978  -2.541  -0.045  0.00  0.00     0.121 C 
ATOM      5  C1  <0> d           1.883  -3.795  -0.054  0.00  0.00     0.046 C 
ATOM      6  N1  <0> d           1.207  -1.822  -1.286  0.00  0.00    -0.059 N 
ATOM      7  C24 <0> d           1.387  -1.701   1.169  0.00  0.00     0.046 C 
ATOM      8  C6  <0> d           0.211  -0.859  -1.721  0.00  0.00     0.121 C 
ATOM      9  H9  <0> d           2.110  -1.342  -1.217  0.00  0.00     0.279 HD
ATOM     10  H35 <0> d           1.335  -2.510  -2.036  0.00  0.00     0.279 HD
ATOM     11  C5  <0> d          -1.222  -1.350  -1.544  0.00  0.00     0.063 C 
ATOM     12  C7  <0> d           0.390   0.486  -1.008  0.00  0.00     0.046 C 
ATOM     13  C8  <0> d           0.430  -0.604  -3.230  0.00  0.00     0.046 C 
ENDBRANCH   1   2
BRANCH   1  14
ATOM     14  C9  <0> d          -3.335  -3.339  -0.945  0.00  0.00     0.165 C 
BRANCH  14  15
ATOM     15  C10 <0> d          -3.144  -4.730  -0.397  0.00  0.00    -0.023 A 
ATOM     16  C14 <0> d          -4.069  -5.270   0.476  0.00  0.00     0.124 A 
ATOM     17  N3  <0> d          -3.913  -6.489   0.956  0.00  0.00    -0.273 NA
ATOM     18  C13 <0> d          -2.872  -7.232   0.635  0.00  0.00     0.116 A 
ATOM     19  C12 <0> d          -1.903  -6.756  -0.228  0.00  0.00     0.020 A 
ATOM     20  C11 <0> d          -2.036  -5.481  -0.757  0.00  0.00     0.012 A 
ENDBRANCH  14  15
ENDBRANCH   1  14
BRANCH   1  21
ATOM     21  C15 <0> d          -3.594  -1.915   1.015  0.00  0.00     0.175 C 
ATOM     22  S1  <0> d          -5.163  -2.566   1.231  0.00  0.00    -0.041 SA
ATOM     23  N4  <0> d          -3.142  -0.957   1.847  0.00  0.00    -0.333 N 
ATOM     24  H22 <0> d          -2.811  -1.195   2.727  0.00  0.00     0.168 HD
BRANCH  23  25
ATOM     25  C16 <0> d          -3.148   0.382   1.442  0.00  0.00     0.039 A 
ATOM     26  C21 <0> d          -2.585   1.357   2.254  0.00  0.00     0.066 A 
ATOM     27  C20 <0> d          -2.587   2.683   1.849  0.00  0.00     0.073 A 
ATOM     28  C19 <0> d          -3.160   3.037   0.637  0.00  0.00     0.073 A 
ATOM     29  C18 <0> d          -3.728   2.065  -0.173  0.00  0.00     0.073 A 
ATOM     30  C17 <0> d          -3.722   0.738   0.229  0.00  0.00     0.066 A 
BRANCH  27  31
ATOM     31  O1  <0> d          -2.030   3.636   2.641  0.00  0.00    -0.356 OA
ATOM     32  C22 <0> d          -2.072   4.982   2.164  0.00  0.00     0.210 C 
ENDBRANCH  27  31
BRANCH  29  33
ATOM     33  O2  <0> d          -4.290   2.413  -1.360  0.00  0.00    -0.356 OA
ATOM     34  C23 <0> d          -4.261   3.798  -1.711  0.00  0.00     0.210 C 
ENDBRANCH  29  33
ENDBRANCH  23  25
ENDBRANCH   1  21
TORSDOF 7
