REMARK  3 active torsions:
REMARK  status: ('A' for Active; 'I' for Inactive)
REMARK    1  A    between atoms: C7_7  and  C8_8 
REMARK    2  A    between atoms: C7_7  and  N1_11 
REMARK    3  A    between atoms: C11_14  and  N2_17 
ROOT
ATOM      1  C1  <0> d          -0.670  -2.475   1.753  0.00  0.00     0.013 C 
ATOM      2  C2  <0> d           0.761  -1.994   1.509  0.00  0.00     0.029 C 
ATOM      3  C3  <0> d           1.389  -2.814   0.380  0.00  0.00     0.007 C 
ATOM      4  C4  <0> d           2.821  -2.333   0.136  0.00  0.00     0.001 C 
ATOM      5  C5  <0> d           2.803  -0.855  -0.257  0.00  0.00     0.003 C 
ATOM      6  C6  <0> d           2.175  -0.034   0.872  0.00  0.00     0.051 C 
ATOM      7  C7  <0> d           0.743  -0.515   1.116  0.00  0.00     0.217 C 
ENDROOT
BRANCH   7   8
ATOM      8  C8  <0> d          -0.067  -0.341  -0.143  0.00  0.00     0.211 C 
ATOM      9  O1  <0> d          -1.111   0.289  -0.114  0.00  0.00    -0.646 OA
ATOM     10  O2  <0> d           0.321  -0.829  -1.190  0.00  0.00    -0.646 OA
ENDBRANCH   7   8
BRANCH   7  11
ATOM     11  N1  <0> d           0.140   0.272   2.200  0.00  0.00    -0.052 N 
ATOM     12  C13 <0> d           0.850  -0.001   3.454  0.00  0.00     0.238 C 
ATOM     13  C12 <0> d           0.176   0.754   4.602  0.00  0.00     0.063 C 
ATOM     14  C11 <0> d           0.213   2.257   4.309  0.00  0.00     0.225 C 
ATOM     15  C10 <0> d          -0.465   2.521   2.961  0.00  0.00     0.063 C 
ATOM     16  C9  <0> d           0.233   1.700   1.875  0.00  0.00     0.238 C 
ATOM     17  H28 <0> d          -0.831   0.015   2.301  0.00  0.00     0.281 HD
BRANCH  14  18
ATOM     18  N2  <0> d          -0.499   2.982   5.368  0.00  0.00     0.084 N 
ATOM     19  C14 <0> d           0.126   2.750   6.677  0.00  0.00     0.309 C 
ATOM     20  C15 <0> d          -0.572   4.418   5.066  0.00  0.00     0.309 C 
ENDBRANCH  14  18
ENDBRANCH   7  11
TORSDOF 3
