REMARK  5 active torsions:
REMARK  status: ('A' for Active; 'I' for Inactive)
REMARK    1  A    between atoms: N1_7  and  C6_10 
REMARK    2  A    between atoms: C6_10  and  C7_11 
REMARK    3  A    between atoms: C10_14  and  N4_17 
REMARK       I    between atoms: N4_17  and  C13_18 
REMARK    4  A    between atoms: C13_18  and  C14_20 
REMARK    5  A    between atoms: C16_22  and  C17_23 
ROOT
ATOM      1  C7  <0> d           0.006  -0.010   0.018  0.00  0.00    -0.038 A 
ATOM      2  C8  <0> d          -0.011   1.362  -0.153  0.00  0.00     0.011 A 
ATOM      3  C9  <0> d           1.174   2.072  -0.166  0.00  0.00     0.030 A 
ATOM      4  C10 <0> d           2.382   1.407  -0.007  0.00  0.00     0.034 A 
ATOM      5  C11 <0> d           2.396   0.029   0.165  0.00  0.00     0.030 A 
ATOM      6  C12 <0> d           1.208  -0.676   0.176  0.00  0.00     0.011 A 
ENDROOT
BRANCH   1   7
ATOM      7  C6  <0> d          -1.288  -0.782   0.032  0.00  0.00     0.195 C 
BRANCH   7   8
ATOM      8  N1  <0> d          -1.622  -1.201  -1.332  0.00  0.00    -0.210 N 
ATOM      9  C5  <0> d          -1.175  -2.388  -1.803  0.00  0.00     0.296 A 
ATOM     10  C4  <0> d          -1.525  -2.757  -3.125  0.00  0.00     0.154 A 
ATOM     11  O1  <0> d          -0.495  -3.122  -1.107  0.00  0.00    -0.264 OA
ATOM     12  C3  <0> d          -2.304  -1.880  -3.889  0.00  0.00     0.140 A 
ATOM     13  N5  <0> d          -1.266  -3.845  -3.906  0.00  0.00    -0.266 N 
ATOM     14  C2  <0> d          -2.494  -2.488  -5.145  0.00  0.00     0.084 A 
ATOM     15  N3  <0> d          -2.710  -0.704  -3.352  0.00  0.00    -0.127 NA
ATOM     16  C1  <0> d          -3.274  -1.904  -6.294  0.00  0.00     0.075 C 
ATOM     17  N6  <0> d          -1.882  -3.641  -5.148  0.00  0.00    -0.175 NA
ATOM     18  N2  <0> d          -2.396  -0.372  -2.150  0.00  0.00    -0.062 NA
ATOM     19  C23 <0> d          -0.482  -5.019  -3.516  0.00  0.00     0.180 C 
ENDBRANCH   7   8
ENDBRANCH   1   7
BRANCH   4  20
ATOM     20  N4  <0> d           3.584   2.123  -0.019  0.00  0.00    -0.327 N 
ATOM     21  C13 <0> d           4.699   1.561  -0.525  0.00  0.00     0.227 C 
ATOM     22  O2  <0> d           4.642   0.472  -1.056  0.00  0.00    -0.273 OA
ATOM     23  H12 <0> d           3.618   3.146   0.384  0.00  0.00     0.169 HD
BRANCH  21  24
ATOM     24  C14 <0> d           6.018   2.284  -0.431  0.00  0.00     0.087 A 
ATOM     25  C16 <0> d           7.247   1.593  -1.023  0.00  0.00     0.032 A 
ATOM     26  C15 <0> d           6.634   2.802  -1.732  0.00  0.00     0.025 A 
BRANCH  25  27
ATOM     27  C17 <0> d           7.047   0.240  -1.657  0.00  0.00    -0.053 A 
ATOM     28  C22 <0> d           7.723  -0.861  -1.164  0.00  0.00     0.007 A 
ATOM     29  C21 <0> d           7.539  -2.102  -1.745  0.00  0.00     0.001 A 
ATOM     30  C20 <0> d           6.679  -2.242  -2.818  0.00  0.00     0.000 A 
ATOM     31  C19 <0> d           6.003  -1.142  -3.310  0.00  0.00     0.001 A 
ATOM     32  C18 <0> d           6.183   0.098  -2.726  0.00  0.00     0.007 A 
ENDBRANCH  25  27
ENDBRANCH  21  24
ENDBRANCH   4  20
TORSDOF 5
