REMARK  3 active torsions:
REMARK  status: ('A' for Active; 'I' for Inactive)
REMARK    1  A    between atoms: C9_10  and  N2_11 
REMARK    2  A    between atoms: N2_11  and  N3_12 
REMARK    3  A    between atoms: C10_13  and  C12_18 
ROOT
ATOM      1  N3  <0> d           0.262  -5.437   0.073  0.00  0.00    -0.211 N 
ATOM      2  C10 <0> d           0.601  -6.868   0.186  0.00  0.00     0.289 A 
ATOM      3  N4  <0> d          -0.708  -7.535   0.268  0.00  0.00    -0.182 NA
ATOM      4  N5  <0> d          -1.584  -6.667   0.213  0.00  0.00    -0.254 N 
ATOM      5  C11 <0> d          -1.089  -5.406   0.103  0.00  0.00     0.213 A 
ATOM      6  S1  <0> d          -2.038  -3.984   0.011  0.00  0.00    -0.037 SA
ATOM      7  H14 <0> d          -2.533  -6.866   0.248  0.00  0.00     0.191 HD
ENDROOT
BRANCH   1   8
ATOM      8  N2  <0> d           1.143  -4.353  -0.035  0.00  0.00    -0.179 NA
BRANCH   8   9
ATOM      9  C9  <0> d           0.674  -3.145  -0.236  0.00  0.00     0.148 C 
ATOM     10  C6  <0> d           1.545  -2.049  -0.243  0.00  0.00    -0.009 A 
ATOM     11  C5  <0> d           3.044  -2.070  -0.038  0.00  0.00     0.161 A 
ATOM     12  C7  <0> d           1.213  -0.710  -0.441  0.00  0.00    -0.000 A 
ATOM     13  N1  <0> d           3.486  -0.675  -0.138  0.00  0.00    -0.385 N 
ATOM     14  C4  <0> d           2.443   0.096  -0.367  0.00  0.00     0.039 A 
ATOM     15  H13 <0> d           4.402  -0.369  -0.050  0.00  0.00     0.160 HD
ATOM     16  C3  <0> d           2.335   1.501  -0.543  0.00  0.00     0.030 A 
ATOM     17  C2  <0> d           1.122   2.059  -0.771  0.00  0.00     0.002 A 
ATOM     18  C1  <0> d          -0.043   1.290  -0.841  0.00  0.00     0.001 A 
ATOM     19  C8  <0> d          -0.016  -0.057  -0.683  0.00  0.00     0.014 A 
ENDBRANCH   8   9
ENDBRANCH   1   8
BRANCH   2  20
ATOM     20  C12 <0> d           1.407  -7.124   1.434  0.00  0.00     0.007 A 
ATOM     21  C16 <0> d           2.238  -6.144   1.943  0.00  0.00     0.127 A 
ATOM     22  N6  <0> d           2.941  -6.358   3.038  0.00  0.00    -0.272 NA
ATOM     23  C15 <0> d           2.892  -7.509   3.679  0.00  0.00     0.116 A 
ATOM     24  C14 <0> d           2.088  -8.538   3.226  0.00  0.00     0.020 A 
ATOM     25  C13 <0> d           1.329  -8.347   2.082  0.00  0.00     0.014 A 
ENDBRANCH   2  20
TORSDOF 3
