REMARK  9 active torsions:
REMARK  status: ('A' for Active; 'I' for Inactive)
REMARK    1  A    between atoms: C2_2  and  C3_3 
REMARK    2  A    between atoms: C3_3  and  N1_4 
REMARK    3  A    between atoms: C4_5  and  C16_23 
REMARK    4  A    between atoms: C5_8  and  S1_9 
REMARK    5  A    between atoms: S1_9  and  C6_10 
REMARK    6  A    between atoms: C6_10  and  C7_11 
REMARK       I    between atoms: C7_11  and  N4_13 
REMARK    7  A    between atoms: N4_13  and  C8_14 
REMARK    8  A    between atoms: C8_14  and  C9_15 
REMARK    9  A    between atoms: C9_15  and  C10_16 
ROOT
ATOM      1  N1  <0> d           1.950   4.514  -0.497  0.00  0.00    -0.307 N 
ATOM      2  C4  <0> d           1.461   3.524   0.310  0.00  0.00     0.136 A 
ATOM      3  N2  <0> d           1.018   4.093   1.395  0.00  0.00    -0.134 NA
ATOM      4  N3  <0> d           1.199   5.363   1.334  0.00  0.00    -0.123 NA
ATOM      5  C5  <0> d           1.764   5.678   0.192  0.00  0.00     0.192 A 
ENDROOT
BRANCH   5   6
ATOM      6  S1  <0> d           2.202   7.297  -0.350  0.00  0.00    -0.081 SA
BRANCH   6   7
ATOM      7  C6  <0> d           1.652   8.265   1.077  0.00  0.00     0.185 C 
BRANCH   7   8
ATOM      8  C7  <0> d           1.933   9.725   0.833  0.00  0.00     0.227 C 
ATOM      9  O1  <0> d           2.454  10.077  -0.205  0.00  0.00    -0.273 OA
ATOM     10  N4  <0> d           1.606  10.640   1.766  0.00  0.00    -0.360 N 
ATOM     11  H9  <0> d           1.134  10.321   2.707  0.00  0.00     0.162 HD
BRANCH  10  12
ATOM     12  C8  <0> d           1.880  12.060   1.528  0.00  0.00     0.127 C 
BRANCH  12  13
ATOM     13  C9  <0> d           1.415  12.878   2.735  0.00  0.00     0.058 C 
BRANCH  13  14
ATOM     14  C10 <0> d           1.697  14.338   2.490  0.00  0.00    -0.055 A 
ATOM     15  C15 <0> d           2.904  14.884   2.883  0.00  0.00     0.031 A 
ATOM     16  C14 <0> d           3.164  16.224   2.654  0.00  0.00     0.034 A 
ATOM     17  C13 <0> d           2.212  17.018   2.041  0.00  0.00     0.024 A 
ATOM     18 Cl1  <0> d           4.682  16.909   3.142  0.00  0.00    -0.084 Cl
ATOM     19  C12 <0> d           1.002  16.472   1.653  0.00  0.00     0.002 A 
ATOM     20  C11 <0> d           0.745  15.132   1.877  0.00  0.00     0.007 A 
ENDBRANCH  13  14
ENDBRANCH  12  13
ENDBRANCH  10  12
ENDBRANCH   7   8
ENDBRANCH   6   7
ENDBRANCH   5   6
BRANCH   1  21
ATOM     21  C3  <0> d           2.546   4.358  -1.826  0.00  0.00     0.159 C 
BRANCH  21  22
ATOM     22  C2  <0> d           1.469   4.452  -2.875  0.00  0.00    -0.017 C 
ATOM     23  C1  <0> d           1.575   5.324  -3.847  0.00  0.00     0.008 C 
ENDBRANCH  21  22
ENDBRANCH   1  21
BRANCH   2  24
ATOM     24  C16 <0> d           1.435   2.050  -0.001  0.00  0.00     0.072 C 
ATOM     25  C19 <0> d           2.263   1.286   1.061  0.00  0.00     0.152 C 
ATOM     26  S2  <0> d           1.390  -0.329   1.169  0.00  0.00     0.145 S 
ATOM     27  C18 <0> d           0.002  -0.004   0.002  0.00  0.00     0.141 C 
ATOM     28  O2  <0> d           0.865  -0.484   2.480  0.00  0.00    -0.228 OA
ATOM     29  O3  <0> d           2.224  -1.343   0.625  0.00  0.00    -0.228 OA
ATOM     30  C17 <0> d          -0.019   1.551   0.011  0.00  0.00     0.028 C 
ENDBRANCH   2  24
TORSDOF 9
