REMARK  4 active torsions:
REMARK  status: ('A' for Active; 'I' for Inactive)
REMARK    1  A    between atoms: O1_2  and  C2_3 
REMARK    2  A    between atoms: C5_6  and  O3_29 
REMARK    3  A    between atoms: C7_9  and  C10_12 
REMARK       I    between atoms: C10_12  and  N2_14 
REMARK    4  A    between atoms: C13_17  and  C16_20 
ROOT
ATOM      1  C10 <0> d          -0.633  -5.102   1.071  0.00  0.00     0.246 C 
ATOM      2  O2  <0> d          -1.526  -5.281   1.873  0.00  0.00    -0.271 OA
ATOM      3  N2  <0> d           0.611  -5.548   1.336  0.00  0.00    -0.350 N 
ATOM      4  C11 <0> d           1.703  -5.333   0.378  0.00  0.00     0.126 C 
ATOM      5  C12 <0> d           2.868  -4.651   1.102  0.00  0.00     0.028 C 
ATOM      6  C13 <0> d           3.260  -5.482   2.326  0.00  0.00     0.035 C 
ATOM      7  C14 <0> d           2.073  -5.565   3.289  0.00  0.00     0.028 C 
ATOM      8  C15 <0> d           0.901  -6.252   2.592  0.00  0.00     0.126 C 
ENDROOT
BRANCH   1   9
ATOM      9  C7  <0> d          -0.915  -4.381  -0.222  0.00  0.00     0.198 A 
ATOM     10  N1  <0> d          -2.329  -3.993  -0.287  0.00  0.00    -0.371 N 
ATOM     11  C6  <0> d          -2.398  -2.687  -0.374  0.00  0.00     0.075 A 
ATOM     12  H26 <0> d          -3.085  -4.601  -0.269  0.00  0.00     0.161 HD
ATOM     13  C5  <0> d          -3.538  -1.767  -0.465  0.00  0.00     0.095 A 
ATOM     14  C9  <0> d          -1.039  -2.099  -0.379  0.00  0.00     0.025 A 
ATOM     15  C4  <0> d          -3.320  -0.431  -0.545  0.00  0.00     0.042 A 
ATOM     16  C3  <0> d          -2.038   0.125  -0.545  0.00  0.00     0.040 A 
ATOM     17  C2  <0> d          -0.916  -0.635  -0.465  0.00  0.00     0.080 A 
ATOM     18  C8  <0> d          -0.128  -3.091  -0.284  0.00  0.00     0.024 A 
BRANCH  13  19
ATOM     19  O3  <0> d          -4.809  -2.253  -0.469  0.00  0.00    -0.354 OA
ATOM     20  C22 <0> d          -5.868  -1.299  -0.559  0.00  0.00     0.210 C 
ENDBRANCH  13  19
BRANCH  17  21
ATOM     21  O1  <0> d           0.308  -0.051  -0.468  0.00  0.00    -0.355 OA
ATOM     22  C1  <0> d           0.346   1.375  -0.554  0.00  0.00     0.210 C 
ENDBRANCH  17  21
ENDBRANCH   1   9
BRANCH   6  23
ATOM     23  C16 <0> d           4.445  -4.822   3.032  0.00  0.00     0.234 A 
ATOM     24  N5  <0> d           4.839  -5.598   4.213  0.00  0.00    -0.338 N 
ATOM     25  C17 <0> d           4.652  -4.724   5.291  0.00  0.00     0.121 A 
ATOM     26  C21 <0> d           5.327  -6.952   4.440  0.00  0.00     0.154 A 
ATOM     27  N4  <0> d           4.195  -3.541   4.811  0.00  0.00    -0.265 N 
ATOM     28  C18 <0> d           4.929  -5.139   6.553  0.00  0.00     0.049 A 
ATOM     29  N3  <0> d           4.055  -3.515   3.587  0.00  0.00    -0.189 NA
ATOM     30  H27 <0> d           3.995  -2.782   5.381  0.00  0.00     0.190 HD
ATOM     31  C19 <0> d           5.421  -6.480   6.841  0.00  0.00     0.001 A 
ATOM     32  C20 <0> d           5.623  -7.370   5.865  0.00  0.00    -0.007 A 
ENDBRANCH   6  23
TORSDOF 4
