REMARK  5 active torsions:
REMARK  status: ('A' for Active; 'I' for Inactive)
REMARK    1  A    between atoms: C3_3  and  C4_7 
REMARK       I    between atoms: C4_7  and  N3_9 
REMARK    2  A    between atoms: N3_9  and  N4_10 
REMARK       I    between atoms: N4_10  and  C5_11 
REMARK       I    between atoms: C5_11  and  N5_13 
REMARK    3  A    between atoms: N5_13  and  C6_14 
REMARK    4  A    between atoms: C8_16  and  C13_24 
REMARK    5  A    between atoms: C10_18  and  C12_20 
ROOT
ATOM      1  N4  <0> d           3.351   4.986   0.156  0.00  0.00    -0.248 N 
ATOM      2  C5  <0> d           4.661   5.302   0.151  0.00  0.00     0.339 C 
ATOM      3  O2  <0> d           5.009   6.456   0.309  0.00  0.00    -0.245 OA
ATOM      4  N5  <0> d           5.586   4.338  -0.028  0.00  0.00    -0.308 N 
ATOM      5  H5  <0> d           2.686   5.679   0.285  0.00  0.00     0.192 HD
ATOM      6  H6  <0> d           5.315   3.408  -0.076  0.00  0.00     0.170 HD
ENDROOT
BRANCH   4   7
ATOM      7  C6  <0> d           6.939   4.679  -0.145  0.00  0.00     0.037 A 
ATOM      8  C11 <0> d           7.917   3.822   0.342  0.00  0.00     0.045 A 
ATOM      9  C10 <0> d           9.251   4.162   0.226  0.00  0.00     0.050 A 
ATOM     10  C9  <0> d           9.612   5.354  -0.375  0.00  0.00     0.032 A 
ATOM     11  C8  <0> d           8.640   6.210  -0.861  0.00  0.00     0.050 A 
ATOM     12  C7  <0> d           7.305   5.873  -0.753  0.00  0.00     0.045 A 
BRANCH   9  13
ATOM     13  C12 <0> d          10.313   3.233   0.754  0.00  0.00     0.417 C 
ATOM     14  F1  <0> d           9.708   2.102   1.312  0.00  0.00    -0.166 F 
ATOM     15  F2  <0> d          11.154   2.842  -0.294  0.00  0.00    -0.166 F 
ATOM     16  F3  <0> d          11.064   3.892   1.733  0.00  0.00    -0.166 F 
ENDBRANCH   9  13
BRANCH  11  17
ATOM     17  C13 <0> d           9.039   7.508  -1.514  0.00  0.00     0.417 C 
ATOM     18  F4  <0> d           9.214   7.304  -2.887  0.00  0.00    -0.166 F 
ATOM     19  F5  <0> d           8.035   8.460  -1.308  0.00  0.00    -0.166 F 
ATOM     20  F6  <0> d          10.237   7.964  -0.953  0.00  0.00    -0.166 F 
ENDBRANCH  11  17
ENDBRANCH   4   7
BRANCH   1  21
ATOM     21  N3  <0> d           2.951   3.655  -0.025  0.00  0.00    -0.261 N 
ATOM     22  C4  <0> d           1.641   3.339  -0.020  0.00  0.00     0.280 C 
ATOM     23  O1  <0> d           0.806   4.209   0.142  0.00  0.00    -0.265 OA
ATOM     24  H4  <0> d           3.617   2.962  -0.154  0.00  0.00     0.190 HD
BRANCH  22  25
ATOM     25  C3  <0> d           1.220   1.942  -0.211  0.00  0.00     0.120 A 
ATOM     26  C2  <0> d          -0.055   1.389  -0.243  0.00  0.00     0.077 A 
ATOM     27  C1  <0> d          -1.313   2.202  -0.078  0.00  0.00     0.074 C 
ATOM     28  N2  <0> d          -0.057   0.092  -0.435  0.00  0.00    -0.146 NA
ATOM     29  N1  <0> d           1.028  -0.579  -0.577  0.00  0.00    -0.110 NA
ATOM     30  S1  <0> d           2.202   0.474  -0.468  0.00  0.00     0.042 SA
ENDBRANCH  22  25
ENDBRANCH   1  21
TORSDOF 5
