REMARK  4 active torsions:
REMARK  status: ('A' for Active; 'I' for Inactive)
REMARK    1  A    between atoms: C5_6  and  C6_7 
REMARK       I    between atoms: C6_7  and  N2_9 
REMARK    2  A    between atoms: C8_11  and  C15_19 
REMARK       I    between atoms: C15_19  and  N4_21 
REMARK    3  A    between atoms: N4_21  and  C16_22 
REMARK    4  A    between atoms: C16_22  and  C17_23 
ROOT
ATOM      1  C6  <0> d          -0.176  -0.368   2.552  0.00  0.00     0.270 C 
ATOM      2  O1  <0> d          -0.133  -1.178   3.459  0.00  0.00    -0.266 OA
ATOM      3  N2  <0> d          -0.391   0.935   2.821  0.00  0.00    -0.345 N 
ATOM      4  C7  <0> d          -0.617   2.037   1.855  0.00  0.00     0.141 C 
ATOM      5  C8  <0> d          -1.706   2.914   2.512  0.00  0.00     0.106 C 
ATOM      6  C9  <0> d          -1.594   2.618   4.017  0.00  0.00    -0.007 C 
ATOM      7  C10 <0> d          -0.462   1.589   4.149  0.00  0.00     0.136 C 
ATOM      8  C11 <0> d          -2.900   2.026   4.538  0.00  0.00     0.039 C 
ATOM      9  C12 <0> d          -2.784   1.793   6.047  0.00  0.00     0.233 C 
ATOM     10  N3  <0> d          -2.497   3.066   6.720  0.00  0.00    -0.075 N 
ATOM     11  C13 <0> d          -1.195   3.583   6.281  0.00  0.00     0.233 C 
ATOM     12  C14 <0> d          -1.244   3.891   4.782  0.00  0.00     0.039 C 
ATOM     13  H17 <0> d          -3.217   3.735   6.491  0.00  0.00     0.277 HD
ATOM     14  H33 <0> d          -2.481   2.922   7.718  0.00  0.00     0.277 HD
ENDROOT
BRANCH   5  15
ATOM     15  C15 <0> d          -1.439   4.372   2.241  0.00  0.00     0.224 C 
ATOM     16  O2  <0> d          -0.298   4.776   2.164  0.00  0.00    -0.273 OA
ATOM     17  N4  <0> d          -2.469   5.227   2.083  0.00  0.00    -0.358 N 
ATOM     18  H22 <0> d          -3.381   4.904   2.144  0.00  0.00     0.162 HD
BRANCH  17  19
ATOM     19  C16 <0> d          -2.210   6.645   1.819  0.00  0.00     0.159 C 
BRANCH  19  20
ATOM     20  C17 <0> d          -3.539   7.390   1.682  0.00  0.00     0.172 C 
ATOM     21  O3  <0> d          -4.288   6.827   0.605  0.00  0.00    -0.379 OA
ATOM     22  C25 <0> d          -5.468   7.572   0.289  0.00  0.00     0.173 C 
ATOM     23  C24 <0> d          -5.045   8.889  -0.365  0.00  0.00     0.065 C 
ATOM     24  C23 <0> d          -3.977   9.552   0.467  0.00  0.00    -0.047 A 
ATOM     25  C18 <0> d          -3.269   8.848   1.419  0.00  0.00    -0.021 A 
ATOM     26  C22 <0> d          -3.706  10.895   0.257  0.00  0.00     0.008 A 
ATOM     27  C19 <0> d          -2.284   9.487   2.156  0.00  0.00     0.010 A 
ATOM     28  C20 <0> d          -2.013  10.824   1.945  0.00  0.00     0.001 A 
ATOM     29  C21 <0> d          -2.726  11.530   0.994  0.00  0.00     0.001 A 
ENDBRANCH  19  20
ENDBRANCH  17  19
ENDBRANCH   5  15
BRANCH   1  30
ATOM     30  C5  <0> d           0.006  -0.810   1.165  0.00  0.00     0.102 A 
ATOM     31  N1  <0> d           0.081  -2.114   0.730  0.00  0.00    -0.357 N 
ATOM     32  C1  <0> d          -0.010  -3.305   1.579  0.00  0.00     0.156 C 
ATOM     33  C2  <0> d           0.246  -2.113  -0.615  0.00  0.00     0.091 A 
ATOM     34  C3  <0> d           0.285  -0.831  -1.051  0.00  0.00     0.020 A 
ATOM     35  C4  <0> d           0.138   0.004   0.061  0.00  0.00     0.037 A 
ENDBRANCH   1  30
TORSDOF 4
