REMARK  2 active torsions:
REMARK  status: ('A' for Active; 'I' for Inactive)
REMARK    1  A    between atoms: C6_6  and  N1_8 
REMARK    2  A    between atoms: C10_12  and  C11_13 
ROOT
ATOM      1  N1  <0> d           2.426   7.809  -0.294  0.00  0.00    -0.229 N 
ATOM      2  C8  <0> d           2.629   6.617  -0.892  0.00  0.00     0.272 A 
ATOM      3  O1  <0> d           3.647   6.399  -1.523  0.00  0.00    -0.266 OA
ATOM      4  C9  <0> d           1.586   5.585  -0.760  0.00  0.00     0.102 A 
ATOM      5  C10 <0> d           1.726   4.333  -1.349  0.00  0.00     0.041 C 
ATOM      6  C15 <0> d           0.386   5.940   0.017  0.00  0.00     0.265 A 
ATOM      7  O2  <0> d          -0.520   5.142   0.165  0.00  0.00    -0.267 OA
ATOM      8  N2  <0> d           0.321   7.171   0.564  0.00  0.00    -0.274 N 
ATOM      9  C16 <0> d           1.310   8.062   0.403  0.00  0.00     0.337 A 
ATOM     10  O3  <0> d           1.188   9.156   0.918  0.00  0.00    -0.246 OA
ATOM     11  H11 <0> d          -0.461   7.419   1.082  0.00  0.00     0.173 HD
ENDROOT
BRANCH   1  12
ATOM     12  C6  <0> d           3.405   8.806  -0.405  0.00  0.00     0.048 A 
ATOM     13  C5  <0> d           3.365   9.705  -1.462  0.00  0.00     0.037 A 
ATOM     14  C4  <0> d           4.331  10.687  -1.569  0.00  0.00    -0.059 A 
ATOM     15  C3  <0> d           5.337  10.774  -0.625  0.00  0.00     0.013 A 
ATOM     16  C17 <0> d           4.288  11.663  -2.716  0.00  0.00     0.048 C 
ATOM     17  C2  <0> d           5.379   9.880   0.429  0.00  0.00    -0.059 A 
ATOM     18  C1  <0> d           6.478   9.979   1.457  0.00  0.00     0.048 C 
ATOM     19  C7  <0> d           4.413   8.900   0.545  0.00  0.00     0.037 A 
ENDBRANCH   1  12
BRANCH   5  20
ATOM     20  C11 <0> d           0.818   3.308  -1.041  0.00  0.00     0.005 A 
ATOM     21  S1  <0> d           0.150   2.835   0.545  0.00  0.00    -0.102 SA
ATOM     22  C14 <0> d          -0.857   1.525   0.023  0.00  0.00     0.050 A 
ATOM     23  C13 <0> d          -0.649   1.486  -1.323  0.00  0.00     0.008 A 
ATOM     24  C12 <0> d           0.203   2.390  -1.895  0.00  0.00     0.019 A 
ENDBRANCH   5  20
TORSDOF 2
