REMARK  4 active torsions:
REMARK  status: ('A' for Active; 'I' for Inactive)
REMARK    1  A    between atoms: C7_13  and  C15_27 
REMARK    2  A    between atoms: N4_14  and  C9_17 
REMARK    3  A    between atoms: C12_20  and  S1_23 
REMARK    4  A    between atoms: S1_23  and  N6_26 
ROOT
ATOM      1  C1  <0> d          -6.172  -5.009  -0.679  0.00  0.00     0.163 C 
ATOM      2  N1  <0> d          -6.069  -3.556  -0.517  0.00  0.00    -0.286 N 
ATOM      3  C2  <0> d          -4.826  -2.963  -0.355  0.00  0.00     0.186 A 
ATOM      4  C3  <0> d          -4.758  -1.579  -0.202  0.00  0.00     0.171 A 
ATOM      5  C4  <0> d          -5.945  -0.829  -0.216  0.00  0.00     0.281 A 
ATOM      6  O1  <0> d          -5.910   0.382  -0.084  0.00  0.00    -0.265 OA
ATOM      7  N2  <0> d          -7.125  -1.463  -0.378  0.00  0.00    -0.273 N 
ATOM      8  H1  <0> d          -8.062  -0.886  -0.391  0.00  0.00     0.173 HD
ATOM      9  C5  <0> d          -7.181  -2.798  -0.525  0.00  0.00     0.330 A 
ATOM     10  O2  <0> d          -8.263  -3.333  -0.668  0.00  0.00    -0.246 OA
ATOM     11  N3  <0> d          -3.413  -1.268  -0.062  0.00  0.00    -0.144 N 
ATOM     12  C6  <0> d          -2.506  -0.242   0.119  0.00  0.00     0.147 A 
ATOM     13  C7  <0> d          -1.272  -0.773   0.161  0.00  0.00     0.084 A 
ATOM     14  N4  <0> d          -1.392  -2.148  -0.001  0.00  0.00    -0.143 N 
ATOM     15  C8  <0> d          -2.727  -2.439  -0.132  0.00  0.00     0.721 A 
ATOM     16  N5  <0> d          -3.583  -3.435  -0.306  0.00  0.00    -0.043 NA
ENDROOT
BRANCH  14  17
ATOM     17  C9  <0> d          -0.340  -3.071  -0.024  0.00  0.00     0.057 A 
ATOM     18  C14 <0> d          -0.199  -3.992   1.006  0.00  0.00     0.032 A 
ATOM     19  C13 <0> d           0.840  -4.901   0.981  0.00  0.00     0.027 A 
ATOM     20  C12 <0> d           1.740  -4.896  -0.069  0.00  0.00     0.074 A 
ATOM     21  C11 <0> d           1.603  -3.981  -1.097  0.00  0.00     0.027 A 
ATOM     22  C10 <0> d           0.563  -3.072  -1.080  0.00  0.00     0.032 A 
BRANCH  20  23
ATOM     23  S1  <0> d           3.064  -6.058  -0.098  0.00  0.00     0.239 S 
ATOM     24  O3  <0> d           4.084  -5.491  -0.908  0.00  0.00    -0.206 OA
ATOM     25  O4  <0> d           3.291  -6.448   1.250  0.00  0.00    -0.206 OA
BRANCH  23  26
ATOM     26  N6  <0> d           2.518  -7.403  -0.894  0.00  0.00    -0.225 NA
ATOM     27  H10 <0> d           3.319  -8.156  -0.934  0.00  0.00     0.136 HD
ATOM     28  H11 <0> d           2.223  -7.128  -1.918  0.00  0.00     0.136 HD
ENDBRANCH  23  26
ENDBRANCH  20  23
ENDBRANCH  14  17
BRANCH  13  29
ATOM     29  C15 <0> d          -0.009  -0.025   0.340  0.00  0.00    -0.007 A 
ATOM     30  C20 <0> d           0.038   1.344   0.075  0.00  0.00     0.015 A 
ATOM     31  C19 <0> d           1.219   2.037   0.244  0.00  0.00     0.024 A 
ATOM     32  C18 <0> d           2.357   1.377   0.676  0.00  0.00     0.034 A 
ATOM     33  C17 <0> d           2.316   0.018   0.941  0.00  0.00     0.024 A 
ATOM     34 Cl1  <0> d           3.839   2.255   0.887  0.00  0.00    -0.084 Cl
ATOM     35  C16 <0> d           1.141  -0.685   0.775  0.00  0.00     0.015 A 
ENDBRANCH  13  29
TORSDOF 4
