REMARK  3 active torsions:
REMARK  status: ('A' for Active; 'I' for Inactive)
REMARK    1  A    between atoms: C4_4  and  C7_7 
REMARK    2  A    between atoms: C12_17  and  C13_18 
REMARK    3  A    between atoms: C16_21  and  N4_24 
ROOT
ATOM      1  C7  <0> d           3.696  -0.686  -0.037  0.00  0.00     0.071 A 
ATOM      2  C8  <0> d           4.017  -1.742  -0.821  0.00  0.00     0.024 A 
ATOM      3  C9  <0> d           5.341  -2.123  -0.517  0.00  0.00     0.159 A 
ATOM      4  N1  <0> d           5.798  -1.327   0.405  0.00  0.00    -0.155 NA
ATOM      5  N2  <0> d           4.791  -0.404   0.731  0.00  0.00    -0.275 N 
ATOM      6  H1  <0> d           4.859   0.307   1.388  0.00  0.00     0.189 HD
ATOM      7  N3  <0> d           5.951  -3.211  -1.163  0.00  0.00    -0.310 N 
ATOM      8  C10 <0> d           5.177  -3.999  -1.937  0.00  0.00     0.224 C 
ATOM      9  O1  <0> d           5.713  -4.812  -2.660  0.00  0.00    -0.273 OA
ATOM     10  C11 <0> d           3.679  -3.911  -1.939  0.00  0.00     0.113 C 
ATOM     11  C12 <0> d           3.198  -2.458  -1.864  0.00  0.00     0.037 C 
ATOM     12  H8  <0> d           6.898  -3.390  -1.055  0.00  0.00     0.170 HD
ENDROOT
BRANCH  11  13
ATOM     13  C13 <0> d           3.387  -1.782  -3.223  0.00  0.00    -0.005 C 
ATOM     14  C18 <0> d           2.554  -2.513  -4.278  0.00  0.00     0.007 C 
ATOM     15  C17 <0> d           2.743  -1.836  -5.637  0.00  0.00     0.033 C 
ATOM     16  C16 <0> d           2.288  -0.378  -5.548  0.00  0.00     0.183 C 
ATOM     17  C15 <0> d           3.122   0.353  -4.494  0.00  0.00     0.033 C 
ATOM     18  C14 <0> d           2.932  -0.324  -3.135  0.00  0.00     0.007 C 
BRANCH  16  19
ATOM     19  N4  <0> d           2.470   0.272  -6.853  0.00  0.00    -0.075 N 
ATOM     20  H21 <0> d           3.445   0.239  -7.112  0.00  0.00     0.274 HD
ATOM     21  H22 <0> d           1.921  -0.210  -7.548  0.00  0.00     0.274 HD
ATOM     22  H23 <0> d           2.170   1.234  -6.794  0.00  0.00     0.274 HD
ENDBRANCH  16  19
ENDBRANCH  11  13
BRANCH   1  23
ATOM     23  C4  <0> d           2.403   0.033  -0.021  0.00  0.00    -0.007 A 
ATOM     24  C3  <0> d           2.377   1.428  -0.013  0.00  0.00     0.014 A 
ATOM     25  C2  <0> d           1.168   2.093   0.002  0.00  0.00     0.001 A 
ATOM     26  C1  <0> d          -0.017   1.379   0.010  0.00  0.00     0.000 A 
ATOM     27  C6  <0> d           0.002  -0.004   0.002  0.00  0.00     0.001 A 
ATOM     28  C5  <0> d           1.205  -0.680  -0.013  0.00  0.00     0.014 A 
ENDBRANCH   1  23
TORSDOF 3
