REMARK  4 active torsions:
REMARK  status: ('A' for Active; 'I' for Inactive)
REMARK    1  A    between atoms: C2_2  and  C4_4 
REMARK    2  A    between atoms: C4_4  and  N1_5 
REMARK    3  A    between atoms: N1_5  and  C5_6 
REMARK       I    between atoms: N1_5  and  C8_9 
REMARK    4  A    between atoms: C8_9  and  C9_11 
ROOT
ATOM      1  N1  <0> d           1.995  -0.307  -1.572  0.00  0.00    -0.346 N 
ATOM      2  C8  <0> d           2.344   0.948  -1.918  0.00  0.00     0.251 C 
ATOM      3  O1  <0> d           3.514   1.261  -1.964  0.00  0.00    -0.270 OA
ENDROOT
BRANCH   2   4
ATOM      4  C9  <0> d           1.279   1.962  -2.248  0.00  0.00     0.238 C 
ATOM      5  O2  <0> d           1.846   3.010  -3.040  0.00  0.00    -0.373 OA
ATOM      6  C12 <0> d           0.920   4.051  -3.363  0.00  0.00     0.196 C 
ATOM      7  C11 <0> d           0.358   4.647  -2.070  0.00  0.00     0.258 C 
ATOM      8  N2  <0> d          -0.278   3.584  -1.279  0.00  0.00    -0.070 N 
ATOM      9  C10 <0> d           0.718   2.555  -0.953  0.00  0.00     0.274 C 
ATOM     10  H20 <0> d          -1.028   3.171  -1.813  0.00  0.00     0.277 HD
ATOM     11  H25 <0> d          -0.649   3.976  -0.426  0.00  0.00     0.277 HD
ENDBRANCH   2   4
BRANCH   1  12
ATOM     12  C4  <0> d           0.587  -0.710  -1.602  0.00  0.00     0.130 C 
BRANCH  12  13
ATOM     13  C2  <0> d           0.217  -1.373  -0.274  0.00  0.00    -0.005 C 
ATOM     14  C1  <0> d           0.286  -0.336   0.850  0.00  0.00     0.011 C 
ATOM     15  C3  <0> d          -1.203  -1.935  -0.362  0.00  0.00     0.011 C 
ENDBRANCH  12  13
ENDBRANCH   1  12
BRANCH   1  16
ATOM     16  C5  <0> d           3.023  -1.267  -1.165  0.00  0.00     0.079 C 
ATOM     17  C6  <0> d           4.045  -1.428  -2.292  0.00  0.00     0.032 C 
ATOM     18  C7  <0> d           3.728  -0.756   0.094  0.00  0.00     0.032 C 
ENDBRANCH   1  16
TORSDOF 4
