REMARK  5 active torsions:
REMARK  status: ('A' for Active; 'I' for Inactive)
REMARK    1  A    between atoms: C3_3  and  C5_7 
REMARK    2  A    between atoms: C5_7  and  C6_8 
REMARK    3  A    between atoms: C6_8  and  N2_9 
REMARK    4  A    between atoms: C9_13  and  C14_22 
REMARK    5  A    between atoms: C10_15  and  C13_19 
ROOT
ATOM      1  N2  <0> d           1.415   0.452  -4.457  0.00  0.00    -0.287 N 
ATOM      2  C7  <0> d           1.416  -0.380  -5.549  0.00  0.00     0.234 C 
ATOM      3  O1  <0> d           1.210  -1.575  -5.571  0.00  0.00    -0.272 OA
ATOM      4  C8  <0> d           1.717   0.485  -6.666  0.00  0.00     0.131 C 
ATOM      5  C9  <0> d           1.613   0.512  -8.132  0.00  0.00     0.259 C 
ATOM      6  N3  <0> d           1.727   1.966  -8.484  0.00  0.00    -0.049 N 
ATOM      7  C10 <0> d           1.768   2.740  -7.201  0.00  0.00     0.300 C 
ATOM      8  C11 <0> d           0.981   1.819  -6.244  0.00  0.00     0.135 C 
ATOM      9  C12 <0> d           1.395   1.774  -4.799  0.00  0.00     0.234 C 
ATOM     10  O2  <0> d           1.659   2.718  -4.086  0.00  0.00    -0.272 OA
ATOM     11  H13 <0> d           2.574   2.126  -9.008  0.00  0.00     0.279 HD
ATOM     12  H16 <0> d           0.926   2.249  -9.030  0.00  0.00     0.279 HD
ENDROOT
BRANCH   1  13
ATOM     13  C6  <0> d           1.429  -0.028  -3.072  0.00  0.00     0.140 C 
BRANCH  13  14
ATOM     14  C5  <0> d          -0.008  -0.215  -2.583  0.00  0.00     0.068 C 
BRANCH  14  15
ATOM     15  C3  <0> d           0.006  -0.708  -1.159  0.00  0.00     0.010 A 
ATOM     16  C2  <0> d           0.002  -0.004   0.002  0.00  0.00     0.044 A 
ATOM     17  C1  <0> d          -0.018   1.503   0.010  0.00  0.00     0.071 C 
ATOM     18  N1  <0> d           0.023  -0.699   1.122  0.00  0.00    -0.258 NA
ATOM     19  C4  <0> d           0.036  -2.009   1.111  0.00  0.00     0.166 A 
ATOM     20  S1  <0> d           0.032  -2.379  -0.531  0.00  0.00    -0.085 SA
ENDBRANCH  14  15
ENDBRANCH  13  14
ENDBRANCH   1  13
BRANCH   7  21
ATOM     21  C13 <0> d           3.189   2.941  -6.744  0.00  0.00     0.205 C 
ATOM     22  O3  <0> d           4.112   2.517  -7.418  0.00  0.00    -0.646 OA
ATOM     23  O4  <0> d           3.417   3.529  -5.700  0.00  0.00    -0.646 OA
ENDBRANCH   7  21
BRANCH   5  24
ATOM     24  C14 <0> d           0.283  -0.038  -8.576  0.00  0.00     0.106 A 
ATOM     25  S2  <0> d          -0.051  -1.536  -9.267  0.00  0.00    -0.083 SA
ATOM     26  C16 <0> d          -1.815  -1.332  -9.455  0.00  0.00     0.071 A 
ATOM     27  C15 <0> d          -1.977  -0.080  -8.954  0.00  0.00     0.124 A 
ATOM     28  N4  <0> d          -0.894   0.535  -8.523  0.00  0.00    -0.255 NA
ENDBRANCH   5  24
TORSDOF 5
