REMARK  4 active torsions:
REMARK  status: ('A' for Active; 'I' for Inactive)
REMARK    1  A    between atoms: N1_4  and  C6_8 
REMARK    2  A    between atoms: C6_8  and  C13_16 
REMARK    3  A    between atoms: N2_11  and  C10_13 
REMARK    4  A    between atoms: C13_16  and  N3_17 
ROOT
ATOM      1  C6  <0> d          -3.557  -0.564   1.305  0.00  0.00     0.211 C 
ATOM      2  C7  <0> d          -4.149   0.252   0.133  0.00  0.00     0.075 C 
ATOM      3  C8  <0> d          -5.556   0.636   0.655  0.00  0.00     0.275 C 
ATOM      4  N2  <0> d          -5.323   0.901   2.098  0.00  0.00     0.095 N 
ATOM      5  C9  <0> d          -4.357  -0.126   2.545  0.00  0.00     0.316 C 
ENDROOT
BRANCH   1   6
ATOM      6  N1  <0> d          -2.133  -0.246   1.478  0.00  0.00     0.106 N 
ATOM      7  C3  <0> d          -1.944   1.179   1.784  0.00  0.00     0.310 C 
ATOM      8  C2  <0> d          -0.456   1.454   2.016  0.00  0.00     0.080 C 
ATOM      9  C1  <0> d           0.025   0.666   3.236  0.00  0.00     0.047 C 
ATOM     10  O1  <0> d           0.284   1.046   0.862  0.00  0.00    -0.377 OA
ATOM     11  C14 <0> d          -0.243   2.950   2.256  0.00  0.00     0.047 C 
ATOM     12  C5  <0> d           0.124  -0.337   0.535  0.00  0.00     0.199 C 
ATOM     13  C4  <0> d          -1.359  -0.630   0.289  0.00  0.00     0.299 C 
ENDBRANCH   1   6
BRANCH   1  14
ATOM     14  C13 <0> d          -3.739  -2.063   1.057  0.00  0.00     0.273 C 
BRANCH  14  15
ATOM     15  N3  <0> d          -3.149  -2.818   2.170  0.00  0.00    -0.077 N 
ATOM     16  H23 <0> d          -3.557  -2.509   3.040  0.00  0.00     0.274 HD
ATOM     17  H24 <0> d          -3.333  -3.802   2.044  0.00  0.00     0.274 HD
ATOM     18  H28 <0> d          -2.152  -2.662   2.192  0.00  0.00     0.274 HD
ENDBRANCH  14  15
ENDBRANCH   1  14
BRANCH   4  19
ATOM     19  C10 <0> d          -6.576   0.812   2.860  0.00  0.00     0.223 A 
ATOM     20  C12 <0> d          -6.531   1.192   4.341  0.00  0.00     0.038 A 
ATOM     21  C11 <0> d          -7.209   2.122   3.333  0.00  0.00     0.038 A 
ENDBRANCH   4  19
TORSDOF 4
