REMARK  7 active torsions:
REMARK  status: ('A' for Active; 'I' for Inactive)
REMARK    1  A    between atoms: N1_2  and  C2_3 
REMARK    2  A    between atoms: N1_2  and  C12_19 
REMARK    3  A    between atoms: C2_3  and  C3_4 
REMARK    4  A    between atoms: C3_4  and  N2_5 
REMARK       I    between atoms: N2_5  and  C4_6 
REMARK    5  A    between atoms: C4_6  and  C5_8 
REMARK       I    between atoms: C5_8  and  N3_10 
REMARK    6  A    between atoms: N3_10  and  C6_11 
REMARK    7  A    between atoms: C12_19  and  C13_20 
ROOT
ATOM      1  N2  <0> d          -3.421  -0.652   1.347  0.00  0.00    -0.351 N 
ATOM      2  C4  <0> d          -4.215  -0.423   2.412  0.00  0.00     0.309 C 
ATOM      3  O1  <0> d          -3.789   0.196   3.365  0.00  0.00    -0.262 OA
ATOM      4  H8  <0> d          -3.761  -1.146   0.586  0.00  0.00     0.162 HD
ENDROOT
BRANCH   1   5
ATOM      5  C3  <0> d          -2.043  -0.154   1.341  0.00  0.00     0.150 C 
BRANCH   5   6
ATOM      6  C2  <0> d          -1.365  -0.547   0.027  0.00  0.00     0.254 C 
BRANCH   6   7
ATOM      7  N1  <0> d           0.017  -0.048   0.021  0.00  0.00    -0.070 N 
ATOM      8  C1  <0> d           0.007   1.421   0.029  0.00  0.00     0.270 C 
ATOM      9  H20 <0> d           0.500  -0.386   0.840  0.00  0.00     0.279 HD
BRANCH   7  10
ATOM     10  C12 <0> d           0.705  -0.527  -1.186  0.00  0.00     0.273 C 
BRANCH  10  11
ATOM     11  C13 <0> d           2.154  -0.119  -1.133  0.00  0.00    -0.033 A 
ATOM     12  C18 <0> d           3.087  -0.956  -0.550  0.00  0.00     0.009 A 
ATOM     13  C17 <0> d           4.418  -0.584  -0.505  0.00  0.00     0.001 A 
ATOM     14  C16 <0> d           4.814   0.629  -1.035  0.00  0.00     0.000 A 
ATOM     15  C15 <0> d           3.881   1.469  -1.613  0.00  0.00     0.001 A 
ATOM     16  C14 <0> d           2.551   1.095  -1.662  0.00  0.00     0.009 A 
ENDBRANCH  10  11
ENDBRANCH   7  10
ENDBRANCH   6   7
ENDBRANCH   5   6
ENDBRANCH   1   5
BRANCH   2  17
ATOM     17  C5  <0> d          -5.620  -0.930   2.418  0.00  0.00     0.314 C 
ATOM     18  O2  <0> d          -6.046  -1.548   1.465  0.00  0.00    -0.262 OA
ATOM     19  N3  <0> d          -6.414  -0.701   3.483  0.00  0.00    -0.317 N 
ATOM     20  H9  <0> d          -6.055  -0.264   4.271  0.00  0.00     0.169 HD
BRANCH  19  21
ATOM     21  C6  <0> d          -7.755  -1.092   3.451  0.00  0.00     0.058 A 
ATOM     22  C11 <0> d          -8.720  -0.326   4.095  0.00  0.00     0.082 A 
ATOM     23  C10 <0> d         -10.047  -0.714   4.056  0.00  0.00     0.058 A 
ATOM     24 Cl1  <0> d          -8.261   1.118   4.941  0.00  0.00    -0.080 Cl
ATOM     25  C9  <0> d         -10.412  -1.869   3.387  0.00  0.00     0.026 A 
ATOM     26 Cl2  <0> d         -11.255   0.245   4.853  0.00  0.00    -0.082 Cl
ATOM     27  C8  <0> d          -9.453  -2.635   2.750  0.00  0.00     0.004 A 
ATOM     28  C7  <0> d          -8.127  -2.251   2.780  0.00  0.00     0.031 A 
ENDBRANCH  19  21
ENDBRANCH   2  17
TORSDOF 7
