REMARK  7 active torsions:
REMARK  status: ('A' for Active; 'I' for Inactive)
REMARK    1  A    between atoms: C2_2  and  N1_4 
REMARK       I    between atoms: N1_4  and  C4_5 
REMARK    2  A    between atoms: C4_5  and  C5_7 
REMARK    3  A    between atoms: C5_7  and  N2_8 
REMARK    4  A    between atoms: N2_8  and  C7_10 
REMARK    5  A    between atoms: C7_10  and  C8_11 
REMARK       I    between atoms: C8_11  and  N3_13 
REMARK    6  A    between atoms: N3_13  and  C9_14 
REMARK    7  A    between atoms: C12_17  and  N4_21 
ROOT
ATOM      1  C8  <0> d          -5.955  -1.535  -3.885  0.00  0.00     0.248 C 
ATOM      2  O2  <0> d          -5.244  -1.198  -4.808  0.00  0.00    -0.271 OA
ATOM      3  N3  <0> d          -7.244  -1.858  -4.111  0.00  0.00    -0.324 N 
ATOM      4  H16 <0> d          -7.791  -2.204  -3.389  0.00  0.00     0.169 HD
ENDROOT
BRANCH   1   5
ATOM      5  C7  <0> d          -5.399  -1.593  -2.486  0.00  0.00     0.337 C 
BRANCH   5   6
ATOM      6  N2  <0> d          -3.984  -1.197  -2.506  0.00  0.00    -0.058 N 
ATOM      7  C6  <0> d          -3.211  -2.183  -3.273  0.00  0.00     0.270 C 
ATOM      8  H22 <0> d          -3.894  -0.290  -2.938  0.00  0.00     0.280 HD
BRANCH   6   9
ATOM      9  C5  <0> d          -3.473  -1.137  -1.130  0.00  0.00     0.337 C 
BRANCH   9  10
ATOM     10  C4  <0> d          -2.060  -0.614  -1.141  0.00  0.00     0.243 C 
ATOM     11  N1  <0> d          -1.384  -0.473   0.017  0.00  0.00    -0.356 N 
ATOM     12  H8  <0> d          -1.808  -0.708   0.857  0.00  0.00     0.162 HD
ATOM     13  O1  <0> d          -1.530  -0.320  -2.192  0.00  0.00    -0.272 OA
BRANCH  11  14
ATOM     14  C2  <0> d          -0.011   0.036   0.006  0.00  0.00     0.076 C 
ATOM     15  C1  <0> d          -0.033   1.566   0.003  0.00  0.00     0.032 C 
ATOM     16  C3  <0> d           0.727  -0.461   1.251  0.00  0.00     0.032 C 
ENDBRANCH  11  14
ENDBRANCH   9  10
ENDBRANCH   6   9
ENDBRANCH   5   6
ENDBRANCH   1   5
BRANCH   3  17
ATOM     17  C9  <0> d          -7.794  -1.694  -5.391  0.00  0.00     0.056 A 
ATOM     18  C14 <0> d          -8.882  -2.464  -5.783  0.00  0.00     0.062 A 
ATOM     19  C13 <0> d          -9.427  -2.299  -7.042  0.00  0.00     0.055 A 
ATOM     20 Cl1  <0> d          -9.561  -3.629  -4.689  0.00  0.00    -0.082 Cl
ATOM     21  C12 <0> d          -8.880  -1.371  -7.918  0.00  0.00     0.027 A 
ATOM     22  C11 <0> d          -7.789  -0.606  -7.527  0.00  0.00     0.031 A 
ATOM     23  C10 <0> d          -7.248  -0.767  -6.268  0.00  0.00     0.033 A 
BRANCH  21  24
ATOM     24  N4  <0> d          -9.429  -1.206  -9.194  0.00  0.00    -0.399 N 
ATOM     25  H20 <0> d          -9.047  -0.558  -9.806  0.00  0.00     0.156 HD
ATOM     26  H21 <0> d         -10.191  -1.740  -9.467  0.00  0.00     0.156 HD
ENDBRANCH  21  24
ENDBRANCH   3  17
TORSDOF 7
