REMARK  7 active torsions:
REMARK  status: ('A' for Active; 'I' for Inactive)
REMARK    1  A    between atoms: C2_2  and  O1_3 
REMARK    2  A    between atoms: O1_3  and  C3_4 
REMARK    3  A    between atoms: C6_7  and  C9_10 
REMARK    4  A    between atoms: C9_10  and  N1_11 
REMARK       I    between atoms: N1_11  and  C10_12 
REMARK    5  A    between atoms: C10_12  and  C11_14 
REMARK    6  A    between atoms: C17_23  and  S1_26 
REMARK    7  A    between atoms: S1_26  and  N3_29 
ROOT
ATOM      1  C11 <0> d           3.995  -8.282   0.584  0.00  0.00     0.049 A 
ATOM      2  C12 <0> d           4.334  -9.605   0.588  0.00  0.00     0.092 A 
ATOM      3  C13 <0> d           5.622 -10.018   0.035  0.00  0.00     0.246 A 
ATOM      4  O3  <0> d           5.925 -11.198   0.037  0.00  0.00    -0.268 OA
ATOM      5  N2  <0> d           6.476  -9.116  -0.478  0.00  0.00    -0.323 N 
ATOM      6  H1  <0> d           7.325  -9.417  -0.839  0.00  0.00     0.169 HD
ATOM      7  C14 <0> d           6.171  -7.772  -0.500  0.00  0.00     0.046 A 
ATOM      8  C15 <0> d           4.944  -7.315   0.013  0.00  0.00     0.008 A 
ATOM      9  C16 <0> d           4.641  -5.951  -0.019  0.00  0.00     0.040 A 
ATOM     10  C17 <0> d           5.536  -5.068  -0.554  0.00  0.00     0.080 A 
ATOM     11  C18 <0> d           6.746  -5.515  -1.068  0.00  0.00     0.027 A 
ATOM     12  C19 <0> d           7.071  -6.853  -1.035  0.00  0.00     0.032 A 
ENDROOT
BRANCH   1  13
ATOM     13  C10 <0> d           2.695  -7.832   1.139  0.00  0.00     0.253 C 
ATOM     14  N1  <0> d           1.888  -8.711   1.765  0.00  0.00    -0.353 N 
ATOM     15  H13 <0> d           2.122  -9.652   1.788  0.00  0.00     0.163 HD
ATOM     16  O2  <0> d           2.358  -6.670   1.029  0.00  0.00    -0.268 OA
BRANCH  14  17
ATOM     17  C9  <0> d           0.657  -8.246   2.409  0.00  0.00     0.161 C 
BRANCH  17  18
ATOM     18  C6  <0> d          -0.058  -9.417   3.031  0.00  0.00    -0.040 A 
ATOM     19  C5  <0> d           0.216  -9.778   4.338  0.00  0.00     0.011 A 
ATOM     20  C4  <0> d          -0.439 -10.852   4.910  0.00  0.00     0.037 A 
ATOM     21  C3  <0> d          -1.371 -11.568   4.174  0.00  0.00     0.068 A 
ATOM     22  C8  <0> d          -1.640 -11.207   2.861  0.00  0.00     0.037 A 
ATOM     23  C7  <0> d          -0.987 -10.129   2.295  0.00  0.00     0.011 A 
BRANCH  21  24
ATOM     24  O1  <0> d          -2.016 -12.624   4.735  0.00  0.00    -0.352 OA
BRANCH  24  25
ATOM     25  C2  <0> d          -1.689 -12.938   6.090  0.00  0.00     0.171 C 
ATOM     26  C1  <0> d          -2.509 -14.147   6.545  0.00  0.00     0.034 C 
ENDBRANCH  24  25
ENDBRANCH  21  24
ENDBRANCH  17  18
ENDBRANCH  14  17
ENDBRANCH   1  13
BRANCH  10  27
ATOM     27  S1  <0> d           5.151  -3.349  -0.594  0.00  0.00     0.260 S 
ATOM     28  O4  <0> d           5.923  -2.784  -1.643  0.00  0.00    -0.200 OA
ATOM     29  O5  <0> d           3.734  -3.249  -0.552  0.00  0.00    -0.200 OA
BRANCH  27  30
ATOM     30  N3  <0> d           5.713  -2.689   0.817  0.00  0.00    -0.307 N 
ATOM     31  C23 <0> d           7.058  -2.123   1.024  0.00  0.00     0.135 C 
ATOM     32  C22 <0> d           6.889  -1.125   2.200  0.00  0.00     0.022 C 
ATOM     33  C21 <0> d           5.872  -1.876   3.098  0.00  0.00     0.022 C 
ATOM     34  C20 <0> d           4.956  -2.577   2.072  0.00  0.00     0.135 C 
ENDBRANCH  27  30
ENDBRANCH  10  27
TORSDOF 7
