REMARK  6 active torsions:
REMARK  status: ('A' for Active; 'I' for Inactive)
REMARK    1  A    between atoms: C4_4  and  O1_10 
REMARK    2  A    between atoms: O1_10  and  C9_11 
REMARK    3  A    between atoms: C10_12  and  N5_28 
REMARK    4  A    between atoms: C11_13  and  N3_17 
REMARK    5  A    between atoms: N3_17  and  N4_18 
REMARK       I    between atoms: N4_18  and  C13_19 
REMARK    6  A    between atoms: C13_19  and  C14_21 
ROOT
ATOM      1  C9  <0> d           0.151  -4.100  -2.347  0.00  0.00     0.201 A 
ATOM      2  C10 <0> d           0.270  -4.834  -3.526  0.00  0.00     0.127 A 
ATOM      3  C11 <0> d           0.395  -6.222  -3.430  0.00  0.00     0.174 A 
ATOM      4  N1  <0> d           0.394  -6.787  -2.225  0.00  0.00    -0.221 NA
ATOM      5  C12 <0> d           0.279  -6.055  -1.135  0.00  0.00     0.238 A 
ATOM      6  N2  <0> d           0.165  -4.743  -1.183  0.00  0.00    -0.215 NA
ENDROOT
BRANCH   3   7
ATOM      7  N3  <0> d           0.516  -7.000  -4.574  0.00  0.00    -0.279 N 
ATOM      8  H10 <0> d           0.515  -6.581  -5.449  0.00  0.00     0.189 HD
BRANCH   7   9
ATOM      9  N4  <0> d           0.640  -8.392  -4.465  0.00  0.00    -0.264 N 
ATOM     10  C13 <0> d           0.759  -9.147  -5.575  0.00  0.00     0.270 C 
ATOM     11  O2  <0> d           0.757  -8.621  -6.671  0.00  0.00    -0.266 OA
ATOM     12  H11 <0> d           0.641  -8.811  -3.591  0.00  0.00     0.190 HD
BRANCH  10  13
ATOM     13  C14 <0> d           0.889 -10.614  -5.460  0.00  0.00     0.033 A 
ATOM     14  C19 <0> d           1.012 -11.399  -6.608  0.00  0.00     0.019 A 
ATOM     15  C18 <0> d           1.140 -12.768  -6.494  0.00  0.00     0.025 A 
ATOM     16  C17 <0> d           1.135 -13.365  -5.244  0.00  0.00     0.034 A 
ATOM     17  C16 <0> d           1.008 -12.592  -4.102  0.00  0.00     0.025 A 
ATOM     18 Cl2  <0> d           1.289 -15.088  -5.109  0.00  0.00    -0.084 Cl
ATOM     19  C15 <0> d           0.885 -11.222  -4.203  0.00  0.00     0.019 A 
ENDBRANCH  10  13
ENDBRANCH   7   9
ENDBRANCH   3   7
BRANCH   2  20
ATOM     20  N5  <0> d           0.265  -4.195  -4.776  0.00  0.00    -0.392 N 
ATOM     21  H16 <0> d           0.178  -3.230  -4.827  0.00  0.00     0.156 HD
ATOM     22  H17 <0> d           0.349  -4.718  -5.588  0.00  0.00     0.156 HD
ENDBRANCH   2  20
BRANCH   1  23
ATOM     23  O1  <0> d           0.028  -2.749  -2.385  0.00  0.00    -0.290 OA
BRANCH  23  24
ATOM     24  C4  <0> d           0.022  -2.075  -1.205  0.00  0.00     0.079 A 
ATOM     25  C3  <0> d           1.210  -1.866  -0.519  0.00  0.00     0.045 A 
ATOM     26  C2  <0> d           1.203  -1.180   0.679  0.00  0.00    -0.037 A 
ATOM     27  C1  <0> d           2.492  -0.952   1.425  0.00  0.00     0.050 C 
ATOM     28  C7  <0> d           0.011  -0.707   1.199  0.00  0.00     0.046 A 
ATOM     29  C6  <0> d          -1.174  -0.909   0.514  0.00  0.00    -0.037 A 
ATOM     30 Cl1  <0> d           0.003   0.148   2.710  0.00  0.00    -0.083 Cl
ATOM     31  C5  <0> d          -1.171  -1.595  -0.685  0.00  0.00     0.045 A 
ATOM     32  C8  <0> d          -2.470  -0.387   1.079  0.00  0.00     0.050 C 
ENDBRANCH  23  24
ENDBRANCH   1  23
TORSDOF 6
