REMARK  4 active torsions:
REMARK  status: ('A' for Active; 'I' for Inactive)
REMARK    1  A    between atoms: C5_6  and  C8_10 
REMARK    2  A    between atoms: C8_10  and  C9_11 
REMARK    3  A    between atoms: N3_14  and  C12_18 
REMARK    4  A    between atoms: C12_18  and  C13_19 
ROOT
ATOM      1  C9  <0> d           4.295  -3.872  -1.181  0.00  0.00     0.075 A 
ATOM      2  C10 <0> d           4.798  -4.566   0.031  0.00  0.00     0.266 A 
ATOM      3  O1  <0> d           4.542  -4.167   1.151  0.00  0.00    -0.266 OA
ATOM      4  N3  <0> d           5.538  -5.643  -0.172  0.00  0.00    -0.292 N 
ATOM      5  C11 <0> d           5.819  -6.082  -1.416  0.00  0.00     0.149 A 
ATOM      6  S1  <0> d           6.750  -7.443  -1.876  0.00  0.00    -0.052 SA
ATOM      7  S2  <0> d           4.979  -4.908  -2.467  0.00  0.00    -0.055 SA
ENDROOT
BRANCH   1   8
ATOM      8  C8  <0> d           3.534  -2.776  -1.283  0.00  0.00     0.044 C 
BRANCH   8   9
ATOM      9  C5  <0> d           3.071  -2.062  -0.039  0.00  0.00     0.207 A 
ATOM     10  N1  <0> d           3.569  -0.680  -0.036  0.00  0.00    -0.364 N 
ATOM     11  C4  <0> d           2.533   0.108  -0.022  0.00  0.00     0.056 A 
ATOM     12  H12 <0> d           4.499  -0.405  -0.045  0.00  0.00     0.162 HD
ATOM     13  C3  <0> d           2.389   1.570  -0.013  0.00  0.00     0.031 A 
ATOM     14  C6  <0> d           1.290  -0.712  -0.014  0.00  0.00     0.056 A 
ATOM     15  C2  <0> d           1.158   2.118   0.002  0.00  0.00     0.002 A 
ATOM     16  C1  <0> d          -0.016   1.344   0.009  0.00  0.00     0.002 A 
ATOM     17  C7  <0> d           0.002  -0.004   0.002  0.00  0.00     0.031 A 
ATOM     18  N2  <0> d           1.606  -1.974  -0.024  0.00  0.00    -0.364 N 
ATOM     19  H13 <0> d           0.987  -2.721  -0.022  0.00  0.00     0.162 HD
ENDBRANCH   8   9
ENDBRANCH   1   8
BRANCH   4  20
ATOM     20  C12 <0> d           6.067  -6.375   0.981  0.00  0.00     0.198 C 
BRANCH  20  21
ATOM     21  C13 <0> d           5.079  -7.434   1.399  0.00  0.00     0.070 A 
ATOM     22  O2  <0> d           4.086  -7.275   2.288  0.00  0.00    -0.325 OA
ATOM     23  C16 <0> d           3.405  -8.426   2.410  0.00  0.00     0.142 A 
ATOM     24  C15 <0> d           3.968  -9.341   1.600  0.00  0.00     0.027 A 
ATOM     25  C14 <0> d           5.047  -8.701   0.948  0.00  0.00     0.036 A 
ENDBRANCH  20  21
ENDBRANCH   4  20
TORSDOF 4
