REMARK  8 active torsions:
REMARK  status: ('A' for Active; 'I' for Inactive)
REMARK    1  A    between atoms: C2_2  and  C3_3 
REMARK    2  A    between atoms: C3_3  and  C4_4 
REMARK    3  A    between atoms: C4_4  and  C5_5 
REMARK    4  A    between atoms: C8_8  and  N1_11 
REMARK    5  A    between atoms: N1_11  and  C11_12 
REMARK    6  A    between atoms: N2_14  and  N3_15 
REMARK       I    between atoms: N3_15  and  C12_16 
REMARK    7  A    between atoms: C12_16  and  C13_18 
REMARK    8  A    between atoms: C13_18  and  S2_20 
ROOT
ATOM      1  N1  <0> d           3.507  -3.919   5.829  0.00  0.00    -0.332 N 
ATOM      2  H14 <0> d           3.216  -4.734   6.268  0.00  0.00     0.168 HD
ENDROOT
BRANCH   1   3
ATOM      3  C8  <0> d           2.837  -3.462   4.689  0.00  0.00     0.034 A 
ATOM      4  C7  <0> d           3.558  -2.963   3.612  0.00  0.00     0.030 A 
ATOM      5  C6  <0> d           2.894  -2.513   2.488  0.00  0.00     0.009 A 
ATOM      6  C5  <0> d           1.513  -2.558   2.434  0.00  0.00    -0.058 A 
ATOM      7  C10 <0> d           0.792  -3.049   3.507  0.00  0.00     0.009 A 
ATOM      8  C9  <0> d           1.450  -3.506   4.632  0.00  0.00     0.030 A 
BRANCH   6   9
ATOM      9  C4  <0> d           0.792  -2.066   1.206  0.00  0.00     0.038 C 
BRANCH   9  10
ATOM     10  C3  <0> d           0.489  -0.574   1.356  0.00  0.00     0.004 C 
BRANCH  10  11
ATOM     11  C2  <0> d          -0.243  -0.074   0.110  0.00  0.00    -0.004 C 
ATOM     12  C1  <0> d          -0.547   1.418   0.260  0.00  0.00     0.005 C 
ENDBRANCH  10  11
ENDBRANCH   9  10
ENDBRANCH   6   9
ENDBRANCH   1   3
BRANCH   1  13
ATOM     13  C11 <0> d           4.556  -3.228   6.317  0.00  0.00     0.191 C 
ATOM     14  S1  <0> d           4.981  -1.719   5.630  0.00  0.00    -0.039 SA
ATOM     15  N2  <0> d           5.270  -3.725   7.347  0.00  0.00    -0.274 N 
ATOM     16  H15 <0> d           6.025  -3.227   7.698  0.00  0.00     0.189 HD
BRANCH  15  17
ATOM     17  N3  <0> d           4.922  -4.960   7.909  0.00  0.00    -0.267 N 
ATOM     18  C12 <0> d           5.636  -5.457   8.938  0.00  0.00     0.249 C 
ATOM     19  O1  <0> d           6.580  -4.835   9.378  0.00  0.00    -0.271 OA
ATOM     20  H16 <0> d           4.167  -5.457   7.558  0.00  0.00     0.190 HD
BRANCH  18  21
ATOM     21  C13 <0> d           5.262  -6.785   9.543  0.00  0.00     0.136 C 
ATOM     22  C14 <0> d           4.085  -6.596  10.502  0.00  0.00     0.031 C 
BRANCH  21  23
ATOM     23  S2  <0> d           6.681  -7.457  10.453  0.00  0.00    -0.160 SA
ATOM     24  C15 <0> d           6.125  -9.100  10.982  0.00  0.00     0.090 C 
ENDBRANCH  21  23
ENDBRANCH  18  21
ENDBRANCH  15  17
ENDBRANCH   1  13
TORSDOF 8
