REMARK  7 active torsions:
REMARK  status: ('A' for Active; 'I' for Inactive)
REMARK    1  A    between atoms: C2_2  and  N1_3 
REMARK    2  A    between atoms: C3_4  and  C14_23 
REMARK    3  A    between atoms: C4_7  and  S1_8 
REMARK    4  A    between atoms: S1_8  and  C5_9 
REMARK    5  A    between atoms: C5_9  and  C6_10 
REMARK       I    between atoms: C6_10  and  N4_12 
REMARK    6  A    between atoms: N4_12  and  C7_13 
REMARK    7  A    between atoms: C8_14  and  C13_20 
REMARK       I    between atoms: C13_20  and  N5_22 
ROOT
ATOM      1  S1  <0> d          -1.884  -0.179  -2.727  0.00  0.00    -0.081 SA
ENDROOT
BRANCH   1   2
ATOM      2  C4  <0> d          -2.228  -0.622  -1.056  0.00  0.00     0.192 A 
ATOM      3  N1  <0> d          -1.436  -0.368   0.030  0.00  0.00    -0.307 N 
ATOM      4  C3  <0> d          -2.111  -0.889   1.109  0.00  0.00     0.165 A 
ATOM      5  N2  <0> d          -3.223  -1.414   0.651  0.00  0.00    -0.128 NA
ATOM      6  N3  <0> d          -3.290  -1.260  -0.623  0.00  0.00    -0.122 NA
BRANCH   3   7
ATOM      7  C2  <0> d          -0.143   0.320   0.042  0.00  0.00     0.128 C 
ATOM      8  C1  <0> d          -0.356   1.800   0.368  0.00  0.00     0.027 C 
ENDBRANCH   3   7
BRANCH   4   9
ATOM      9  C14 <0> d          -1.666  -0.863   2.519  0.00  0.00     0.026 A 
ATOM     10  C17 <0> d          -2.553  -0.450   3.534  0.00  0.00    -0.030 A 
ATOM     11  C16 <0> d          -2.063  -0.451   4.798  0.00  0.00    -0.010 A 
ATOM     12  C18 <0> d          -3.991  -0.042   3.224  0.00  0.00     0.040 C 
ATOM     13  S3  <0> d          -0.391  -1.020   4.617  0.00  0.00    -0.105 SA
ATOM     14  C22 <0> d          -2.759  -0.051   6.059  0.00  0.00     0.046 C 
ATOM     15  C15 <0> d          -0.394  -1.234   2.844  0.00  0.00     0.066 A 
ATOM     16  C21 <0> d          -4.122  -0.739   6.125  0.00  0.00     0.005 C 
ATOM     17  C20 <0> d          -5.151   0.155   5.441  0.00  0.00     0.001 C 
ATOM     18  C19 <0> d          -4.500   0.920   4.290  0.00  0.00     0.005 C 
ENDBRANCH   4   9
ENDBRANCH   1   2
BRANCH   1  19
ATOM     19  C5  <0> d          -3.317  -0.801  -3.649  0.00  0.00     0.185 C 
BRANCH  19  20
ATOM     20  C6  <0> d          -3.148  -0.484  -5.113  0.00  0.00     0.232 C 
ATOM     21  O1  <0> d          -2.158   0.104  -5.496  0.00  0.00    -0.272 OA
ATOM     22  N4  <0> d          -4.096  -0.853  -5.996  0.00  0.00    -0.320 N 
ATOM     23  H8  <0> d          -4.888  -1.323  -5.690  0.00  0.00     0.169 HD
BRANCH  22  24
ATOM     24  C7  <0> d          -3.941  -0.561  -7.343  0.00  0.00     0.093 A 
ATOM     25  S2  <0> d          -2.664   0.236  -8.085  0.00  0.00    -0.076 SA
ATOM     26  C10 <0> d          -3.214   0.202  -9.777  0.00  0.00    -0.012 A 
ATOM     27  C9  <0> d          -4.398  -0.434  -9.705  0.00  0.00    -0.031 A 
ATOM     28  C11 <0> d          -2.523   0.756 -10.996  0.00  0.00     0.057 C 
ATOM     29  C8  <0> d          -4.808  -0.856  -8.385  0.00  0.00     0.072 A 
ATOM     30  C12 <0> d          -5.245  -0.690 -10.925  0.00  0.00     0.050 C 
BRANCH  29  31
ATOM     31  C13 <0> d          -6.074  -1.559  -8.159  0.00  0.00     0.252 C 
ATOM     32  O2  <0> d          -7.087  -0.928  -7.921  0.00  0.00    -0.268 OA
ATOM     33  N5  <0> d          -6.116  -2.905  -8.214  0.00  0.00    -0.366 N 
ATOM     34  H15 <0> d          -5.309  -3.409  -8.403  0.00  0.00     0.159 HD
ATOM     35  H16 <0> d          -6.954  -3.371  -8.064  0.00  0.00     0.159 HD
ENDBRANCH  29  31
ENDBRANCH  22  24
ENDBRANCH  19  20
ENDBRANCH   1  19
TORSDOF 7
