REMARK  8 active torsions:
REMARK  status: ('A' for Active; 'I' for Inactive)
REMARK    1  A    between atoms: N1_2  and  C2_3 
REMARK    2  A    between atoms: C2_3  and  C3_4 
REMARK    3  A    between atoms: C2_3  and  C11_15 
REMARK    4  A    between atoms: C3_4  and  C4_5 
REMARK    5  A    between atoms: C4_5  and  N2_6 
REMARK    6  A    between atoms: N3_9  and  C9_12 
REMARK    7  A    between atoms: C9_12  and  C10_13 
REMARK    8  A    between atoms: C10_13  and  O1_14 
ROOT
ATOM      1  C2  <0> d           0.750  -0.586  -1.410  0.00  0.00     0.220 C 
ENDROOT
BRANCH   1   2
ATOM      2  N1  <0> d          -0.142  -0.095  -0.351  0.00  0.00    -0.071 N 
ATOM      3  C1  <0> d          -1.539  -0.285  -0.761  0.00  0.00     0.267 C 
ATOM      4  H26 <0> d           0.032   0.887  -0.194  0.00  0.00     0.277 HD
ATOM      5  H27 <0> d           0.032  -0.608   0.500  0.00  0.00     0.277 HD
ENDBRANCH   1   2
BRANCH   1   6
ATOM      6  C3  <0> d           2.201  -0.268  -1.043  0.00  0.00     0.068 C 
BRANCH   6   7
ATOM      7  C4  <0> d           2.403   1.249  -1.030  0.00  0.00     0.275 C 
BRANCH   7   8
ATOM      8  N2  <0> d           3.823   1.552  -0.808  0.00  0.00     0.091 N 
ATOM      9  C8  <0> d           4.097   2.979  -1.025  0.00  0.00     0.302 C 
ATOM     10  C7  <0> d           5.596   3.239  -0.862  0.00  0.00     0.302 C 
ATOM     11  N3  <0> d           6.020   2.822   0.482  0.00  0.00     0.093 N 
ATOM     12  C6  <0> d           5.746   1.395   0.699  0.00  0.00     0.302 C 
ATOM     13  C5  <0> d           4.247   1.135   0.536  0.00  0.00     0.302 C 
BRANCH  11  14
ATOM     14  C9  <0> d           7.440   3.125   0.704  0.00  0.00     0.298 C 
BRANCH  14  15
ATOM     15  C10 <0> d           7.642   4.642   0.717  0.00  0.00     0.194 C 
BRANCH  15  16
ATOM     16  O1  <0> d           6.956   5.205   1.837  0.00  0.00    -0.399 OA
ATOM     17  H21 <0> d           7.040   6.165   1.908  0.00  0.00     0.209 HD
ENDBRANCH  15  16
ENDBRANCH  14  15
ENDBRANCH  11  14
ENDBRANCH   7   8
ENDBRANCH   6   7
ENDBRANCH   1   6
BRANCH   1  18
ATOM     18  C11 <0> d           0.584  -2.077  -1.554  0.00  0.00    -0.026 A 
ATOM     19  C16 <0> d           0.579  -2.653  -2.811  0.00  0.00     0.028 A 
ATOM     20  C15 <0> d           0.432  -4.022  -2.943  0.00  0.00     0.011 A 
ATOM     21  C14 <0> d           0.280  -4.813  -1.818  0.00  0.00     0.019 A 
ATOM     22 Br1  <0> d           0.433  -4.812  -4.661  0.00  0.00    -0.051 Br
ATOM     23  C13 <0> d           0.279  -4.235  -0.562  0.00  0.00     0.002 A 
ATOM     24  C12 <0> d           0.432  -2.868  -0.430  0.00  0.00     0.009 A 
ENDBRANCH   1  18
TORSDOF 8
