REMARK  4 active torsions:
REMARK  status: ('A' for Active; 'I' for Inactive)
REMARK    1  A    between atoms: C3_3  and  C15_21 
REMARK    2  A    between atoms: C4_5  and  N2_7 
REMARK       I    between atoms: N2_7  and  C5_8 
REMARK    3  A    between atoms: C5_8  and  C6_10 
REMARK    4  A    between atoms: C9_13  and  N3_16 
ROOT
ATOM      1  N2  <0> d          -1.156  -0.694   0.009  0.00  0.00    -0.301 N 
ATOM      2  C5  <0> d           0.002  -0.004   0.002  0.00  0.00     0.257 C 
ATOM      3  O1  <0> d           1.063  -0.598  -0.011  0.00  0.00    -0.267 OA
ATOM      4  H4  <0> d          -2.002  -0.220   0.020  0.00  0.00     0.171 HD
ENDROOT
BRANCH   2   5
ATOM      5  C6  <0> d          -0.018   1.472   0.010  0.00  0.00     0.032 A 
ATOM      6  C11 <0> d           1.182   2.189   0.003  0.00  0.00     0.019 A 
ATOM      7  C10 <0> d           1.159   3.566   0.010  0.00  0.00     0.032 A 
ATOM      8  C9  <0> d          -0.056   4.243   0.024  0.00  0.00     0.058 A 
ATOM      9  C8  <0> d          -1.251   3.533   0.032  0.00  0.00     0.032 A 
ATOM     10  C7  <0> d          -1.236   2.156   0.020  0.00  0.00     0.019 A 
BRANCH   8  11
ATOM     11  N3  <0> d          -0.074   5.641   0.032  0.00  0.00    -0.245 N 
ATOM     12  N4  <0> d           1.046   6.481   0.025  0.00  0.00    -0.180 NA
ATOM     13  C14 <0> d           0.628   7.721   0.034  0.00  0.00     0.140 A 
ATOM     14  C13 <0> d          -0.771   7.715   0.048  0.00  0.00     0.040 A 
ATOM     15  C12 <0> d          -1.183   6.426   0.040  0.00  0.00     0.120 A 
ENDBRANCH   8  11
ENDBRANCH   2   5
BRANCH   1  16
ATOM     16  C4  <0> d          -1.137  -2.075   0.002  0.00  0.00     0.174 A 
ATOM     17  S1  <0> d          -2.477  -3.179   0.009  0.00  0.00    -0.046 SA
ATOM     18  C3  <0> d          -1.531  -4.695  -0.010  0.00  0.00     0.078 A 
ATOM     19  C2  <0> d          -0.234  -4.187  -0.020  0.00  0.00     0.054 A 
ATOM     20  C1  <0> d           0.963  -5.103  -0.037  0.00  0.00     0.072 C 
ATOM     21  N1  <0> d          -0.092  -2.889  -0.018  0.00  0.00    -0.228 NA
BRANCH  18  22
ATOM     22  C15 <0> d          -1.974  -6.033  -0.013  0.00  0.00     0.164 C 
ATOM     23  O2  <0> d          -1.166  -6.940  -0.027  0.00  0.00    -0.292 OA
ATOM     24  C16 <0> d          -3.450  -6.338   0.000  0.00  0.00     0.097 C 
ENDBRANCH  18  22
ENDBRANCH   1  16
TORSDOF 4
