REMARK  9 active torsions:
REMARK  status: ('A' for Active; 'I' for Inactive)
REMARK    1  A    between atoms: C2_2  and  C3_3 
REMARK    2  A    between atoms: C3_3  and  N1_4 
REMARK       I    between atoms: N1_4  and  C4_5 
REMARK    3  A    between atoms: C4_5  and  C5_7 
REMARK    4  A    between atoms: C5_7  and  C6_8 
REMARK    5  A    between atoms: C6_8  and  N2_9 
REMARK       I    between atoms: N2_9  and  C7_10 
REMARK       I    between atoms: C7_10  and  N3_12 
REMARK    6  A    between atoms: N3_12  and  C8_13 
REMARK    7  A    between atoms: C8_13  and  C9_14 
REMARK    8  A    between atoms: C9_14  and  C10_15 
REMARK    9  A    between atoms: C9_14  and  N4_20 
ROOT
ATOM      1  N2  <0> d          -3.973  -6.185  -0.077  0.00  0.00    -0.343 N 
ATOM      2  C7  <0> d          -5.123  -6.878  -0.190  0.00  0.00     0.316 C 
ATOM      3  O2  <0> d          -6.166  -6.293  -0.412  0.00  0.00    -0.247 OA
ATOM      4  N3  <0> d          -5.118  -8.219  -0.058  0.00  0.00    -0.341 N 
ATOM      5  H14 <0> d          -3.141  -6.651   0.100  0.00  0.00     0.164 HD
ATOM      6  H15 <0> d          -4.286  -8.685   0.119  0.00  0.00     0.164 HD
ENDROOT
BRANCH   4   7
ATOM      7  C8  <0> d          -6.369  -8.972  -0.181  0.00  0.00     0.163 C 
BRANCH   7   8
ATOM      8  C9  <0> d          -6.069 -10.471  -0.122  0.00  0.00     0.245 C 
BRANCH   8   9
ATOM      9  C10 <0> d          -5.255 -10.868  -1.327  0.00  0.00     0.015 A 
ATOM     10  S1  <0> d          -5.802 -11.194  -2.995  0.00  0.00    -0.104 SA
ATOM     11  C13 <0> d          -4.212 -11.577  -3.711  0.00  0.00     0.050 A 
ATOM     12  C12 <0> d          -3.384 -11.440  -2.645  0.00  0.00     0.008 A 
ATOM     13  C11 <0> d          -3.919 -11.077  -1.424  0.00  0.00     0.017 A 
ENDBRANCH   8   9
BRANCH   8  14
ATOM     14  N4  <0> d          -7.331 -11.223  -0.114  0.00  0.00    -0.061 N 
ATOM     15  C17 <0> d          -8.113 -10.894   1.098  0.00  0.00     0.236 C 
ATOM     16  C16 <0> d          -8.831 -12.184   1.536  0.00  0.00     0.029 C 
ATOM     17  C15 <0> d          -8.383 -13.260   0.521  0.00  0.00     0.029 C 
ATOM     18  C14 <0> d          -7.058 -12.681  -0.036  0.00  0.00     0.236 C 
ATOM     19  H29 <0> d          -7.867 -11.012  -0.942  0.00  0.00     0.280 HD
ENDBRANCH   8  14
ENDBRANCH   7   8
ENDBRANCH   4   7
BRANCH   1  20
ATOM     20  C6  <0> d          -3.979  -4.727  -0.221  0.00  0.00     0.133 C 
BRANCH  20  21
ATOM     21  C5  <0> d          -2.556  -4.192  -0.049  0.00  0.00     0.122 C 
BRANCH  21  22
ATOM     22  C4  <0> d          -2.562  -2.692  -0.198  0.00  0.00     0.219 C 
ATOM     23  N1  <0> d          -1.411  -1.999  -0.084  0.00  0.00    -0.361 N 
ATOM     24  H9  <0> d          -0.579  -2.466   0.093  0.00  0.00     0.162 HD
ATOM     25  O1  <0> d          -3.602  -2.109  -0.419  0.00  0.00    -0.274 OA
BRANCH  23  26
ATOM     26  C3  <0> d          -1.417  -0.541  -0.228  0.00  0.00     0.122 C 
BRANCH  26  27
ATOM     27  C2  <0> d           0.006  -0.006  -0.057  0.00  0.00     0.015 C 
ATOM     28  C1  <0> d           0.000   1.516  -0.207  0.00  0.00     0.006 C 
ENDBRANCH  26  27
ENDBRANCH  23  26
ENDBRANCH  21  22
ENDBRANCH  20  21
ENDBRANCH   1  20
TORSDOF 9
