REMARK  6 active torsions:
REMARK  status: ('A' for Active; 'I' for Inactive)
REMARK    1  A    between atoms: C3_5  and  C5_8 
REMARK    2  A    between atoms: C5_8  and  O1_9 
REMARK    3  A    between atoms: O1_9  and  C6_10 
REMARK    4  A    between atoms: C7_11  and  C12_18 
REMARK    5  A    between atoms: C12_18  and  C13_19 
REMARK    6  A    between atoms: C13_19  and  N4_21 
ROOT
ATOM      1  C6  <0> d           1.407  -4.909   2.829  0.00  0.00     0.097 A 
ATOM      2  C7  <0> d           1.878  -4.544   4.082  0.00  0.00    -0.019 A 
ATOM      3  C8  <0> d           2.343  -5.511   4.952  0.00  0.00     0.034 A 
ATOM      4  C9  <0> d           2.340  -6.843   4.575  0.00  0.00     0.036 A 
ATOM      5  C10 <0> d           1.870  -7.209   3.326  0.00  0.00     0.050 A 
ATOM      6  C11 <0> d           1.399  -6.245   2.454  0.00  0.00     0.069 A 
ATOM      7 Cl1  <0> d           0.804  -6.706   0.890  0.00  0.00    -0.081 Cl
ATOM      8 Cl2  <0> d           2.925  -8.055   5.671  0.00  0.00    -0.084 Cl
ENDROOT
BRANCH   1   9
ATOM      9  O1  <0> d           0.949  -3.959   1.971  0.00  0.00    -0.341 OA
BRANCH   9  10
ATOM     10  C5  <0> d           1.885  -3.430   1.029  0.00  0.00     0.256 C 
BRANCH  10  11
ATOM     11  C3  <0> d           1.239  -2.310   0.255  0.00  0.00     0.154 A 
ATOM     12  N2  <0> d           1.162  -1.060   0.623  0.00  0.00    -0.133 NA
ATOM     13  N1  <0> d           0.546  -0.381  -0.279  0.00  0.00    -0.135 NA
ATOM     14  C2  <0> d           0.201  -1.166  -1.262  0.00  0.00     0.126 A 
ATOM     15  C1  <0> d          -0.539  -0.762  -2.511  0.00  0.00     0.093 C 
ATOM     16  N3  <0> d           0.627  -2.414  -0.950  0.00  0.00    -0.323 N 
ATOM     17  C4  <0> d           0.462  -3.628  -1.752  0.00  0.00     0.159 C 
ENDBRANCH  10  11
ENDBRANCH   9  10
ENDBRANCH   1   9
BRANCH   2  18
ATOM     18  C12 <0> d           1.883  -3.095   4.493  0.00  0.00     0.074 C 
BRANCH  18  19
ATOM     19  C13 <0> d           0.481  -2.691   4.955  0.00  0.00     0.183 C 
ATOM     20  C14 <0> d           0.461  -1.195   5.274  0.00  0.00     0.040 C 
BRANCH  19  21
ATOM     21  N4  <0> d           0.123  -3.454   6.158  0.00  0.00    -0.075 N 
ATOM     22  H17 <0> d           0.788  -3.257   6.891  0.00  0.00     0.274 HD
ATOM     23  H18 <0> d          -0.801  -3.187   6.462  0.00  0.00     0.274 HD
ATOM     24  H19 <0> d           0.137  -4.440   5.947  0.00  0.00     0.274 HD
ENDBRANCH  19  21
ENDBRANCH  18  19
ENDBRANCH   2  18
TORSDOF 6
