REMARK  5 active torsions:
REMARK  status: ('A' for Active; 'I' for Inactive)
REMARK    1  A    between atoms: C11_12  and  C14_18 
REMARK       I    between atoms: C14_18  and  N1_20 
REMARK    2  A    between atoms: N1_20  and  C15_21 
REMARK    3  A    between atoms: C15_21  and  C16_22 
REMARK    4  A    between atoms: C16_22  and  C17_23 
REMARK    5  A    between atoms: C16_22  and  N2_28 
ROOT
ATOM      1  C14 <0> d           5.645  -5.222   2.662  0.00  0.00     0.251 C 
ATOM      2  O4  <0> d           6.719  -4.794   3.036  0.00  0.00    -0.268 OA
ATOM      3  N1  <0> d           5.437  -6.552   2.592  0.00  0.00    -0.354 N 
ATOM      4  H9  <0> d           4.580  -6.893   2.293  0.00  0.00     0.162 HD
ENDROOT
BRANCH   1   5
ATOM      5  C11 <0> d           4.565  -4.283   2.284  0.00  0.00     0.033 A 
ATOM      6  C10 <0> d           3.330  -4.772   1.854  0.00  0.00     0.018 A 
ATOM      7  C9  <0> d           2.328  -3.898   1.502  0.00  0.00     0.018 A 
ATOM      8  C8  <0> d           2.539  -2.514   1.572  0.00  0.00     0.037 A 
ATOM      9  C7  <0> d           1.447  -1.605   1.185  0.00  0.00     0.195 C 
ATOM     10  C13 <0> d           3.772  -2.030   2.006  0.00  0.00     0.079 A 
ATOM     11  C5  <0> d           1.359  -0.206   1.626  0.00  0.00     0.037 A 
ATOM     12  O1  <0> d           0.571  -2.036   0.462  0.00  0.00    -0.287 OA
ATOM     13  C4  <0> d           2.483   0.494   2.064  0.00  0.00     0.078 A 
ATOM     14  C6  <0> d           0.116   0.441   1.602  0.00  0.00     0.017 A 
ATOM     15  C3  <0> d           2.366   1.810   2.464  0.00  0.00     0.025 A 
ATOM     16  S1  <0> d           4.058  -0.294   2.111  0.00  0.00     0.208 S 
ATOM     17  C2  <0> d           1.135   2.440   2.435  0.00  0.00     0.002 A 
ATOM     18  C1  <0> d           0.013   1.754   2.005  0.00  0.00     0.001 A 
ATOM     19  O2  <0> d           4.597  -0.049   3.402  0.00  0.00    -0.217 OA
ATOM     20  O3  <0> d           4.734   0.079   0.918  0.00  0.00    -0.217 OA
ATOM     21  C12 <0> d           4.778  -2.906   2.356  0.00  0.00     0.041 A 
ENDBRANCH   1   5
BRANCH   3  22
ATOM     22  C15 <0> d           6.506  -7.481   2.966  0.00  0.00     0.163 C 
BRANCH  22  23
ATOM     23  C16 <0> d           5.973  -8.915   2.922  0.00  0.00     0.262 C 
BRANCH  23  24
ATOM     24  C17 <0> d           7.048  -9.864   3.384  0.00  0.00     0.085 A 
ATOM     25  O5  <0> d           7.493  -9.994   4.645  0.00  0.00    -0.325 OA
ATOM     26  C20 <0> d           8.450 -10.935   4.688  0.00  0.00     0.142 A 
ATOM     27  C19 <0> d           8.634 -11.411   3.443  0.00  0.00     0.027 A 
ATOM     28  C18 <0> d           7.730 -10.721   2.603  0.00  0.00     0.037 A 
ENDBRANCH  23  24
BRANCH  23  29
ATOM     29  N2  <0> d           4.805  -9.030   3.806  0.00  0.00    -0.059 N 
ATOM     30  C25 <0> d           4.358 -10.428   3.844  0.00  0.00     0.236 C 
ATOM     31  C24 <0> d           3.094 -10.540   4.698  0.00  0.00     0.028 C 
ATOM     32  C23 <0> d           3.401 -10.062   6.120  0.00  0.00     0.003 C 
ATOM     33  C22 <0> d           3.937  -8.629   6.062  0.00  0.00     0.028 C 
ATOM     34  C21 <0> d           5.170  -8.588   5.157  0.00  0.00     0.236 C 
ATOM     35  H25 <0> d           4.060  -8.449   3.454  0.00  0.00     0.280 HD
ENDBRANCH  23  29
ENDBRANCH  22  23
ENDBRANCH   3  22
TORSDOF 5
