REMARK  4 active torsions:
REMARK  status: ('A' for Active; 'I' for Inactive)
REMARK    1  A    between atoms: S1_2  and  C2_3 
REMARK    2  A    between atoms: C2_3  and  C3_4 
REMARK    3  A    between atoms: C3_4  and  C4_5 
REMARK    4  A    between atoms: N1_10  and  C9_13 
ROOT
ATOM      1  C4  <0> d           1.701  -2.297  -2.963  0.00  0.00     0.237 C 
ATOM      2  C5  <0> d           1.882  -3.826  -3.078  0.00  0.00     0.128 A 
ATOM      3  C6  <0> d           1.698  -4.135  -4.590  0.00  0.00     0.147 A 
ATOM      4  C7  <0> d           3.068  -4.609  -5.018  0.00  0.00     0.235 A 
ATOM      5  O1  <0> d           3.371  -4.950  -6.141  0.00  0.00    -0.272 OA
ATOM      6  N1  <0> d           3.893  -4.593  -3.966  0.00  0.00    -0.283 N 
ATOM      7  C8  <0> d           3.329  -4.175  -2.809  0.00  0.00     0.234 A 
ATOM      8  O2  <0> d           3.882  -4.088  -1.734  0.00  0.00    -0.272 OA
ATOM      9  C16 <0> d           1.378  -2.778  -5.228  0.00  0.00     0.279 A 
ATOM     10  N2  <0> d           0.880  -1.919  -4.144  0.00  0.00     0.113 N 
ATOM     11  C17 <0> d           2.591  -2.168  -5.870  0.00  0.00     0.017 A 
ATOM     12  C18 <0> d           3.830  -1.798  -5.398  0.00  0.00     0.012 A 
ATOM     13  C19 <0> d           4.762  -1.245  -6.257  0.00  0.00     0.001 A 
ATOM     14  C20 <0> d           4.447  -1.066  -7.592  0.00  0.00     0.002 A 
ATOM     15  C21 <0> d           3.208  -1.436  -8.070  0.00  0.00     0.030 A 
ATOM     16  C22 <0> d           2.263  -1.993  -7.212  0.00  0.00     0.044 A 
ATOM     17  N3  <0> d           0.962  -2.441  -7.454  0.00  0.00    -0.324 N 
ATOM     18  C23 <0> d           0.374  -2.917  -6.340  0.00  0.00     0.267 A 
ATOM     19  O3  <0> d          -0.747  -3.372  -6.251  0.00  0.00    -0.270 OA
ATOM     20  H24 <0> d          -0.099  -2.097  -3.975  0.00  0.00     0.318 HD
ATOM     21  H29 <0> d           0.532  -2.411  -8.322  0.00  0.00     0.169 HD
ENDROOT
BRANCH   1  22
ATOM     22  C3  <0> d           0.966  -1.944  -1.668  0.00  0.00     0.046 C 
BRANCH  22  23
ATOM     23  C2  <0> d           0.873  -0.423  -1.533  0.00  0.00     0.075 C 
BRANCH  23  24
ATOM     24  S1  <0> d           0.002  -0.004   0.002  0.00  0.00    -0.173 SA
ATOM     25  C1  <0> d          -0.022   1.810   0.012  0.00  0.00     0.089 C 
ENDBRANCH  23  24
ENDBRANCH  22  23
ENDBRANCH   1  22
BRANCH   6  26
ATOM     26  C9  <0> d           5.297  -5.002  -4.053  0.00  0.00     0.096 C 
ATOM     27  C15 <0> d           6.140  -3.878  -3.671  0.00  0.00     0.026 C 
ATOM     28  C14 <0> d           7.643  -4.201  -3.799  0.00  0.00     0.002 C 
ATOM     29  C13 <0> d           8.067  -4.992  -2.591  0.00  0.00     0.000 C 
ATOM     30  C12 <0> d           8.012  -6.512  -2.833  0.00  0.00     0.000 C 
ATOM     31  C11 <0> d           6.758  -6.949  -3.613  0.00  0.00     0.002 C 
ATOM     32  C10 <0> d           5.516  -6.234  -3.152  0.00  0.00     0.026 C 
ENDBRANCH   6  26
TORSDOF 4
