REMARK  4 active torsions:
REMARK  status: ('A' for Active; 'I' for Inactive)
REMARK    1  A    between atoms: C6_7  and  C9_10 
REMARK    2  A    between atoms: C9_10  and  C10_11 
REMARK    3  A    between atoms: N2_14  and  C13_18 
REMARK    4  A    between atoms: C12_15  and  O2_17 
ROOT
ATOM      1  C10 <0> d           0.454  -3.650  -1.472  0.00  0.00     0.209 A 
ATOM      2  C11 <0> d          -0.551  -4.785  -1.513  0.00  0.00     0.257 A 
ATOM      3  O1  <0> d          -1.713  -4.755  -1.169  0.00  0.00    -0.270 OA
ATOM      4  N2  <0> d           0.129  -5.837  -2.017  0.00  0.00    -0.244 N 
ATOM      5  C12 <0> d           1.429  -5.487  -2.290  0.00  0.00     0.249 A 
ATOM      6  N3  <0> d           1.688  -4.247  -2.005  0.00  0.00    -0.235 NA
ENDROOT
BRANCH   1   7
ATOM      7  C9  <0> d           0.665  -3.173  -0.034  0.00  0.00     0.074 C 
BRANCH   7   8
ATOM      8  C6  <0> d           1.609  -1.998  -0.028  0.00  0.00    -0.047 A 
ATOM      9  C5  <0> d           3.121  -2.047  -0.018  0.00  0.00     0.155 A 
ATOM     10  N1  <0> d           3.568  -0.650  -0.017  0.00  0.00    -0.385 N 
ATOM     11  C4  <0> d           2.512   0.127  -0.024  0.00  0.00     0.038 A 
ATOM     12  H15 <0> d           4.491  -0.351  -0.011  0.00  0.00     0.160 HD
ATOM     13  C3  <0> d           2.379   1.543  -0.027  0.00  0.00     0.030 A 
ATOM     14  C7  <0> d           1.276  -0.688  -0.032  0.00  0.00    -0.006 A 
ATOM     15  C2  <0> d           1.155   2.113  -0.037  0.00  0.00     0.002 A 
ATOM     16  C1  <0> d          -0.029   1.363  -0.044  0.00  0.00     0.001 A 
ATOM     17  C8  <0> d          -0.015   0.011  -0.042  0.00  0.00     0.014 A 
ENDBRANCH   7   8
ENDBRANCH   1   7
BRANCH   5  18
ATOM     18  O2  <0> d           2.341  -6.341  -2.802  0.00  0.00    -0.331 OA
ATOM     19  H10 <0> d           3.214  -5.948  -2.940  0.00  0.00     0.221 HD
ENDBRANCH   5  18
BRANCH   4  20
ATOM     20  C13 <0> d          -0.415  -7.110  -2.231  0.00  0.00     0.047 A 
ATOM     21  C18 <0> d          -1.705  -7.396  -1.805  0.00  0.00     0.054 A 
ATOM     22  C17 <0> d          -2.241  -8.652  -2.022  0.00  0.00     0.036 A 
ATOM     23  C16 <0> d          -1.489  -9.626  -2.654  0.00  0.00     0.024 A 
ATOM     24 Cl1  <0> d          -3.856  -9.008  -1.495  0.00  0.00    -0.084 Cl
ATOM     25  C15 <0> d          -0.202  -9.345  -3.075  0.00  0.00     0.004 A 
ATOM     26  C14 <0> d           0.337  -8.091  -2.865  0.00  0.00     0.030 A 
ENDBRANCH   4  20
TORSDOF 4
