REMARK  2 active torsions:
REMARK  status: ('A' for Active; 'I' for Inactive)
REMARK    1  A    between atoms: C5_6  and  C6_7 
REMARK    2  A    between atoms: C6_7  and  C7_8 
ROOT
ATOM      1  C7  <0> d          -1.335  -0.369   3.192  0.00  0.00    -0.036 A 
ATOM      2  C8  <0> d          -1.827  -1.643   3.406  0.00  0.00     0.011 A 
ATOM      3  C9  <0> d          -3.074  -1.813   3.966  0.00  0.00     0.032 A 
ATOM      4  C10 <0> d          -3.853  -0.709   4.322  0.00  0.00     0.061 A 
ATOM      5  C11 <0> d          -3.360   0.568   4.108  0.00  0.00     0.062 A 
ATOM      6  C12 <0> d          -2.091   0.728   3.545  0.00  0.00     0.040 A 
ATOM      7  N1  <0> d          -4.056   1.730   4.428  0.00  0.00    -0.325 N 
ATOM      8  C13 <0> d          -5.357   1.932   4.232  0.00  0.00     0.231 C 
ATOM      9  O1  <0> d          -5.841   3.007   4.518  0.00  0.00    -0.273 OA
ATOM     10  C14 <0> d          -6.239   0.852   3.661  0.00  0.00     0.206 C 
ATOM     11  C15 <0> d          -6.225  -0.319   4.610  0.00  0.00     0.231 C 
ATOM     12  O2  <0> d          -7.260  -0.671   5.135  0.00  0.00    -0.273 OA
ATOM     13  N2  <0> d          -5.099  -0.973   4.882  0.00  0.00    -0.325 N 
ATOM     14  H10 <0> d          -3.550   2.454   4.829  0.00  0.00     0.169 HD
ATOM     15  H13 <0> d          -5.152  -1.698   5.525  0.00  0.00     0.169 HD
ENDROOT
BRANCH   1  16
ATOM     16  C6  <0> d           0.030  -0.179   2.581  0.00  0.00     0.131 C 
ATOM     17 Br1  <0> d           1.364  -1.166   3.635  0.00  0.00    -0.080 Br
BRANCH  16  18
ATOM     18  C5  <0> d           0.023  -0.698   1.166  0.00  0.00     0.007 A 
ATOM     19  C2  <0> d           0.002  -0.004   0.002  0.00  0.00    -0.047 A 
ATOM     20  C1  <0> d          -0.018   1.503   0.010  0.00  0.00     0.049 C 
ATOM     21  C3  <0> d           0.006  -0.699  -1.193  0.00  0.00     0.015 A 
ATOM     22  C4  <0> d           0.024  -2.054  -1.165  0.00  0.00     0.051 A 
ATOM     23  S1  <0> d           0.037  -2.387   0.589  0.00  0.00    -0.104 SA
ENDBRANCH  16  18
ENDBRANCH   1  16
TORSDOF 2
