REMARK  3 active torsions:
REMARK  status: ('A' for Active; 'I' for Inactive)
REMARK    1  A    between atoms: C3_4  and  S1_8 
REMARK    2  A    between atoms: S1_8  and  N3_11 
REMARK    3  A    between atoms: C9_15  and  C11_17 
ROOT
ATOM      1  N3  <0> d          -0.760  -2.992  -3.153  0.00  0.00    -0.305 N 
ATOM      2  C6  <0> d          -2.212  -3.189  -3.271  0.00  0.00     0.135 C 
ATOM      3  C7  <0> d          -2.861  -1.855  -3.653  0.00  0.00     0.021 C 
ATOM      4  C8  <0> d          -2.195  -1.313  -4.920  0.00  0.00     0.010 C 
ATOM      5  C9  <0> d          -0.708  -1.068  -4.653  0.00  0.00     0.035 C 
ATOM      6  C10 <0> d          -0.036  -2.387  -4.279  0.00  0.00     0.142 C 
ENDROOT
BRANCH   1   7
ATOM      7  S1  <0> d           0.042  -3.437  -1.774  0.00  0.00     0.279 S 
ATOM      8  O1  <0> d           1.398  -3.650  -2.144  0.00  0.00    -0.199 OA
ATOM      9  O2  <0> d          -0.745  -4.444  -1.153  0.00  0.00    -0.199 OA
BRANCH   7  10
ATOM     10  C3  <0> d           0.028  -2.047  -0.691  0.00  0.00     0.189 A 
ATOM     11  N1  <0> d           0.008  -0.759  -1.063  0.00  0.00    -0.221 NA
ATOM     12  C2  <0> d           0.002  -0.004   0.002  0.00  0.00     0.103 A 
ATOM     13  C1  <0> d          -0.018   1.503   0.010  0.00  0.00     0.091 C 
ATOM     14  N2  <0> d           0.023  -0.797   1.095  0.00  0.00    -0.347 N 
ATOM     15  C4  <0> d           0.034  -2.093   0.655  0.00  0.00     0.137 A 
ATOM     16  C5  <0> d           0.030  -0.353   2.491  0.00  0.00     0.157 C 
ENDBRANCH   7  10
ENDBRANCH   1   7
BRANCH   5  17
ATOM     17  C11 <0> d          -0.051  -0.495  -5.910  0.00  0.00     0.191 C 
ATOM     18  N4  <0> d          -0.690   0.783  -6.272  0.00  0.00    -0.070 N 
ATOM     19  C14 <0> d           0.334   1.853  -6.207  0.00  0.00     0.233 C 
ATOM     20  H24 <0> d          -1.063   0.723  -7.208  0.00  0.00     0.277 HD
ATOM     21  H25 <0> d          -1.435   0.986  -5.623  0.00  0.00     0.277 HD
ATOM     22  C13 <0> d           1.684   1.120  -6.407  0.00  0.00     0.029 C 
ATOM     23  C12 <0> d           1.440  -0.204  -5.636  0.00  0.00     0.035 C 
ENDBRANCH   5  17
TORSDOF 3
