REMARK  5 active torsions:
REMARK  status: ('A' for Active; 'I' for Inactive)
REMARK    1  A    between atoms: C6_6  and  N1_8 
REMARK       I    between atoms: N1_8  and  C8_9 
REMARK    2  A    between atoms: C8_9  and  C9_11 
REMARK    3  A    between atoms: C9_11  and  N2_12 
REMARK    4  A    between atoms: C12_16  and  C13_17 
REMARK    5  A    between atoms: C16_20  and  O3_24 
ROOT
ATOM      1  N2  <0> d          -2.479   8.564  -0.274  0.00  0.00    -0.256 N 
ATOM      2  C10 <0> d          -3.290   8.736   0.789  0.00  0.00     0.279 A 
ATOM      3  O2  <0> d          -2.961   8.789   1.960  0.00  0.00    -0.265 OA
ATOM      4  C11 <0> d          -4.654   8.848   0.249  0.00  0.00     0.106 A 
ATOM      5  C12 <0> d          -5.804   9.031   0.946  0.00  0.00     0.046 C 
ATOM      6  N3  <0> d          -4.511   8.726  -1.140  0.00  0.00    -0.304 N 
ATOM      7  C20 <0> d          -3.202   8.563  -1.404  0.00  0.00     0.330 A 
ATOM      8  O4  <0> d          -2.736   8.431  -2.519  0.00  0.00    -0.246 OA
ATOM      9  H18 <0> d          -5.226   8.756  -1.794  0.00  0.00     0.171 HD
ENDROOT
BRANCH   1  10
ATOM     10  C9  <0> d          -1.024   8.406  -0.205  0.00  0.00     0.240 C 
BRANCH  10  11
ATOM     11  C8  <0> d          -0.683   6.944  -0.073  0.00  0.00     0.240 C 
ATOM     12  N1  <0> d           0.606   6.558   0.007  0.00  0.00    -0.326 N 
ATOM     13  H8  <0> d           1.310   7.223   0.060  0.00  0.00     0.169 HD
ATOM     14  O1  <0> d          -1.567   6.115  -0.040  0.00  0.00    -0.271 OA
BRANCH  12  15
ATOM     15  C6  <0> d           0.929   5.196   0.015  0.00  0.00     0.035 A 
ATOM     16  C5  <0> d           1.980   4.735   0.796  0.00  0.00     0.029 A 
ATOM     17  C4  <0> d           2.293   3.389   0.806  0.00  0.00     0.003 A 
ATOM     18  C3  <0> d           1.567   2.504   0.031  0.00  0.00     0.007 A 
ATOM     19  C2  <0> d           0.519   2.960  -0.748  0.00  0.00    -0.060 A 
ATOM     20  C1  <0> d          -0.273   1.990  -1.586  0.00  0.00     0.048 C 
ATOM     21  C7  <0> d           0.198   4.303  -0.758  0.00  0.00     0.036 A 
ENDBRANCH  12  15
ENDBRANCH  10  11
ENDBRANCH   1  10
BRANCH   5  22
ATOM     22  C13 <0> d          -7.059   9.304   0.234  0.00  0.00    -0.032 A 
ATOM     23  C18 <0> d          -7.030   9.857  -1.052  0.00  0.00     0.033 A 
ATOM     24  C17 <0> d          -8.210  10.106  -1.718  0.00  0.00     0.045 A 
ATOM     25  C16 <0> d          -9.428   9.819  -1.110  0.00  0.00     0.085 A 
ATOM     26 Br1  <0> d          -8.175  10.846  -3.458  0.00  0.00    -0.048 Br
ATOM     27  C15 <0> d          -9.461   9.276   0.169  0.00  0.00     0.039 A 
ATOM     28  C14 <0> d          -8.288   9.018   0.841  0.00  0.00     0.014 A 
BRANCH  25  29
ATOM     29  O3  <0> d         -10.589  10.072  -1.768  0.00  0.00    -0.355 OA
ATOM     30  C19 <0> d         -11.804   9.755  -1.086  0.00  0.00     0.210 C 
ENDBRANCH  25  29
ENDBRANCH   5  22
TORSDOF 5
