REMARK  6 active torsions:
REMARK  status: ('A' for Active; 'I' for Inactive)
REMARK    1  A    between atoms: C6_6  and  C7_7 
REMARK    2  A    between atoms: C7_7  and  N1_8 
REMARK    3  A    between atoms: N1_8  and  C8_9 
REMARK       I    between atoms: N1_8  and  C14_16 
REMARK    4  A    between atoms: C8_9  and  C9_10 
REMARK    5  A    between atoms: C9_10  and  N2_11 
REMARK    6  A    between atoms: C14_16  and  C15_18 
ROOT
ATOM      1  N1  <0> d          -1.695  -0.769  -1.562  0.00  0.00    -0.342 N 
ATOM      2  C14 <0> d          -2.509  -0.001  -2.312  0.00  0.00     0.254 C 
ATOM      3  O1  <0> d          -3.063   0.962  -1.818  0.00  0.00    -0.267 OA
ENDROOT
BRANCH   1   4
ATOM      4  C7  <0> d          -1.547  -0.497  -0.130  0.00  0.00     0.164 C 
BRANCH   4   5
ATOM      5  C6  <0> d          -0.413   0.472   0.083  0.00  0.00    -0.038 A 
ATOM      6  C1  <0> d          -0.658   1.833   0.086  0.00  0.00     0.010 A 
ATOM      7  C2  <0> d           0.381   2.723   0.282  0.00  0.00     0.026 A 
ATOM      8  C3  <0> d           1.667   2.253   0.475  0.00  0.00     0.055 A 
ATOM      9  C4  <0> d           1.913   0.890   0.471  0.00  0.00     0.056 A 
ATOM     10 Cl2  <0> d           2.973   3.370   0.720  0.00  0.00    -0.083 Cl
ATOM     11  C5  <0> d           0.872   0.001   0.276  0.00  0.00     0.034 A 
ATOM     12 Cl1  <0> d           3.527   0.298   0.713  0.00  0.00    -0.083 Cl
ENDBRANCH   4   5
ENDBRANCH   1   4
BRANCH   1  13
ATOM     13  C8  <0> d          -0.958  -1.875  -2.178  0.00  0.00     0.154 C 
BRANCH  13  14
ATOM     14  C9  <0> d          -1.591  -3.204  -1.760  0.00  0.00     0.254 C 
BRANCH  14  15
ATOM     15  N2  <0> d          -0.945  -4.304  -2.489  0.00  0.00    -0.070 N 
ATOM     16  C13 <0> d          -1.624  -5.583  -2.188  0.00  0.00     0.235 C 
ATOM     17  C12 <0> d          -0.538  -6.675  -2.157  0.00  0.00     0.029 C 
ATOM     18  C11 <0> d           0.790  -5.930  -2.426  0.00  0.00     0.029 C 
ATOM     19  C10 <0> d           0.457  -4.471  -2.026  0.00  0.00     0.235 C 
ATOM     20  H24 <0> d          -0.966  -4.124  -3.481  0.00  0.00     0.279 HD
ENDBRANCH  14  15
ENDBRANCH  13  14
ENDBRANCH   1  13
BRANCH   2  21
ATOM     21  C15 <0> d          -2.728  -0.328  -3.734  0.00  0.00     0.034 A 
ATOM     22  C20 <0> d          -2.801   0.695  -4.681  0.00  0.00     0.048 A 
ATOM     23  C19 <0> d          -3.001   0.392  -6.019  0.00  0.00     0.052 A 
ATOM     24  C18 <0> d          -3.142  -0.947  -6.399  0.00  0.00     0.027 A 
ATOM     25  N3  <0> d          -3.055   1.424  -6.952  0.00  0.00    -0.325 N 
ATOM     26  C17 <0> d          -3.075  -1.964  -5.457  0.00  0.00     0.022 A 
ATOM     27  S1  <0> d          -3.412  -1.330  -8.101  0.00  0.00    -0.118 SA
ATOM     28  C16 <0> d          -2.868  -1.662  -4.129  0.00  0.00     0.018 A 
ATOM     29  C22 <0> d          -4.297   0.141  -8.701  0.00  0.00     0.182 C 
ATOM     30  C21 <0> d          -3.622   1.369  -8.154  0.00  0.00     0.231 C 
ATOM     31  O2  <0> d          -3.593   2.364  -8.848  0.00  0.00    -0.272 OA
ATOM     32  H21 <0> d          -2.640   2.264  -6.702  0.00  0.00     0.169 HD
ENDBRANCH   2  21
TORSDOF 6
