REMARK  4 active torsions:
REMARK  status: ('A' for Active; 'I' for Inactive)
REMARK    1  A    between atoms: C2_2  and  S1_3 
REMARK    2  A    between atoms: S1_3  and  C3_4 
REMARK    3  A    between atoms: C7_12  and  C8_13 
REMARK    4  A    between atoms: C11_16  and  N3_20 
ROOT
ATOM      1  C3  <0> d          -1.541  -2.685   0.377  0.00  0.00     0.184 A 
ATOM      2  N1  <0> d          -0.433  -3.337   0.602  0.00  0.00    -0.182 NA
ATOM      3  S2  <0> d          -0.924  -4.927   0.804  0.00  0.00     0.053 SA
ATOM      4  C4  <0> d          -2.560  -4.744   0.547  0.00  0.00     0.202 A 
ATOM      5  N2  <0> d          -3.519  -5.644   0.514  0.00  0.00    -0.182 NA
ATOM      6  C5  <0> d          -4.775  -5.263   0.220  0.00  0.00     0.283 C 
ATOM      7  O1  <0> d          -5.704  -6.050   0.312  0.00  0.00    -0.265 OA
ATOM      8  C6  <0> d          -5.005  -3.865  -0.220  0.00  0.00     0.079 C 
ATOM      9  C7  <0> d          -6.080  -3.517  -1.007  0.00  0.00     0.032 C 
ATOM     10  C16 <0> d          -4.007  -2.857   0.240  0.00  0.00     0.125 C 
ATOM     11  N4  <0> d          -4.308  -1.613   0.496  0.00  0.00    -0.384 N 
ATOM     12  N5  <0> d          -2.706  -3.382   0.376  0.00  0.00    -0.251 N 
ATOM     13  H16 <0> d          -5.221  -1.303   0.389  0.00  0.00     0.157 HD
ATOM     14  H17 <0> d          -3.618  -0.998   0.792  0.00  0.00     0.157 HD
ENDROOT
BRANCH   9  15
ATOM     15  C8  <0> d          -6.925  -4.559  -1.593  0.00  0.00    -0.034 A 
ATOM     16  C13 <0> d          -6.356  -5.765  -2.027  0.00  0.00     0.032 A 
ATOM     17  C12 <0> d          -7.149  -6.736  -2.570  0.00  0.00     0.038 A 
ATOM     18  C11 <0> d          -8.521  -6.525  -2.701  0.00  0.00     0.047 A 
ATOM     19 Br1  <0> d          -6.385  -8.366  -3.149  0.00  0.00    -0.049 Br
ATOM     20  C10 <0> d          -9.090  -5.326  -2.276  0.00  0.00     0.031 A 
ATOM     21  C9  <0> d          -8.306  -4.352  -1.728  0.00  0.00     0.014 A 
BRANCH  18  22
ATOM     22  N3  <0> d          -9.324  -7.513  -3.258  0.00  0.00    -0.388 N 
ATOM     23  C14 <0> d          -9.560  -7.537  -4.704  0.00  0.00     0.149 C 
ATOM     24  C15 <0> d          -9.934  -8.531  -2.399  0.00  0.00     0.149 C 
ENDBRANCH  18  22
ENDBRANCH   9  15
BRANCH   1  25
ATOM     25  S1  <0> d          -1.526  -0.947   0.091  0.00  0.00    -0.091 SA
BRANCH  25  26
ATOM     26  C2  <0> d           0.230  -0.501   0.194  0.00  0.00     0.078 C 
ATOM     27  C1  <0> d           0.388   1.003  -0.039  0.00  0.00     0.016 C 
ENDBRANCH  25  26
ENDBRANCH   1  25
TORSDOF 4
