REMARK  6 active torsions:
REMARK  status: ('A' for Active; 'I' for Inactive)
REMARK    1  A    between atoms: C3_3  and  C17_28 
REMARK    2  A    between atoms: C4_7  and  N3_8 
REMARK       I    between atoms: N3_8  and  C5_9 
REMARK    3  A    between atoms: C5_9  and  C6_11 
REMARK    4  A    between atoms: C6_11  and  C7_12 
REMARK    5  A    between atoms: C7_12  and  C8_13 
REMARK    6  A    between atoms: C10_16  and  N6_21 
ROOT
ATOM      1  C7  <0> d           0.086  -2.068   5.772  0.00  0.00     0.055 C 
ENDROOT
BRANCH   1   2
ATOM      2  C6  <0> d           0.325  -0.859   4.865  0.00  0.00     0.108 C 
BRANCH   2   3
ATOM      3  C5  <0> d           0.317  -1.302   3.425  0.00  0.00     0.223 C 
ATOM      4  N3  <0> d           0.509  -0.401   2.441  0.00  0.00    -0.312 N 
ATOM      5  H6  <0> d           0.652   0.533   2.660  0.00  0.00     0.170 HD
ATOM      6  O1  <0> d           0.139  -2.470   3.151  0.00  0.00    -0.273 OA
BRANCH   4   7
ATOM      7  C4  <0> d           0.502  -0.812   1.108  0.00  0.00     0.132 A 
ATOM      8  C2  <0> d           0.682  -0.014   0.020  0.00  0.00     0.010 A 
ATOM      9  C1  <0> d           0.925   1.473   0.040  0.00  0.00     0.054 C 
ATOM     10  C3  <0> d           0.607  -0.820  -1.119  0.00  0.00     0.068 A 
ATOM     11  N1  <0> d           0.386  -2.052  -0.737  0.00  0.00    -0.177 NA
ATOM     12  N2  <0> d           0.313  -2.074   0.661  0.00  0.00    -0.262 N 
ATOM     13  H1  <0> d           0.157  -2.857   1.213  0.00  0.00     0.191 HD
BRANCH  10  14
ATOM     14  C17 <0> d           0.754  -0.351  -2.544  0.00  0.00     0.040 A 
ATOM     15  C19 <0> d           1.889  -0.956  -3.373  0.00  0.00     0.011 A 
ATOM     16  C18 <0> d           0.439  -1.355  -3.654  0.00  0.00     0.011 A 
ENDBRANCH  10  14
ENDBRANCH   4   7
ENDBRANCH   2   3
ENDBRANCH   1   2
BRANCH   1  17
ATOM     17  C8  <0> d           0.094  -1.624   7.212  0.00  0.00     0.036 A 
ATOM     18  C11 <0> d           1.304  -1.509   7.918  0.00  0.00     0.268 A 
ATOM     19  N5  <0> d           1.269  -1.103   9.206  0.00  0.00    -0.154 N 
ATOM     20  O2  <0> d           2.367  -1.766   7.376  0.00  0.00    -0.267 OA
ATOM     21  C10 <0> d           0.074  -0.827   9.794  0.00  0.00     0.705 A 
ATOM     22  H2  <0> d           2.092  -1.014   9.710  0.00  0.00     0.187 HD
ATOM     23  N4  <0> d          -1.058  -0.942   9.127  0.00  0.00    -0.069 NA
ATOM     24  C9  <0> d          -1.075  -1.333   7.854  0.00  0.00     0.061 A 
ATOM     25  C16 <0> d          -2.386  -1.453   7.122  0.00  0.00     0.072 C 
BRANCH  21  26
ATOM     26  N6  <0> d           0.045  -0.422  11.101  0.00  0.00    -0.212 N 
ATOM     27  C15 <0> d          -1.232  -0.231  11.808  0.00  0.00     0.167 C 
ATOM     28  C14 <0> d          -1.220   1.146  12.472  0.00  0.00     0.188 C 
ATOM     29  O3  <0> d          -0.034   1.282  13.257  0.00  0.00    -0.388 OA
ATOM     30  C13 <0> d           1.178   1.219  12.501  0.00  0.00     0.188 C 
ATOM     31  C12 <0> d           1.290  -0.159  11.840  0.00  0.00     0.167 C 
ENDBRANCH  21  26
ENDBRANCH   1  17
TORSDOF 6
