REMARK  9 active torsions:
REMARK  status: ('A' for Active; 'I' for Inactive)
REMARK    1  A    between atoms: C3_3  and  S4_19 
REMARK    2  A    between atoms: C4_5  and  C5_6 
REMARK    3  A    between atoms: C5_6  and  N1_7 
REMARK       I    between atoms: N1_7  and  C6_8 
REMARK    4  A    between atoms: C6_8  and  C7_10 
REMARK    5  A    between atoms: C7_10  and  C8_11 
REMARK    6  A    between atoms: C8_11  and  C9_12 
REMARK    7  A    between atoms: C9_12  and  C10_13 
REMARK    8  A    between atoms: C10_13  and  C11_14 
REMARK    9  A    between atoms: S4_19  and  N2_22 
ROOT
ATOM      1  N1  <0> d           6.711   1.060   3.235  0.00  0.00    -0.356 N 
ATOM      2  C6  <0> d           5.831   1.465   2.297  0.00  0.00     0.217 C 
ATOM      3  O1  <0> d           6.175   2.257   1.445  0.00  0.00    -0.274 OA
ATOM      4  H6  <0> d           6.399   0.342   4.007  0.00  0.00     0.162 HD
ENDROOT
BRANCH   1   5
ATOM      5  C5  <0> d           8.082   1.575   3.224  0.00  0.00     0.168 C 
BRANCH   5   6
ATOM      6  C4  <0> d           8.855   0.970   4.367  0.00  0.00     0.002 A 
ATOM      7  C1  <0> d           9.588  -0.170   4.394  0.00  0.00     0.018 A 
ATOM      8  C2  <0> d          10.220  -0.534   5.568  0.00  0.00     0.033 A 
ATOM      9  C3  <0> d          10.087   0.259   6.659  0.00  0.00     0.115 A 
ATOM     10  S1  <0> d           9.050   1.572   6.037  0.00  0.00    -0.080 SA
BRANCH   9  11
ATOM     11  S4  <0> d          10.768   0.052   8.271  0.00  0.00     0.245 S 
ATOM     12  O2  <0> d           9.931   0.778   9.161  0.00  0.00    -0.206 OA
ATOM     13  O3  <0> d          11.025  -1.337   8.428  0.00  0.00    -0.206 OA
BRANCH  11  14
ATOM     14  N2  <0> d          12.240   0.810   8.282  0.00  0.00    -0.225 NA
ATOM     15  H19 <0> d          12.700   0.703   9.275  0.00  0.00     0.136 HD
ATOM     16  H20 <0> d          12.105   1.877   8.053  0.00  0.00     0.136 HD
ENDBRANCH  11  14
ENDBRANCH   9  11
ENDBRANCH   5   6
ENDBRANCH   1   5
BRANCH   2  17
ATOM     17  C7  <0> d           4.421   0.934   2.308  0.00  0.00     0.103 C 
BRANCH  17  18
ATOM     18  C8  <0> d           3.636   1.549   1.147  0.00  0.00     0.009 C 
BRANCH  18  19
ATOM     19  C9  <0> d           2.204   1.010   1.158  0.00  0.00     0.002 C 
BRANCH  19  20
ATOM     20  C10 <0> d           1.419   1.625  -0.003  0.00  0.00     0.016 C 
BRANCH  20  21
ATOM     21  C11 <0> d          -0.013   1.086   0.008  0.00  0.00     0.059 C 
ATOM     22  S3  <0> d          -0.898   1.692   1.508  0.00  0.00    -0.093 SA
ATOM     23  S2  <0> d          -2.524   2.584   0.549  0.00  0.00    -0.097 SA
ATOM     24  C13 <0> d          -2.309   1.718  -1.076  0.00  0.00     0.087 C 
ATOM     25  C12 <0> d          -0.773   1.603  -1.220  0.00  0.00     0.027 C 
ENDBRANCH  20  21
ENDBRANCH  19  20
ENDBRANCH  18  19
ENDBRANCH  17  18
ENDBRANCH   2  17
TORSDOF 9
