REMARK  5 active torsions:
REMARK  status: ('A' for Active; 'I' for Inactive)
REMARK    1  A    between atoms: N1_6  and  C7_8 
REMARK    2  A    between atoms: C7_8  and  C10_11 
REMARK    3  A    between atoms: C10_11  and  N2_12 
REMARK    4  A    between atoms: N2_12  and  S1_13 
REMARK    5  A    between atoms: S1_13  and  C11_16 
ROOT
ATOM      1  S1  <0> d          -0.420  -6.002   2.035  0.00  0.00     0.258 S 
ATOM      2  O1  <0> d          -1.828  -6.082   1.857  0.00  0.00    -0.201 OA
ATOM      3  O2  <0> d           0.499  -6.480   1.063  0.00  0.00    -0.201 OA
ENDROOT
BRANCH   1   4
ATOM      4  N2  <0> d          -0.065  -4.403   2.277  0.00  0.00    -0.313 N 
ATOM      5  H21 <0> d          -0.773  -3.740   2.258  0.00  0.00     0.172 HD
BRANCH   4   6
ATOM      6  C10 <0> d           1.320  -3.989   2.519  0.00  0.00     0.170 C 
BRANCH   6   7
ATOM      7  C7  <0> d           1.448  -2.481   2.295  0.00  0.00     0.137 C 
ATOM      8  C8  <0> d           2.914  -2.067   2.434  0.00  0.00     0.048 C 
ATOM      9  C9  <0> d           0.608  -1.738   3.336  0.00  0.00     0.048 C 
BRANCH   7  10
ATOM     10  N1  <0> d           0.970  -2.144   0.948  0.00  0.00    -0.061 N 
ATOM     11  C5  <0> d           1.755  -2.883  -0.048  0.00  0.00     0.236 C 
ATOM     12  C4  <0> d           1.208  -2.598  -1.448  0.00  0.00     0.028 C 
ATOM     13  C3  <0> d           1.306  -1.096  -1.732  0.00  0.00     0.007 C 
ATOM     14  C2  <0> d           0.545  -0.331  -0.645  0.00  0.00     0.007 C 
ATOM     15  C1  <0> d           0.701   1.174  -0.875  0.00  0.00     0.011 C 
ATOM     16  C6  <0> d           1.115  -0.700   0.726  0.00  0.00     0.240 C 
ATOM     17  H28 <0> d          -0.003  -2.399   0.865  0.00  0.00     0.280 HD
ENDBRANCH   7  10
ENDBRANCH   6   7
ENDBRANCH   4   6
ENDBRANCH   1   4
BRANCH   1  18
ATOM     18  C11 <0> d          -0.053  -6.850   3.536  0.00  0.00     0.080 A 
ATOM     19  C16 <0> d          -1.034  -6.989   4.505  0.00  0.00     0.043 A 
ATOM     20  C15 <0> d          -0.746  -7.661   5.683  0.00  0.00     0.049 A 
ATOM     21  C14 <0> d           0.544  -8.188   5.891  0.00  0.00     0.048 A 
ATOM     22  C17 <0> d          -1.520  -7.994   6.897  0.00  0.00     0.261 A 
ATOM     23  C13 <0> d           1.516  -8.037   4.915  0.00  0.00     0.020 A 
ATOM     24  C18 <0> d           0.511  -8.825   7.224  0.00  0.00     0.261 A 
ATOM     25  C12 <0> d           1.212  -7.367   3.740  0.00  0.00     0.026 A 
ATOM     26  N3  <0> d          -0.720  -8.669   7.743  0.00  0.00    -0.284 N 
ATOM     27  O4  <0> d           1.440  -9.393   7.762  0.00  0.00    -0.267 OA
ATOM     28  C19 <0> d          -1.136  -9.168   9.056  0.00  0.00     0.163 C 
ATOM     29  O3  <0> d          -2.683  -7.707   7.097  0.00  0.00    -0.267 OA
ENDBRANCH   1  18
TORSDOF 5
