REMARK  2 active torsions:
REMARK  status: ('A' for Active; 'I' for Inactive)
REMARK    1  A    between atoms: C7_10  and  N3_11 
REMARK    2  A    between atoms: N3_11  and  C8_12 
ROOT
ATOM      1  C1  <0> d          -0.017   1.392   0.010  0.00  0.00     0.030 A 
ATOM      2  C2  <0> d           1.147   2.101   0.002  0.00  0.00     0.017 A 
ATOM      3  C3  <0> d           2.374   1.427  -0.013  0.00  0.00     0.011 A 
ATOM      4  C4  <0> d           3.767   1.863  -0.024  0.00  0.00     0.152 A 
ATOM      5  N1  <0> d           4.517   0.798  -0.037  0.00  0.00    -0.186 NA
ATOM      6  N2  <0> d           3.721  -0.351  -0.035  0.00  0.00    -0.278 N 
ATOM      7  H1  <0> d           4.049  -1.264  -0.043  0.00  0.00     0.189 HD
ATOM      8  C5  <0> d           2.401   0.019  -0.021  0.00  0.00     0.064 A 
ATOM      9  C6  <0> d           1.203  -0.690  -0.014  0.00  0.00     0.061 A 
ATOM     10  C7  <0> d           0.002  -0.004   0.002  0.00  0.00     0.030 A 
ENDROOT
BRANCH  10  11
ATOM     11  N3  <0> d          -1.201  -0.714   0.010  0.00  0.00    -0.385 N 
ATOM     12  H6  <0> d          -1.192  -1.683   0.004  0.00  0.00     0.160 HD
BRANCH  11  13
ATOM     13  C8  <0> d          -2.476   0.007   0.026  0.00  0.00     0.083 C 
ATOM     14  C12 <0> d          -3.550  -0.886   0.640  0.00  0.00     0.037 C 
ATOM     15  C11 <0> d          -4.809  -0.064   0.932  0.00  0.00     0.111 C 
ATOM     16  S1  <0> d          -5.461   0.581  -0.638  0.00  0.00     0.015 S 
ATOM     17  C10 <0> d          -4.014   1.394  -1.381  0.00  0.00     0.111 C 
ATOM     18  O1  <0> d          -5.870  -0.503  -1.461  0.00  0.00    -0.258 OA
ATOM     19  C9  <0> d          -2.849   0.400  -1.401  0.00  0.00     0.037 C 
ENDBRANCH  11  13
ENDBRANCH  10  11
TORSDOF 2
