REMARK  4 active torsions:
REMARK  status: ('A' for Active; 'I' for Inactive)
REMARK    1  A    between atoms: C6_6  and  C7_7 
REMARK    2  A    between atoms: N1_11  and  C11_15 
REMARK    3  A    between atoms: C11_15  and  C12_16 
REMARK    4  A    between atoms: C12_16  and  N2_20 
ROOT
ATOM      1  C7  <0> d           1.583   3.323   0.004  0.00  0.00     0.036 C 
ATOM      2  C8  <0> d           1.256   2.048   0.332  0.00  0.00     0.079 A 
ATOM      3  C9  <0> d          -0.075   1.420   0.457  0.00  0.00     0.268 A 
ATOM      4  O1  <0> d          -1.099   2.046   0.253  0.00  0.00    -0.266 OA
ATOM      5  N1  <0> d          -0.098   0.142   0.794  0.00  0.00    -0.273 N 
ATOM      6  C10 <0> d           1.039  -0.549   1.013  0.00  0.00     0.293 A 
ATOM      7  O2  <0> d           1.165  -1.718   1.327  0.00  0.00    -0.259 OA
ATOM      8  S1  <0> d           2.317   0.666   0.732  0.00  0.00    -0.023 SA
ENDROOT
BRANCH   1   9
ATOM      9  C6  <0> d           2.979   3.772   0.104  0.00  0.00    -0.035 A 
ATOM     10  C1  <0> d           3.940   2.952   0.707  0.00  0.00     0.014 A 
ATOM     11  C2  <0> d           5.248   3.377   0.793  0.00  0.00     0.043 A 
ATOM     12  C3  <0> d           5.610   4.619   0.294  0.00  0.00     0.116 A 
ATOM     13  C4  <0> d           4.662   5.439  -0.299  0.00  0.00     0.043 A 
ATOM     14  F1  <0> d           6.893   5.032   0.387  0.00  0.00    -0.206 F 
ATOM     15  C5  <0> d           3.352   5.025  -0.397  0.00  0.00     0.014 A 
ENDBRANCH   1   9
BRANCH   5  16
ATOM     16  C11 <0> d          -1.387  -0.539   0.933  0.00  0.00     0.163 C 
BRANCH  16  17
ATOM     17  C12 <0> d          -1.792  -1.145  -0.412  0.00  0.00     0.250 C 
BRANCH  17  18
ATOM     18  N2  <0> d          -3.099  -1.809  -0.266  0.00  0.00    -0.078 N 
ATOM     19  H10 <0> d          -3.374  -2.238  -1.148  0.00  0.00     0.274 HD
ATOM     20  H11 <0> d          -3.049  -2.524   0.458  0.00  0.00     0.274 HD
ATOM     21  H12 <0> d          -3.804  -1.111   0.001  0.00  0.00     0.274 HD
ENDBRANCH  17  18
ENDBRANCH  16  17
ENDBRANCH   5  16
TORSDOF 4
