REMARK  2 active torsions:
REMARK  status: ('A' for Active; 'I' for Inactive)
REMARK    1  A    between atoms: C9_9  and  O2_14 
REMARK    2  A    between atoms: C11_11  and  O1_13 
ROOT
ATOM      1  C1  <0> d          -0.188  -3.960  -2.529  0.00  0.00     0.043 C 
ATOM      2  C2  <0> d          -0.107  -2.487  -2.834  0.00  0.00    -0.078 C 
ATOM      3  C3  <0> d           0.438  -2.134  -3.949  0.00  0.00     0.009 C 
ATOM      4  C4  <0> d           0.417  -0.762  -4.550  0.00  0.00     0.164 C 
ATOM      5  C5  <0> d           0.417   0.425  -3.584  0.00  0.00     0.058 C 
ATOM      6  C6  <0> d           1.158   0.192  -2.287  0.00  0.00     0.020 C 
ATOM      7  C7  <0> d           0.460  -0.664  -1.264  0.00  0.00     0.031 C 
ATOM      8  C8  <0> d          -0.650  -1.515  -1.891  0.00  0.00     0.050 C 
ATOM      9  C9  <0> d          -1.505  -1.943  -0.703  0.00  0.00     0.129 C 
ATOM     10  C10 <0> d          -1.564  -0.606   0.104  0.00  0.00     0.070 C 
ATOM     11  C11 <0> d          -0.106  -0.070   0.012  0.00  0.00     0.061 C 
ATOM     12  C12 <0> d          -0.097   1.453   0.041  0.00  0.00     0.046 C 
ATOM     13  C13 <0> d          -0.980   0.944  -3.546  0.00  0.00     0.015 C 
ATOM     14  C14 <0> d          -1.499   1.908  -2.784  0.00  0.00     0.025 C 
ATOM     15  C15 <0> d          -1.707   0.185  -4.588  0.00  0.00     0.289 C 
ATOM     16  O3  <0> d          -2.893   0.334  -4.837  0.00  0.00    -0.260 OA
ATOM     17  O4  <0> d          -0.897  -0.681  -5.210  0.00  0.00    -0.308 OA
ENDROOT
BRANCH  11  18
ATOM     18  O1  <0> d           0.640  -0.566   1.139  0.00  0.00    -0.390 OA
ATOM     19  H17 <0> d           0.293  -0.282   1.996  0.00  0.00     0.210 HD
ENDBRANCH  11  18
BRANCH   9  20
ATOM     20  O2  <0> d          -0.870  -2.952   0.081  0.00  0.00    -0.395 OA
ATOM     21  H18 <0> d          -1.333  -3.159   0.904  0.00  0.00     0.210 HD
ENDBRANCH   9  20
TORSDOF 2
