REMARK  4 active torsions:
REMARK  status: ('A' for Active; 'I' for Inactive)
REMARK    1  A    between atoms: C6_6  and  N1_9 
REMARK    2  A    between atoms: C10_11  and  C13_15 
REMARK       I    between atoms: C13_15  and  N2_17 
REMARK    3  A    between atoms: N2_17  and  C14_18 
REMARK       I    between atoms: N3_21  and  C19_24 
REMARK    4  A    between atoms: C19_24  and  C20_26 
ROOT
ATOM      1  C13 <0> d          -0.281  -4.282   5.559  0.00  0.00     0.224 C 
ATOM      2  O2  <0> d          -1.256  -3.563   5.493  0.00  0.00    -0.273 OA
ATOM      3  N2  <0> d          -0.108  -5.087   6.625  0.00  0.00    -0.356 N 
ATOM      4  H15 <0> d           0.671  -5.662   6.678  0.00  0.00     0.162 HD
ENDROOT
BRANCH   1   5
ATOM      5  C10 <0> d           0.737  -4.274   4.448  0.00  0.00     0.105 C 
ATOM      6  C9  <0> d           0.334  -3.280   3.336  0.00  0.00     0.146 C 
ATOM      7  N1  <0> d           1.593  -2.692   2.862  0.00  0.00    -0.317 N 
ATOM      8  C12 <0> d           2.590  -2.901   3.738  0.00  0.00     0.225 C 
ATOM      9  C11 <0> d           2.080  -3.679   4.931  0.00  0.00     0.119 C 
ATOM     10  O1  <0> d           3.733  -2.520   3.595  0.00  0.00    -0.273 OA
BRANCH   7  11
ATOM     11  C6  <0> d           1.737  -2.006   1.651  0.00  0.00     0.043 A 
ATOM     12  C5  <0> d           2.078  -2.698   0.496  0.00  0.00     0.030 A 
ATOM     13  C4  <0> d           2.219  -2.018  -0.698  0.00  0.00     0.003 A 
ATOM     14  C3  <0> d           2.021  -0.651  -0.745  0.00  0.00     0.007 A 
ATOM     15  C2  <0> d           1.682   0.041   0.404  0.00  0.00    -0.054 A 
ATOM     16  C1  <0> d           1.468   1.532   0.348  0.00  0.00     0.049 C 
ATOM     17  C7  <0> d           1.544  -0.631   1.602  0.00  0.00    -0.029 A 
ATOM     18  C8  <0> d           1.180   0.124   2.854  0.00  0.00     0.051 C 
ENDBRANCH   7  11
ENDBRANCH   1   5
BRANCH   3  19
ATOM     19  C14 <0> d          -1.098  -5.095   7.705  0.00  0.00     0.087 C 
ATOM     20  C18 <0> d          -1.046  -6.440   8.434  0.00  0.00     0.045 C 
ATOM     21  C17 <0> d          -2.106  -6.457   9.541  0.00  0.00     0.128 C 
ATOM     22  N3  <0> d          -1.901  -5.291  10.410  0.00  0.00    -0.346 N 
ATOM     23  C16 <0> d          -1.844  -3.956   9.799  0.00  0.00     0.128 C 
ATOM     24  C19 <0> d          -1.769  -5.442  11.743  0.00  0.00     0.277 C 
ATOM     25  C15 <0> d          -0.787  -3.966   8.690  0.00  0.00     0.045 C 
ATOM     26  O3  <0> d          -1.470  -4.489  12.437  0.00  0.00    -0.265 OA
BRANCH  24  27
ATOM     27  C20 <0> d          -1.985  -6.757  12.356  0.00  0.00     0.142 A 
ATOM     28  O4  <0> d          -2.463  -7.854  11.733  0.00  0.00    -0.317 OA
ATOM     29  C23 <0> d          -2.523  -8.869  12.604  0.00  0.00     0.143 A 
ATOM     30  C22 <0> d          -2.091  -8.435  13.808  0.00  0.00     0.027 A 
ATOM     31  C21 <0> d          -1.744  -7.083  13.660  0.00  0.00     0.045 A 
ENDBRANCH  24  27
ENDBRANCH   3  19
TORSDOF 4
