REMARK  7 active torsions:
REMARK  status: ('A' for Active; 'I' for Inactive)
REMARK       I    between atoms: N1_2  and  C2_3 
REMARK    1  A    between atoms: C2_3  and  C3_5 
REMARK    2  A    between atoms: C6_8  and  N2_11 
REMARK       I    between atoms: N2_11  and  C9_12 
REMARK    3  A    between atoms: C9_12  and  C10_14 
REMARK    4  A    between atoms: C10_14  and  S1_15 
REMARK    5  A    between atoms: S1_15  and  C11_16 
REMARK    6  A    between atoms: C13_19  and  C20_27 
REMARK    7  A    between atoms: N4_20  and  C14_21 
ROOT
ATOM      1  C10 <0> d           5.176   4.725   0.145  0.00  0.00     0.185 C 
ENDROOT
BRANCH   1   2
ATOM      2  C9  <0> d           6.041   5.960   0.148  0.00  0.00     0.231 C 
ATOM      3  N2  <0> d           7.371   5.851  -0.036  0.00  0.00    -0.327 N 
ATOM      4  H9  <0> d           7.783   4.975  -0.093  0.00  0.00     0.169 HD
ATOM      5  O2  <0> d           5.539   7.051   0.316  0.00  0.00    -0.272 OA
BRANCH   3   6
ATOM      6  C6  <0> d           8.156   6.998  -0.142  0.00  0.00     0.034 A 
ATOM      7  C5  <0> d           9.458   6.997   0.349  0.00  0.00     0.030 A 
ATOM      8  C4  <0> d          10.236   8.128   0.244  0.00  0.00     0.019 A 
ATOM      9  C3  <0> d           9.716   9.279  -0.356  0.00  0.00     0.032 A 
ATOM     10  C8  <0> d           8.409   9.277  -0.848  0.00  0.00     0.019 A 
ATOM     11  C7  <0> d           7.638   8.140  -0.745  0.00  0.00     0.030 A 
BRANCH   9  12
ATOM     12  C2  <0> d          10.547  10.493  -0.469  0.00  0.00     0.251 C 
ATOM     13  N1  <0> d          10.045  11.602  -1.048  0.00  0.00    -0.361 N 
ATOM     14  C1  <0> d          10.870  12.807  -1.161  0.00  0.00     0.149 C 
ATOM     15  H4  <0> d           9.137  11.601  -1.390  0.00  0.00     0.162 HD
ATOM     16  O1  <0> d          11.685  10.494  -0.040  0.00  0.00    -0.268 OA
ENDBRANCH   9  12
ENDBRANCH   3   6
ENDBRANCH   1   2
BRANCH   1  17
ATOM     17  S1  <0> d           3.450   5.197   0.414  0.00  0.00    -0.082 SA
BRANCH  17  18
ATOM     18  C11 <0> d           2.688   3.609   0.364  0.00  0.00     0.174 A 
ATOM     19  N4  <0> d           1.358   3.366   0.514  0.00  0.00    -0.283 N 
ATOM     20  C13 <0> d           1.187   1.989   0.407  0.00  0.00     0.136 A 
ATOM     21  C12 <0> d           2.443   1.460   0.198  0.00  0.00     0.156 A 
ATOM     22  N3  <0> d           3.314   2.464   0.174  0.00  0.00    -0.234 NA
BRANCH  19  23
ATOM     23  C14 <0> d           0.354   4.319   0.735  0.00  0.00     0.042 A 
ATOM     24  C19 <0> d           0.344   5.059   1.909  0.00  0.00     0.030 A 
ATOM     25  C18 <0> d          -0.647   5.998   2.123  0.00  0.00     0.002 A 
ATOM     26  C17 <0> d          -1.627   6.200   1.169  0.00  0.00     0.000 A 
ATOM     27  C16 <0> d          -1.619   5.464  -0.002  0.00  0.00     0.002 A 
ATOM     28  C15 <0> d          -0.629   4.528  -0.224  0.00  0.00     0.030 A 
ENDBRANCH  19  23
BRANCH  20  29
ATOM     29  C20 <0> d          -0.033   1.274   0.498  0.00  0.00     0.229 C 
ATOM     30  O3  <0> d          -0.038   0.062   0.385  0.00  0.00    -0.643 OA
ATOM     31  O4  <0> d          -1.190   1.937   0.707  0.00  0.00    -0.643 OA
ENDBRANCH  20  29
ENDBRANCH  17  18
ENDBRANCH   1  17
TORSDOF 7
