REMARK  5 active torsions:
REMARK  status: ('A' for Active; 'I' for Inactive)
REMARK    1  A    between atoms: C5_5  and  C7_7 
REMARK    2  A    between atoms: C8_8  and  S1_9 
REMARK    3  A    between atoms: S1_9  and  N1_12 
REMARK    4  A    between atoms: N1_12  and  N2_13 
REMARK       I    between atoms: N2_13  and  C9_14 
REMARK    5  A    between atoms: C9_14  and  C10_16 
ROOT
ATOM      1  N1  <0> d          -0.500  -5.116   1.410  0.00  0.00    -0.221 N 
ATOM      2  H8  <0> d           0.032  -5.655   2.017  0.00  0.00     0.200 HD
ENDROOT
BRANCH   1   3
ATOM      3  S1  <0> d           0.145  -4.606  -0.027  0.00  0.00     0.266 S 
ATOM      4  O1  <0> d          -0.753  -5.022  -1.046  0.00  0.00    -0.200 OA
ATOM      5  O2  <0> d           1.514  -4.987  -0.016  0.00  0.00    -0.200 OA
BRANCH   3   6
ATOM      6  C8  <0> d           0.113  -2.844  -0.016  0.00  0.00     0.134 C 
ATOM      7  C7  <0> d           1.249  -2.160  -0.023  0.00  0.00     0.026 C 
BRANCH   7   8
ATOM      8  C5  <0> d           1.221  -0.682  -0.014  0.00  0.00    -0.014 A 
ATOM      9  C4  <0> d           2.416   0.041  -0.021  0.00  0.00     0.044 A 
ATOM     10  C3  <0> d           2.382   1.422  -0.013  0.00  0.00     0.024 A 
ATOM     11 Cl1  <0> d           3.938  -0.793  -0.042  0.00  0.00    -0.083 Cl
ATOM     12  C2  <0> d           1.170   2.087   0.002  0.00  0.00     0.002 A 
ATOM     13  C1  <0> d          -0.017   1.375   0.010  0.00  0.00     0.001 A 
ATOM     14  C6  <0> d           0.002  -0.004   0.002  0.00  0.00     0.013 A 
ENDBRANCH   7   8
ENDBRANCH   3   6
ENDBRANCH   1   3
BRANCH   1  15
ATOM     15  N2  <0> d          -1.814  -4.770   1.751  0.00  0.00    -0.260 N 
ATOM     16  C9  <0> d          -2.704  -5.732   2.066  0.00  0.00     0.241 C 
ATOM     17  O3  <0> d          -2.367  -6.897   2.055  0.00  0.00    -0.271 OA
ATOM     18  H9  <0> d          -2.083  -3.838   1.759  0.00  0.00     0.190 HD
BRANCH  16  19
ATOM     19  C10 <0> d          -4.118  -5.360   2.432  0.00  0.00     0.094 C 
ATOM     20  C13 <0> d          -4.934  -6.645   2.748  0.00  0.00     0.154 C 
ATOM     21  S2  <0> d          -6.329  -5.929   3.716  0.00  0.00     0.145 S 
ATOM     22  C12 <0> d          -5.548  -4.353   4.255  0.00  0.00     0.141 C 
ATOM     23  O4  <0> d          -7.402  -5.635   2.832  0.00  0.00    -0.228 OA
ATOM     24  O5  <0> d          -6.566  -6.741   4.857  0.00  0.00    -0.228 OA
ATOM     25  C11 <0> d          -4.113  -4.474   3.689  0.00  0.00     0.030 C 
ENDBRANCH  16  19
ENDBRANCH   1  15
TORSDOF 5
