REMARK  13 active torsions:
REMARK  status: ('A' for Active; 'I' for Inactive)
REMARK    1  A    between atoms: C13_13  and  N1_14 
REMARK    2  A    between atoms: N1_14  and  O1_15 
REMARK    3  A    between atoms: O1_15  and  C14_16 
REMARK    4  A    between atoms: C14_16  and  C15_17 
REMARK    5  A    between atoms: C15_17  and  C16_18 
REMARK    6  A    between atoms: C15_17  and  O4_26 
REMARK    7  A    between atoms: C16_18  and  N2_19 
REMARK    8  A    between atoms: N2_19  and  C17_20 
REMARK    9  A    between atoms: N2_19  and  C19_23 
REMARK   10  A    between atoms: C17_20  and  C18_21 
REMARK   11  A    between atoms: C18_21  and  O2_22 
REMARK   12  A    between atoms: C19_23  and  C20_24 
REMARK   13  A    between atoms: C20_24  and  O3_25 
ROOT
ATOM      1  O1  <0> d          -3.762   1.554  -0.828  0.00  0.00    -0.253 OA
ENDROOT
BRANCH   1   2
ATOM      2  N1  <0> d          -3.071   2.786  -0.926  0.00  0.00    -0.132 NA
BRANCH   2   3
ATOM      3  C13 <0> d          -1.819   2.803  -1.281  0.00  0.00     0.106 A 
ATOM      4  C4  <0> d          -0.980   1.627  -1.614  0.00  0.00     0.007 A 
ATOM      5  C3  <0> d          -1.252   0.264  -1.652  0.00  0.00     0.015 A 
ATOM      6  C5  <0> d           0.303   2.094  -1.942  0.00  0.00    -0.012 A 
ATOM      7  C2  <0> d          -0.256  -0.628  -2.001  0.00  0.00     0.001 A 
ATOM      8  C1  <0> d           1.010  -0.170  -2.324  0.00  0.00     0.001 A 
ATOM      9  C6  <0> d           1.293   1.182  -2.297  0.00  0.00     0.013 A 
ATOM     10  C7  <0> d           0.315   3.571  -1.827  0.00  0.00    -0.012 A 
ATOM     11  C12 <0> d          -0.961   4.003  -1.429  0.00  0.00     0.007 A 
ATOM     12  C8  <0> d           1.320   4.511  -2.038  0.00  0.00     0.013 A 
ATOM     13  C11 <0> d          -1.209   5.359  -1.250  0.00  0.00     0.015 A 
ATOM     14  C10 <0> d          -0.200   6.278  -1.464  0.00  0.00     0.001 A 
ATOM     15  C9  <0> d           1.058   5.855  -1.855  0.00  0.00     0.001 A 
ENDBRANCH   2   3
ENDBRANCH   1   2
BRANCH   1  16
ATOM     16  C14 <0> d          -5.128   1.683  -0.429  0.00  0.00     0.237 C 
BRANCH  16  17
ATOM     17  C15 <0> d          -5.772   0.297  -0.356  0.00  0.00     0.170 C 
BRANCH  17  18
ATOM     18  C16 <0> d          -7.264   0.444  -0.051  0.00  0.00     0.268 C 
BRANCH  18  19
ATOM     19  N2  <0> d          -7.913  -0.871  -0.137  0.00  0.00    -0.065 N 
ATOM     20  H25 <0> d          -7.491  -1.400  -1.004  0.00  0.00     0.280 HD
BRANCH  19  21
ATOM     21  C17 <0> d          -7.635  -1.675   1.061  0.00  0.00     0.261 C 
BRANCH  21  22
ATOM     22  C18 <0> d          -8.181  -0.955   2.296  0.00  0.00     0.192 C 
BRANCH  22  23
ATOM     23  O2  <0> d          -9.608  -1.007   2.286  0.00  0.00    -0.399 OA
ATOM     24  H18 <0> d         -10.182  -0.540   3.100  0.00  0.00     0.209 HD
ENDBRANCH  22  23
ENDBRANCH  21  22
ENDBRANCH  19  21
BRANCH  19  25
ATOM     25  C19 <0> d          -9.359  -0.732  -0.353  0.00  0.00     0.261 C 
BRANCH  25  26
ATOM     26  C20 <0> d          -9.940  -2.075  -0.799  0.00  0.00     0.192 C 
BRANCH  26  27
ATOM     27  O3  <0> d          -9.864  -3.009   0.280  0.00  0.00    -0.399 OA
ATOM     28  H23 <0> d         -10.237  -4.035   0.147  0.00  0.00     0.209 HD
ENDBRANCH  26  27
ENDBRANCH  25  26
ENDBRANCH  19  25
ENDBRANCH  18  19
ENDBRANCH  17  18
BRANCH  17  29
ATOM     29  O4  <0> d          -5.147  -0.465   0.678  0.00  0.00    -0.392 OA
ATOM     30  H24 <0> d          -5.479  -1.494   0.880  0.00  0.00     0.210 HD
ENDBRANCH  17  29
ENDBRANCH  16  17
ENDBRANCH   1  16
TORSDOF 13
