REMARK  5 active torsions:
REMARK  status: ('A' for Active; 'I' for Inactive)
REMARK    1  A    between atoms: C3_3  and  C6_8 
REMARK    2  A    between atoms: C6_8  and  N3_9 
REMARK       I    between atoms: N3_9  and  C7_10 
REMARK    3  A    between atoms: C7_10  and  C8_12 
REMARK    4  A    between atoms: C11_17  and  C20_27 
REMARK    5  A    between atoms: C13_19  and  C14_21 
ROOT
ATOM      1  C8  <0> d           2.941   0.932  -4.570  0.00  0.00     0.170 A 
ATOM      2  C9  <0> d           3.321   1.431  -5.836  0.00  0.00     0.115 A 
ATOM      3  C10 <0> d           4.646   1.678  -5.796  0.00  0.00     0.145 A 
ATOM      4  N4  <0> d           5.101   1.352  -4.549  0.00  0.00    -0.238 N 
ATOM      5  N5  <0> d           4.017   0.893  -3.803  0.00  0.00    -0.163 NA
ATOM      6  C11 <0> d           6.499   1.493  -4.132  0.00  0.00     0.221 C 
ATOM      7  C12 <0> d           7.204   2.467  -5.082  0.00  0.00     0.066 C 
ATOM      8  C13 <0> d           6.937   2.065  -6.537  0.00  0.00     0.118 C 
ATOM      9  N6  <0> d           5.488   2.175  -6.796  0.00  0.00    -0.365 N 
ATOM     10 Cl1  <0> d           2.272   1.680  -7.197  0.00  0.00    -0.077 Cl
ATOM     11  H15 <0> d           5.140   2.570  -7.611  0.00  0.00     0.162 HD
ENDROOT
BRANCH   1  12
ATOM     12  C7  <0> d           1.577   0.529  -4.170  0.00  0.00     0.274 C 
ATOM     13  N3  <0> d           1.347   0.073  -2.923  0.00  0.00    -0.351 N 
ATOM     14  H12 <0> d           2.077   0.008  -2.288  0.00  0.00     0.163 HD
ATOM     15  O1  <0> d           0.662   0.610  -4.967  0.00  0.00    -0.266 OA
BRANCH  13  16
ATOM     16  C6  <0> d          -0.006  -0.327  -2.527  0.00  0.00     0.165 C 
BRANCH  16  17
ATOM     17  C3  <0> d           0.008  -0.796  -1.095  0.00  0.00     0.003 A 
ATOM     18  C2  <0> d           0.002  -0.004   0.002  0.00  0.00     0.035 A 
ATOM     19  C1  <0> d          -0.018   1.503   0.010  0.00  0.00     0.070 C 
ATOM     20  N2  <0> d           0.024  -0.805   1.088  0.00  0.00    -0.278 N 
ATOM     21  N1  <0> d           0.035  -2.134   0.643  0.00  0.00    -0.184 NA
ATOM     22  C5  <0> d           0.031  -0.364   2.485  0.00  0.00     0.179 C 
ATOM     23  C4  <0> d           0.028  -2.127  -0.666  0.00  0.00     0.149 A 
ENDBRANCH  16  17
ENDBRANCH  13  16
ENDBRANCH   1  12
BRANCH   6  24
ATOM     24  C20 <0> d           6.555   2.036  -2.703  0.00  0.00     0.409 C 
ATOM     25  F1  <0> d           5.900   1.150  -1.841  0.00  0.00    -0.169 F 
ATOM     26  F2  <0> d           7.890   2.170  -2.307  0.00  0.00    -0.169 F 
ATOM     27  F3  <0> d           5.927   3.285  -2.653  0.00  0.00    -0.169 F 
ENDBRANCH   6  24
BRANCH   8  28
ATOM     28  C14 <0> d           7.388   0.644  -6.759  0.00  0.00    -0.035 A 
ATOM     29  C19 <0> d           8.605   0.392  -7.364  0.00  0.00     0.009 A 
ATOM     30  C18 <0> d           9.021  -0.911  -7.565  0.00  0.00     0.001 A 
ATOM     31  C17 <0> d           8.215  -1.962  -7.169  0.00  0.00     0.000 A 
ATOM     32  C16 <0> d           6.996  -1.710  -6.568  0.00  0.00     0.001 A 
ATOM     33  C15 <0> d           6.582  -0.407  -6.364  0.00  0.00     0.009 A 
ENDBRANCH   8  28
TORSDOF 5
