REMARK  8 active torsions:
REMARK  status: ('A' for Active; 'I' for Inactive)
REMARK    1  A    between atoms: C2_2  and  N1_3 
REMARK    2  A    between atoms: N2_6  and  C7_9 
REMARK    3  A    between atoms: C7_9  and  C8_10 
REMARK    4  A    between atoms: C11_13  and  C14_16 
REMARK    5  A    between atoms: N4_24  and  C21_25 
REMARK    6  A    between atoms: C21_25  and  C22_26 
REMARK    7  A    between atoms: C22_26  and  C23_27 
REMARK    8  A    between atoms: C23_27  and  N5_28 
ROOT
ATOM      1  C8  <0> d          -4.845  -4.144  -1.197  0.00  0.00    -0.030 A 
ATOM      2  C9  <0> d          -4.785  -4.744  -2.442  0.00  0.00     0.010 A 
ATOM      3  C10 <0> d          -4.724  -6.118  -2.547  0.00  0.00     0.016 A 
ATOM      4  C11 <0> d          -4.722  -6.903  -1.394  0.00  0.00     0.010 A 
ATOM      5  C12 <0> d          -4.782  -6.292  -0.141  0.00  0.00     0.016 A 
ATOM      6  C13 <0> d          -4.838  -4.917  -0.050  0.00  0.00     0.010 A 
ENDROOT
BRANCH   4   7
ATOM      7  C14 <0> d          -4.658  -8.377  -1.499  0.00  0.00     0.141 A 
ATOM      8  N4  <0> d          -4.240  -9.220  -0.504  0.00  0.00    -0.329 N 
ATOM      9  C20 <0> d          -4.332 -10.508  -0.995  0.00  0.00     0.065 A 
ATOM     10  C15 <0> d          -4.807 -10.393  -2.313  0.00  0.00     0.086 A 
ATOM     11  C19 <0> d          -4.058 -11.762  -0.467  0.00  0.00     0.032 A 
ATOM     12  N3  <0> d          -4.986  -9.072  -2.561  0.00  0.00    -0.228 NA
ATOM     13  C16 <0> d          -4.998 -11.548  -3.078  0.00  0.00     0.034 A 
ATOM     14  C17 <0> d          -4.723 -12.773  -2.541  0.00  0.00     0.002 A 
ATOM     15  C18 <0> d          -4.254 -12.887  -1.240  0.00  0.00     0.002 A 
BRANCH   8  16
ATOM     16  C21 <0> d          -3.786  -8.829   0.832  0.00  0.00     0.133 C 
BRANCH  16  17
ATOM     17  C22 <0> d          -4.961  -8.895   1.810  0.00  0.00     0.047 C 
BRANCH  17  18
ATOM     18  C23 <0> d          -4.486  -8.487   3.206  0.00  0.00     0.231 C 
BRANCH  18  19
ATOM     19  N5  <0> d          -5.614  -8.550   4.145  0.00  0.00    -0.079 N 
ATOM     20  H30 <0> d          -5.301  -8.281   5.066  0.00  0.00     0.274 HD
ATOM     21  H31 <0> d          -6.342  -7.921   3.840  0.00  0.00     0.274 HD
ATOM     22  H32 <0> d          -5.975  -9.492   4.175  0.00  0.00     0.274 HD
ENDBRANCH  18  19
ENDBRANCH  17  18
ENDBRANCH  16  17
ENDBRANCH   8  16
ENDBRANCH   4   7
BRANCH   1  23
ATOM     23  C7  <0> d          -4.911  -2.642  -1.090  0.00  0.00     0.311 C 
BRANCH  23  24
ATOM     24  N2  <0> d          -3.550  -2.095  -1.024  0.00  0.00     0.095 N 
ATOM     25  C4  <0> d          -3.563  -0.632  -1.158  0.00  0.00     0.300 C 
ATOM     26  C3  <0> d          -2.125  -0.108  -1.144  0.00  0.00     0.265 C 
ATOM     27  N1  <0> d          -1.474  -0.497   0.115  0.00  0.00    -0.068 N 
ATOM     28  C6  <0> d          -1.447  -1.961   0.222  0.00  0.00     0.265 C 
ATOM     29  H33 <0> d          -1.990  -0.112   0.892  0.00  0.00     0.280 HD
ATOM     30  C5  <0> d          -2.879  -2.500   0.220  0.00  0.00     0.300 C 
BRANCH  27  31
ATOM     31  C2  <0> d          -0.100   0.022   0.135  0.00  0.00     0.230 C 
ATOM     32  C1  <0> d          -0.132   1.551   0.149  0.00  0.00     0.034 C 
ENDBRANCH  27  31
ENDBRANCH  23  24
ENDBRANCH   1  23
TORSDOF 8
