REMARK  4 active torsions:
REMARK  status: ('A' for Active; 'I' for Inactive)
REMARK    1  A    between atoms: C2_2  and  C3_3 
REMARK    2  A    between atoms: C3_3  and  C4_4 
REMARK    3  A    between atoms: C4_4  and  N1_5 
REMARK       I    between atoms: N1_5  and  C5_6 
REMARK    4  A    between atoms: C5_6  and  C6_8 
ROOT
ATOM      1  C6  <0> d           2.267   5.423   0.009  0.00  0.00     0.098 A 
ATOM      2  C7  <0> d           1.006   5.982   0.024  0.00  0.00     0.109 A 
ATOM      3  N2  <0> d          -0.105   5.235   0.030  0.00  0.00    -0.364 N 
ATOM      4  H1  <0> d          -0.966   5.683   0.040  0.00  0.00     0.165 HD
ATOM      5  C8  <0> d          -0.079   3.857   0.023  0.00  0.00     0.046 A 
ATOM      6  C9  <0> d          -1.265   3.127   0.029  0.00  0.00     0.030 A 
ATOM      7  C10 <0> d          -1.226   1.750   0.017  0.00  0.00     0.002 A 
ATOM      8  C11 <0> d          -0.013   1.076   0.008  0.00  0.00     0.001 A 
ATOM      9  C12 <0> d           1.172   1.778   0.000  0.00  0.00     0.018 A 
ATOM     10  C13 <0> d           1.147   3.172   0.008  0.00  0.00     0.042 A 
ATOM     11  C14 <0> d           2.396   3.958   0.000  0.00  0.00     0.201 A 
ATOM     12  O2  <0> d           3.487   3.416  -0.012  0.00  0.00    -0.286 OA
ENDROOT
BRANCH   1  13
ATOM     13  C5  <0> d           3.465   6.279   0.003  0.00  0.00     0.257 C 
ATOM     14  N1  <0> d           3.334   7.620   0.011  0.00  0.00    -0.357 N 
ATOM     15  H11 <0> d           2.451   8.022   0.022  0.00  0.00     0.162 HD
ATOM     16  O1  <0> d           4.572   5.776  -0.011  0.00  0.00    -0.267 OA
BRANCH  14  17
ATOM     17  C4  <0> d           4.526   8.472   0.004  0.00  0.00     0.123 C 
BRANCH  17  18
ATOM     18  C3  <0> d           4.102   9.942   0.016  0.00  0.00     0.019 C 
BRANCH  18  19
ATOM     19  C2  <0> d           5.347  10.832   0.009  0.00  0.00    -0.003 C 
ATOM     20  C1  <0> d           4.923  12.302   0.021  0.00  0.00     0.005 C 
ENDBRANCH  18  19
ENDBRANCH  17  18
ENDBRANCH  14  17
ENDBRANCH   1  13
TORSDOF 4
