REMARK  6 active torsions:
REMARK  status: ('A' for Active; 'I' for Inactive)
REMARK    1  A    between atoms: C2_2  and  O1_3 
REMARK    2  A    between atoms: O1_3  and  C3_4 
REMARK    3  A    between atoms: C8_9  and  N1_10 
REMARK    4  A    between atoms: C10_13  and  C11_14 
REMARK    5  A    between atoms: N2_15  and  N3_16 
REMARK       I    between atoms: N3_16  and  C12_17 
REMARK    6  A    between atoms: C12_17  and  C13_19 
ROOT
ATOM      1  N1  <0> d          -3.700  -1.231   0.040  0.00  0.00    -0.236 N 
ATOM      2  C9  <0> d          -4.368  -1.026  -1.116  0.00  0.00     0.273 A 
ATOM      3  O2  <0> d          -4.032  -1.587  -2.143  0.00  0.00    -0.266 OA
ATOM      4  C10 <0> d          -5.515  -0.104  -1.093  0.00  0.00     0.119 A 
ATOM      5  C19 <0> d          -5.842   0.525   0.203  0.00  0.00     0.287 A 
ATOM      6  N4  <0> d          -5.083   0.222   1.269  0.00  0.00    -0.165 NA
ATOM      7  C20 <0> d          -4.077  -0.611   1.190  0.00  0.00     0.291 A 
ATOM      8  O4  <0> d          -3.370  -0.864   2.309  0.00  0.00    -0.148 OA
ATOM      9  O5  <0> d          -6.778   1.301   0.302  0.00  0.00    -0.265 OA
ENDROOT
BRANCH   4  10
ATOM     10  C11 <0> d          -6.253   0.161  -2.232  0.00  0.00     0.130 C 
ATOM     11  N2  <0> d          -7.390   0.879  -2.147  0.00  0.00    -0.308 N 
ATOM     12  H11 <0> d          -7.734   1.141  -1.278  0.00  0.00     0.186 HD
BRANCH  11  13
ATOM     13  N3  <0> d          -8.075   1.247  -3.312  0.00  0.00    -0.266 N 
ATOM     14  C12 <0> d          -9.213   1.965  -3.226  0.00  0.00     0.270 C 
ATOM     15  O3  <0> d          -9.644   2.293  -2.138  0.00  0.00    -0.266 OA
ATOM     16  H12 <0> d          -7.731   0.985  -4.180  0.00  0.00     0.190 HD
BRANCH  14  17
ATOM     17  C13 <0> d          -9.936   2.353  -4.456  0.00  0.00     0.033 A 
ATOM     18  C18 <0> d         -11.114   3.096  -4.371  0.00  0.00     0.017 A 
ATOM     19  C17 <0> d         -11.782   3.460  -5.523  0.00  0.00     0.001 A 
ATOM     20  C16 <0> d         -11.291   3.079  -6.759  0.00  0.00     0.000 A 
ATOM     21  C15 <0> d         -10.127   2.337  -6.850  0.00  0.00     0.001 A 
ATOM     22  C14 <0> d          -9.447   1.972  -5.707  0.00  0.00     0.017 A 
ENDBRANCH  14  17
ENDBRANCH  11  13
ENDBRANCH   4  10
BRANCH   1  23
ATOM     23  C8  <0> d          -2.602  -2.104   0.055  0.00  0.00     0.079 A 
ATOM     24  C3  <0> d          -1.320  -1.618  -0.193  0.00  0.00     0.096 A 
ATOM     25  C4  <0> d          -0.238  -2.483  -0.170  0.00  0.00     0.039 A 
ATOM     26  C5  <0> d          -0.433  -3.826   0.091  0.00  0.00     0.003 A 
ATOM     27  C6  <0> d          -1.706  -4.311   0.332  0.00  0.00     0.002 A 
ATOM     28  C7  <0> d          -2.789  -3.454   0.312  0.00  0.00     0.033 A 
BRANCH  24  29
ATOM     29  O1  <0> d          -1.131  -0.296  -0.450  0.00  0.00    -0.349 OA
BRANCH  29  30
ATOM     30  C2  <0> d           0.211   0.131  -0.695  0.00  0.00     0.171 C 
ATOM     31  C1  <0> d           0.225   1.637  -0.963  0.00  0.00     0.034 C 
ENDBRANCH  29  30
ENDBRANCH  24  29
ENDBRANCH   1  23
TORSDOF 6
