REMARK  8 active torsions:
REMARK  status: ('A' for Active; 'I' for Inactive)
REMARK    1  A    between atoms: C5_6  and  C6_7 
REMARK       I    between atoms: C6_7  and  N1_9 
REMARK    2  A    between atoms: C8_11  and  C15_19 
REMARK       I    between atoms: C15_19  and  N3_21 
REMARK    3  A    between atoms: N3_21  and  C16_22 
REMARK    4  A    between atoms: C16_22  and  C17_23 
REMARK    5  A    between atoms: C17_23  and  C18_24 
REMARK    6  A    between atoms: C18_24  and  C19_25 
REMARK    7  A    between atoms: C19_25  and  C20_26 
REMARK    8  A    between atoms: C20_26  and  C21_27 
ROOT
ATOM      1  C6  <0> d          -1.568  -0.548  -0.108  0.00  0.00     0.224 C 
ATOM      2  O2  <0> d          -2.521   0.201  -0.092  0.00  0.00    -0.273 OA
ATOM      3  N1  <0> d          -1.760  -1.882  -0.089  0.00  0.00    -0.350 N 
ATOM      4  C7  <0> d          -0.730  -2.948  -0.098  0.00  0.00     0.140 C 
ATOM      5  C8  <0> d          -1.272  -4.022   0.872  0.00  0.00     0.106 C 
ATOM      6  C9  <0> d          -2.794  -3.800   0.893  0.00  0.00    -0.007 C 
ATOM      7  C10 <0> d          -3.048  -2.615  -0.050  0.00  0.00     0.136 C 
ATOM      8  C11 <0> d          -3.257  -3.451   2.304  0.00  0.00     0.039 C 
ATOM      9  C12 <0> d          -4.780  -3.291   2.311  0.00  0.00     0.233 C 
ATOM     10  N2  <0> d          -5.407  -4.540   1.862  0.00  0.00    -0.075 N 
ATOM     11  C13 <0> d          -5.030  -4.819   0.472  0.00  0.00     0.233 C 
ATOM     12  C14 <0> d          -3.517  -5.044   0.387  0.00  0.00     0.039 C 
ATOM     13  H19 <0> d          -5.101  -5.299   2.452  0.00  0.00     0.277 HD
ATOM     14  H35 <0> d          -6.411  -4.452   1.926  0.00  0.00     0.277 HD
ENDROOT
BRANCH   5  15
ATOM     15  C15 <0> d          -0.949  -5.402   0.360  0.00  0.00     0.224 C 
ATOM     16  O3  <0> d          -0.870  -5.604  -0.833  0.00  0.00    -0.273 OA
ATOM     17  N3  <0> d          -0.746  -6.413   1.229  0.00  0.00    -0.361 N 
ATOM     18  H24 <0> d          -0.809  -6.252   2.183  0.00  0.00     0.162 HD
BRANCH  17  19
ATOM     19  C16 <0> d          -0.432  -7.754   0.731  0.00  0.00     0.122 C 
BRANCH  19  20
ATOM     20  C17 <0> d          -0.251  -8.708   1.914  0.00  0.00     0.020 C 
BRANCH  20  21
ATOM     21  C18 <0> d           0.078 -10.109   1.395  0.00  0.00     0.002 C 
BRANCH  21  22
ATOM     22  C19 <0> d           0.258 -11.062   2.578  0.00  0.00     0.010 C 
BRANCH  22  23
ATOM     23  C20 <0> d           0.587 -12.463   2.058  0.00  0.00     0.113 C 
BRANCH  23  24
ATOM     24  C21 <0> d           0.765 -13.402   3.224  0.00  0.00     0.172 C 
ATOM     25  O4  <0> d           0.641 -12.989   4.364  0.00  0.00    -0.648 OA
ATOM     26  O5  <0> d           1.033 -14.575   3.026  0.00  0.00    -0.648 OA
ENDBRANCH  23  24
ENDBRANCH  22  23
ENDBRANCH  21  22
ENDBRANCH  20  21
ENDBRANCH  19  20
ENDBRANCH  17  19
ENDBRANCH   5  15
BRANCH   1  27
ATOM     27  C5  <0> d          -0.169   0.011  -0.148  0.00  0.00     0.082 C 
ATOM     28  C1  <0> d          -0.230   1.542  -0.162  0.00  0.00     0.040 C 
ATOM     29  C2  <0> d           1.190   2.100  -0.282  0.00  0.00     0.168 C 
ATOM     30  O1  <0> d           1.804   1.587  -1.466  0.00  0.00    -0.391 OA
ATOM     31  C3  <0> d           1.931   0.164  -1.488  0.00  0.00     0.168 C 
ATOM     32  C4  <0> d           0.540  -0.472  -1.417  0.00  0.00     0.040 C 
ENDBRANCH   1  27
TORSDOF 8
