REMARK  2 active torsions:
REMARK  status: ('A' for Active; 'I' for Inactive)
REMARK    1  A    between atoms: C5_5  and  N1_7 
REMARK       I    between atoms: N1_7  and  C7_8 
REMARK    2  A    between atoms: C7_8  and  C8_10 
ROOT
ATOM      1  N1  <0> d           1.236  -2.080  -0.021  0.00  0.00    -0.319 N 
ATOM      2  C7  <0> d           0.085  -2.773   0.088  0.00  0.00     0.278 C 
ATOM      3  O1  <0> d          -0.979  -2.185   0.102  0.00  0.00    -0.265 OA
ATOM      4  H5  <0> d           2.079  -2.551  -0.113  0.00  0.00     0.169 HD
ENDROOT
BRANCH   2   5
ATOM      5  C8  <0> d           0.117  -4.246   0.190  0.00  0.00     0.169 A 
ATOM      6  N3  <0> d           1.208  -4.999   0.186  0.00  0.00    -0.160 NA
ATOM      7  N2  <0> d           0.831  -6.342   0.304  0.00  0.00    -0.243 N 
ATOM      8  C10 <0> d          -0.540  -6.387   0.372  0.00  0.00     0.082 A 
ATOM      9  C14 <0> d           1.557  -7.499   0.351  0.00  0.00     0.119 A 
ATOM     10  C9  <0> d          -1.000  -5.081   0.302  0.00  0.00     0.098 A 
ATOM     11  C11 <0> d          -1.198  -7.628   0.490  0.00  0.00     0.033 A 
ATOM     12 Cl1  <0> d          -2.660  -4.574   0.345  0.00  0.00    -0.079 Cl
ATOM     13  C12 <0> d          -0.460  -8.770   0.535  0.00  0.00     0.004 A 
ATOM     14  C13 <0> d           0.942  -8.694   0.464  0.00  0.00     0.019 A 
ENDBRANCH   2   5
BRANCH   1  15
ATOM     15  C5  <0> d           1.215  -0.681  -0.002  0.00  0.00     0.073 A 
ATOM     16  C4  <0> d           2.240   0.040  -0.606  0.00  0.00     0.143 A 
ATOM     17  C3  <0> d           2.215   1.423  -0.585  0.00  0.00     0.044 A 
ATOM     18  F1  <0> d           3.257  -0.609  -1.212  0.00  0.00    -0.204 F 
ATOM     19  C2  <0> d           1.173   2.087   0.036  0.00  0.00     0.003 A 
ATOM     20  C1  <0> d           0.153   1.372   0.637  0.00  0.00     0.002 A 
ATOM     21  C6  <0> d           0.172  -0.009   0.620  0.00  0.00     0.033 A 
ENDBRANCH   1  15
TORSDOF 2
