REMARK  7 active torsions:
REMARK  status: ('A' for Active; 'I' for Inactive)
REMARK    1  A    between atoms: C2_2  and  C3_3 
REMARK    2  A    between atoms: C3_3  and  N1_4 
REMARK    3  A    between atoms: N1_4  and  C4_5 
REMARK    4  A    between atoms: N1_4  and  S1_8 
REMARK    5  A    between atoms: C4_5  and  C5_6 
REMARK    6  A    between atoms: S1_8  and  C7_11 
REMARK    7  A    between atoms: C8_12  and  N2_19 
ROOT
ATOM      1  C7  <0> d           1.049  -0.417   3.820  0.00  0.00     0.123 A 
ATOM      2  C8  <0> d           0.673   0.891   3.536  0.00  0.00     0.051 A 
ATOM      3  C9  <0> d          -0.514   1.396   4.049  0.00  0.00     0.049 A 
ATOM      4  C10 <0> d          -1.319   0.597   4.839  0.00  0.00     0.014 A 
ATOM      5  C11 <0> d          -0.943  -0.704   5.120  0.00  0.00     0.040 A 
ATOM      6  C12 <0> d           0.237  -1.212   4.606  0.00  0.00     0.037 A 
ATOM      7 Br1  <0> d           0.743  -2.994   4.985  0.00  0.00    -0.049 Br
ATOM      8 Br2  <0> d          -2.937   1.284   5.538  0.00  0.00    -0.051 Br
ENDROOT
BRANCH   1   9
ATOM      9  S1  <0> d           2.554  -1.062   3.171  0.00  0.00     0.264 S 
ATOM     10  O1  <0> d           2.951  -2.116   4.037  0.00  0.00    -0.200 OA
ATOM     11  O2  <0> d           3.390   0.054   2.897  0.00  0.00    -0.200 OA
BRANCH   9  12
ATOM     12  N1  <0> d           2.200  -1.758   1.710  0.00  0.00    -0.300 N 
BRANCH  12  13
ATOM     13  C3  <0> d           2.267  -0.960   0.483  0.00  0.00     0.162 C 
BRANCH  13  14
ATOM     14  C2  <0> d           0.896  -0.426   0.156  0.00  0.00    -0.017 C 
ATOM     15  C1  <0> d           0.717   0.861  -0.010  0.00  0.00     0.008 C 
ENDBRANCH  13  14
ENDBRANCH  12  13
BRANCH  12  16
ATOM     16  C4  <0> d           1.820  -3.171   1.645  0.00  0.00     0.162 C 
BRANCH  16  17
ATOM     17  C5  <0> d           3.037  -4.005   1.341  0.00  0.00    -0.017 C 
ATOM     18  C6  <0> d           3.369  -4.994   2.134  0.00  0.00     0.008 C 
ENDBRANCH  16  17
ENDBRANCH  12  16
ENDBRANCH   9  12
ENDBRANCH   1   9
BRANCH   2  19
ATOM     19  N2  <0> d           1.489   1.696   2.738  0.00  0.00    -0.398 N 
ATOM     20  H13 <0> d           2.126   1.288   2.130  0.00  0.00     0.156 HD
ATOM     21  H14 <0> d           1.419   2.662   2.791  0.00  0.00     0.156 HD
ENDBRANCH   2  19
TORSDOF 7
