REMARK  1 active torsions:
REMARK  status: ('A' for Active; 'I' for Inactive)
REMARK    1  A    between atoms: C4_4  and  C5_8 
REMARK       I    between atoms: C5_8  and  N3_10 
ROOT
ATOM      1  C5  <0> d           0.061  -3.381   1.364  0.00  0.00     0.275 C 
ATOM      2  O1  <0> d           0.192  -3.334   2.572  0.00  0.00    -0.266 OA
ATOM      3  N3  <0> d          -0.030  -4.574   0.743  0.00  0.00    -0.343 N 
ATOM      4  C6  <0> d          -0.038  -4.645  -0.724  0.00  0.00     0.154 C 
ATOM      5  C7  <0> d           0.923  -5.748  -1.199  0.00  0.00     0.255 C 
ATOM      6  N4  <0> d           0.590  -6.970  -0.480  0.00  0.00    -0.064 N 
ATOM      7  C8  <0> d           1.330  -8.166  -0.886  0.00  0.00     0.235 C 
ATOM      8  C9  <0> d           1.440  -9.049   0.380  0.00  0.00     0.030 C 
ATOM      9  C10 <0> d           0.799  -8.205   1.516  0.00  0.00     0.036 C 
ATOM     10  C11 <0> d           0.917  -6.776   0.958  0.00  0.00     0.206 C 
ATOM     11  C12 <0> d          -0.117  -5.819   1.532  0.00  0.00     0.159 C 
ATOM     12  H18 <0> d          -0.398  -7.152  -0.573  0.00  0.00     0.280 HD
ENDROOT
BRANCH   1  13
ATOM     13  C4  <0> d           0.002  -2.133   0.578  0.00  0.00     0.163 A 
ATOM     14  C3  <0> d           0.208  -0.820   1.067  0.00  0.00     0.070 A 
ATOM     15  C2  <0> d           0.055  -0.006  -0.004  0.00  0.00     0.044 A 
ATOM     16 Br1  <0> d           0.612  -0.311   2.843  0.00  0.00    -0.046 Br
ATOM     17  C1  <0> d           0.176   1.496  -0.012  0.00  0.00     0.071 C 
ATOM     18  N2  <0> d          -0.232  -0.796  -1.069  0.00  0.00    -0.281 N 
ATOM     19  N1  <0> d          -0.253  -2.030  -0.711  0.00  0.00    -0.168 NA
ATOM     20  H1  <0> d          -0.396  -0.476  -1.970  0.00  0.00     0.189 HD
ENDBRANCH   1  13
TORSDOF 1
