REMARK  4 active torsions:
REMARK  status: ('A' for Active; 'I' for Inactive)
REMARK    1  A    between atoms: C4_4  and  C7_7 
REMARK    2  A    between atoms: C7_7  and  C8_8 
REMARK    3  A    between atoms: C7_7  and  N4_24 
REMARK    4  A    between atoms: C8_8  and  N1_9 
ROOT
ATOM      1  N1  <0> d          -1.040   2.810  -3.683  0.00  0.00    -0.305 N 
ATOM      2  C9  <0> d          -1.751   3.785  -3.057  0.00  0.00     0.213 A 
ATOM      3  N2  <0> d          -1.493   5.046  -3.190  0.00  0.00    -0.240 NA
ATOM      4  C10 <0> d          -0.475   5.498  -3.995  0.00  0.00     0.109 A 
ATOM      5  C11 <0> d          -0.096   6.836  -4.229  0.00  0.00     0.089 A 
ATOM      6  C12 <0> d           0.961   7.042  -5.086  0.00  0.00     0.071 A 
ATOM      7  S1  <0> d           1.468   5.429  -5.590  0.00  0.00    -0.073 SA
ATOM      8  C13 <0> d           0.270   4.505  -4.660  0.00  0.00     0.105 A 
ATOM      9  C14 <0> d          -0.016   3.154  -4.500  0.00  0.00     0.268 A 
ATOM     10  O1  <0> d           0.637   2.302  -5.080  0.00  0.00    -0.266 OA
ATOM     11  S2  <0> d           1.598   8.615  -5.526  0.00  0.00    -0.111 SA
ATOM     12  C15 <0> d           0.141   9.679  -5.256  0.00  0.00     0.183 C 
ATOM     13  C16 <0> d          -0.587   9.213  -4.028  0.00  0.00     0.231 C 
ATOM     14  O2  <0> d          -1.088  10.071  -3.332  0.00  0.00    -0.272 OA
ATOM     15  N3  <0> d          -0.739   7.953  -3.627  0.00  0.00    -0.323 N 
ATOM     16  H12 <0> d          -1.414   7.804  -2.771  0.00  0.00     0.169 HD
ENDROOT
BRANCH   1  17
ATOM     17  C8  <0> d          -1.382   1.400  -3.481  0.00  0.00     0.171 C 
BRANCH  17  18
ATOM     18  C7  <0> d          -0.464   0.800  -2.414  0.00  0.00     0.239 C 
BRANCH  18  19
ATOM     19  C4  <0> d          -0.910  -0.604  -2.098  0.00  0.00    -0.026 A 
ATOM     20  C3  <0> d          -0.165  -1.682  -2.538  0.00  0.00     0.009 A 
ATOM     21  C2  <0> d          -0.575  -2.970  -2.248  0.00  0.00     0.001 A 
ATOM     22  C1  <0> d          -1.729  -3.180  -1.517  0.00  0.00     0.000 A 
ATOM     23  C6  <0> d          -2.474  -2.102  -1.077  0.00  0.00     0.001 A 
ATOM     24  C5  <0> d          -2.062  -0.814  -1.363  0.00  0.00     0.009 A 
ENDBRANCH  18  19
BRANCH  18  25
ATOM     25  N4  <0> d          -0.526   1.620  -1.197  0.00  0.00    -0.061 N 
ATOM     26  C20 <0> d          -0.001   0.873  -0.025  0.00  0.00     0.236 C 
ATOM     27  C19 <0> d           0.374   1.968   0.998  0.00  0.00     0.029 C 
ATOM     28  C18 <0> d           0.615   3.241   0.154  0.00  0.00     0.029 C 
ATOM     29  C17 <0> d           0.365   2.803  -1.305  0.00  0.00     0.236 C 
ATOM     30  H21 <0> d          -1.586   1.894  -1.086  0.00  0.00     0.280 HD
ENDBRANCH  18  25
ENDBRANCH  17  18
ENDBRANCH   1  17
TORSDOF 4
