REMARK  4 active torsions:
REMARK  status: ('A' for Active; 'I' for Inactive)
REMARK    1  A    between atoms: S1_2  and  C2_3 
REMARK    2  A    between atoms: C5_6  and  C8_9 
REMARK    3  A    between atoms: C9_10  and  C13_17 
REMARK       I    between atoms: C13_17  and  N3_19 
REMARK    4  A    between atoms: N3_19  and  C14_20 
ROOT
ATOM      1  C8  <0> d          -5.834  -1.541   0.049  0.00  0.00     0.138 C 
ATOM      2  C9  <0> d          -6.277  -1.910  -1.373  0.00  0.00     0.154 C 
ATOM      3  C10 <0> d          -5.612  -3.223  -1.733  0.00  0.00     0.020 C 
ATOM      4  C11 <0> d          -4.982  -3.384  -2.881  0.00  0.00     0.039 C 
ATOM      5  N1  <0> d          -5.695  -4.259  -0.795  0.00  0.00    -0.313 N 
ATOM      6  C12 <0> d          -5.910  -3.955   0.498  0.00  0.00     0.321 C 
ATOM      7  O1  <0> d          -6.008  -4.861   1.303  0.00  0.00    -0.247 OA
ATOM      8  N2  <0> d          -6.021  -2.692   0.931  0.00  0.00    -0.333 N 
ATOM      9  H12 <0> d          -5.599  -5.183  -1.074  0.00  0.00     0.170 HD
ATOM     10  H13 <0> d          -6.232  -2.536   1.865  0.00  0.00     0.165 HD
ENDROOT
BRANCH   2  11
ATOM     11  C13 <0> d          -7.775  -2.064  -1.418  0.00  0.00     0.234 C 
ATOM     12  O2  <0> d          -8.433  -1.897  -0.413  0.00  0.00    -0.272 OA
ATOM     13  N3  <0> d          -8.385  -2.388  -2.576  0.00  0.00    -0.326 N 
ATOM     14  H14 <0> d          -7.868  -2.456  -3.394  0.00  0.00     0.169 HD
BRANCH  13  15
ATOM     15  C14 <0> d          -9.764  -2.627  -2.598  0.00  0.00     0.034 A 
ATOM     16  C19 <0> d         -10.609  -1.900  -1.770  0.00  0.00     0.031 A 
ATOM     17  C18 <0> d         -11.970  -2.134  -1.797  0.00  0.00     0.021 A 
ATOM     18  C17 <0> d         -12.490  -3.099  -2.641  0.00  0.00     0.011 A 
ATOM     19  C16 <0> d         -11.650  -3.829  -3.463  0.00  0.00     0.021 A 
ATOM     20 Br1  <0> d         -14.353  -3.422  -2.670  0.00  0.00    -0.051 Br
ATOM     21  C15 <0> d         -10.289  -3.595  -3.444  0.00  0.00     0.031 A 
ENDBRANCH  13  15
ENDBRANCH   2  11
BRANCH   1  22
ATOM     22  C5  <0> d          -4.379  -1.149   0.036  0.00  0.00    -0.034 A 
ATOM     23  C4  <0> d          -4.026   0.188   0.039  0.00  0.00     0.010 A 
ATOM     24  C3  <0> d          -2.693   0.552   0.027  0.00  0.00     0.019 A 
ATOM     25  C2  <0> d          -1.708  -0.428   0.012  0.00  0.00    -0.000 A 
ATOM     26  C7  <0> d          -2.067  -1.770   0.003  0.00  0.00     0.019 A 
ATOM     27  C6  <0> d          -3.401  -2.126   0.021  0.00  0.00     0.010 A 
BRANCH  25  28
ATOM     28  S1  <0> d          -0.007   0.031  -0.003  0.00  0.00    -0.134 SA
ATOM     29  C1  <0> d          -0.041   1.845   0.015  0.00  0.00     0.095 C 
ENDBRANCH  25  28
ENDBRANCH   1  22
TORSDOF 4
