REMARK  3 active torsions:
REMARK  status: ('A' for Active; 'I' for Inactive)
REMARK    1  A    between atoms: C4_4  and  C7_7 
REMARK    2  A    between atoms: C15_17  and  N2_18 
REMARK    3  A    between atoms: C18_21  and  C21_24 
REMARK       I    between atoms: C21_24  and  N3_26 
ROOT
ATOM      1  C7  <0> d           3.648  -0.649  -0.037  0.00  0.00     0.007 A 
ATOM      2  C8  <0> d           4.861   0.036  -0.144  0.00  0.00     0.002 A 
ATOM      3  C9  <0> d           4.888   1.444  -0.239  0.00  0.00     0.038 A 
ATOM      4  C10 <0> d           6.083   2.086  -0.342  0.00  0.00     0.035 A 
ATOM      5  C11 <0> d           7.286   1.381  -0.355  0.00  0.00     0.026 A 
ATOM      6  C12 <0> d           7.323   0.023  -0.268  0.00  0.00     0.032 A 
ATOM      7  C13 <0> d           6.126  -0.707  -0.158  0.00  0.00     0.045 A 
ATOM      8  N1  <0> d           6.165  -2.041  -0.071  0.00  0.00    -0.324 N 
ATOM      9  C14 <0> d           5.089  -2.796   0.033  0.00  0.00     0.260 A 
ATOM     10  O1  <0> d           5.200  -4.006   0.108  0.00  0.00    -0.270 OA
ATOM     11  C15 <0> d           3.718  -2.161   0.066  0.00  0.00     0.349 A 
ATOM     12 Cl1  <0> d           6.111   3.818  -0.459  0.00  0.00    -0.084 Cl
ATOM     13  H21 <0> d           7.032  -2.477  -0.085  0.00  0.00     0.169 HD
ENDROOT
BRANCH  11  14
ATOM     14  N2  <0> d           3.062  -2.557   1.320  0.00  0.00     0.106 N 
ATOM     15  C20 <0> d           2.985  -4.019   1.434  0.00  0.00     0.275 C 
ATOM     16  C19 <0> d           2.171  -4.393   2.675  0.00  0.00     0.044 C 
ATOM     17  C18 <0> d           2.841  -3.800   3.917  0.00  0.00     0.081 C 
ATOM     18  C17 <0> d           2.953  -2.282   3.751  0.00  0.00     0.044 C 
ATOM     19  C16 <0> d           3.744  -1.969   2.480  0.00  0.00     0.275 C 
BRANCH  17  20
ATOM     20  C21 <0> d           2.012  -4.115   5.135  0.00  0.00     0.219 C 
ATOM     21  O2  <0> d           1.554  -3.214   5.806  0.00  0.00    -0.273 OA
ATOM     22  N3  <0> d           1.779  -5.397   5.479  0.00  0.00    -0.370 N 
ATOM     23  H19 <0> d           2.145  -6.117   4.943  0.00  0.00     0.159 HD
ATOM     24  H20 <0> d           1.245  -5.599   6.263  0.00  0.00     0.159 HD
ENDBRANCH  17  20
ENDBRANCH  11  14
BRANCH   1  25
ATOM     25  C4  <0> d           2.408   0.038  -0.021  0.00  0.00    -0.026 A 
ATOM     26  C3  <0> d           1.476  -0.161  -1.053  0.00  0.00     0.012 A 
ATOM     27  C2  <0> d           0.274   0.511  -1.027  0.00  0.00     0.001 A 
ATOM     28  C1  <0> d          -0.017   1.380   0.012  0.00  0.00     0.000 A 
ATOM     29  C6  <0> d           0.895   1.583   1.034  0.00  0.00     0.001 A 
ATOM     30  C5  <0> d           2.103   0.921   1.027  0.00  0.00     0.012 A 
ENDBRANCH   1  25
TORSDOF 3
