REMARK  6 active torsions:
REMARK  status: ('A' for Active; 'I' for Inactive)
REMARK       I    between atoms: C2_2  and  N1_4 
REMARK    1  A    between atoms: N1_4  and  C3_5 
REMARK    2  A    between atoms: C3_5  and  C4_6 
REMARK    3  A    between atoms: C9_11  and  C10_12 
REMARK    4  A    between atoms: C9_11  and  N4_31 
REMARK    5  A    between atoms: C12_17  and  C13_18 
REMARK    6  A    between atoms: C18_23  and  O2_28 
ROOT
ATOM      1  C10 <0> d          -8.681  -0.335   4.347  0.00  0.00     0.016 A 
ATOM      2  C11 <0> d          -9.966  -0.667   4.091  0.00  0.00     0.120 A 
ATOM      3  N2  <0> d         -10.156  -0.596   2.756  0.00  0.00    -0.288 N 
ATOM      4  H2  <0> d         -11.009  -0.792   2.273  0.00  0.00     0.188 HD
ATOM      5  N3  <0> d          -8.950  -0.200   2.164  0.00  0.00    -0.174 NA
ATOM      6  C12 <0> d          -8.059  -0.038   3.119  0.00  0.00     0.096 A 
ENDROOT
BRANCH   1   7
ATOM      7  C9  <0> d          -8.032  -0.287   5.706  0.00  0.00     0.277 C 
BRANCH   7   8
ATOM      8  N4  <0> d          -7.960   1.118   6.159  0.00  0.00    -0.067 N 
ATOM      9  C7  <0> d          -9.268   1.779   5.962  0.00  0.00     0.235 C 
ATOM     10  C6  <0> d          -9.136   3.260   6.327  0.00  0.00     0.028 C 
ATOM     11  C5  <0> d          -8.710   3.383   7.793  0.00  0.00     0.009 C 
ATOM     12  C4  <0> d          -7.393   2.631   7.999  0.00  0.00     0.029 C 
ATOM     13  C8  <0> d          -7.575   1.169   7.586  0.00  0.00     0.241 C 
ATOM     14  H29 <0> d          -7.251   1.611   5.605  0.00  0.00     0.280 HD
BRANCH  12  15
ATOM     15  C3  <0> d          -6.991   2.700   9.473  0.00  0.00     0.128 C 
BRANCH  15  16
ATOM     16  N1  <0> d          -6.700   4.089   9.837  0.00  0.00    -0.361 N 
ATOM     17  C2  <0> d          -6.324   4.391  11.095  0.00  0.00     0.213 C 
ATOM     18  C1  <0> d          -6.025   5.821  11.469  0.00  0.00     0.117 C 
ATOM     19  O1  <0> d          -6.225   3.514  11.926  0.00  0.00    -0.274 OA
ATOM     20  H6  <0> d          -6.779   4.791   9.172  0.00  0.00     0.162 HD
ENDBRANCH  15  16
ENDBRANCH  12  15
ENDBRANCH   7   8
ENDBRANCH   1   7
BRANCH   6  21
ATOM     21  C13 <0> d          -6.646   0.378   2.935  0.00  0.00    -0.004 A 
ATOM     22  C22 <0> d          -5.950  -0.038   1.816  0.00  0.00     0.026 A 
ATOM     23  C21 <0> d          -4.614   0.357   1.647  0.00  0.00    -0.025 A 
ATOM     24  C16 <0> d          -4.001   1.179   2.626  0.00  0.00    -0.023 A 
ATOM     25  C20 <0> d          -3.874  -0.047   0.521  0.00  0.00     0.015 A 
ATOM     26  C15 <0> d          -4.737   1.586   3.753  0.00  0.00     0.013 A 
ATOM     27  C17 <0> d          -2.664   1.574   2.454  0.00  0.00     0.049 A 
ATOM     28  C14 <0> d          -6.029   1.192   3.899  0.00  0.00     0.014 A 
ATOM     29  C18 <0> d          -1.975   1.163   1.348  0.00  0.00     0.069 A 
ATOM     30  C19 <0> d          -2.584   0.358   0.381  0.00  0.00     0.037 A 
BRANCH  29  31
ATOM     31  O2  <0> d          -0.682   1.547   1.184  0.00  0.00    -0.356 OA
ATOM     32  C23 <0> d          -0.013   1.086   0.008  0.00  0.00     0.210 C 
ENDBRANCH  29  31
ENDBRANCH   6  21
TORSDOF 6
