REMARK  5 active torsions:
REMARK  status: ('A' for Active; 'I' for Inactive)
REMARK    1  A    between atoms: C3_3  and  C12_19 
REMARK    2  A    between atoms: N1_5  and  C6_7 
REMARK    3  A    between atoms: C6_7  and  C7_8 
REMARK       I    between atoms: C7_8  and  N2_10 
REMARK    4  A    between atoms: N2_10  and  C8_11 
REMARK    5  A    between atoms: C12_19  and  O4_20 
ROOT
ATOM      1  C7  <0> d          -0.808  -2.470  -1.004  0.00  0.00     0.243 C 
ATOM      2  O1  <0> d          -1.712  -1.714  -0.718  0.00  0.00    -0.272 OA
ATOM      3  N2  <0> d          -1.084  -3.712  -1.450  0.00  0.00    -0.353 N 
ATOM      4  H14 <0> d          -0.361  -4.317  -1.679  0.00  0.00     0.163 HD
ENDROOT
BRANCH   1   5
ATOM      5  C6  <0> d           0.623  -2.021  -0.862  0.00  0.00     0.337 C 
BRANCH   5   6
ATOM      6  N1  <0> d           0.655  -0.640  -0.363  0.00  0.00    -0.062 N 
ATOM      7  C4  <0> d           2.043  -0.163  -0.338  0.00  0.00     0.242 C 
ATOM      8  C3  <0> d           2.075   1.302   0.104  0.00  0.00     0.035 C 
ATOM      9  C2  <0> d           1.468   1.419   1.505  0.00  0.00     0.010 C 
ATOM     10  C1  <0> d           0.047   0.850   1.484  0.00  0.00     0.028 C 
ATOM     11  C5  <0> d           0.090  -0.597   0.991  0.00  0.00     0.235 C 
ATOM     12  H22 <0> d           0.109  -0.051  -0.973  0.00  0.00     0.280 HD
BRANCH   8  13
ATOM     13  C12 <0> d           3.523   1.797   0.131  0.00  0.00     0.170 C 
BRANCH  13  14
ATOM     14  O4  <0> d           3.543   3.193   0.435  0.00  0.00    -0.400 OA
ATOM     15  H21 <0> d           4.431   3.575   0.469  0.00  0.00     0.209 HD
ENDBRANCH  13  14
ENDBRANCH   8  13
ENDBRANCH   5   6
ENDBRANCH   1   5
BRANCH   3  16
ATOM     16  C8  <0> d          -2.476  -4.149  -1.588  0.00  0.00     0.117 C 
ATOM     17  C11 <0> d          -2.883  -4.018  -3.048  0.00  0.00     0.119 C 
ATOM     18  C10 <0> d          -3.343  -5.340  -3.694  0.00  0.00     0.162 C 
ATOM     19 Cl1  <0> d          -1.478  -3.382  -3.982  0.00  0.00    -0.122 Cl
ATOM     20  S1  <0> d          -3.824  -6.319  -2.204  0.00  0.00     0.147 S 
ATOM     21  C9  <0> d          -2.599  -5.586  -1.034  0.00  0.00     0.167 C 
ATOM     22  O2  <0> d          -3.509  -7.688  -2.419  0.00  0.00    -0.228 OA
ATOM     23  O3  <0> d          -5.137  -5.952  -1.802  0.00  0.00    -0.228 OA
ENDBRANCH   3  16
TORSDOF 5
