REMARK  3 active torsions:
REMARK  status: ('A' for Active; 'I' for Inactive)
REMARK    1  A    between atoms: C5_5  and  C8_8 
REMARK    2  A    between atoms: C8_8  and  N1_9 
REMARK    3  A    between atoms: N1_9  and  C9_10 
ROOT
ATOM      1  C9  <0> d          -2.096  -0.072   6.169  0.00  0.00     0.234 C 
ATOM      2  C10 <0> d          -3.557  -0.564   6.274  0.00  0.00     0.183 C 
ATOM      3  S1  <0> d          -3.708  -0.674   8.106  0.00  0.00     0.178 S 
ATOM      4  O1  <0> d          -4.128   0.566   8.659  0.00  0.00    -0.223 OA
ATOM      5  O2  <0> d          -4.309  -1.902   8.495  0.00  0.00    -0.223 OA
ATOM      6  C11 <0> d          -1.982  -0.828   8.509  0.00  0.00     0.067 A 
ATOM      7  C12 <0> d          -1.278  -0.484   7.368  0.00  0.00    -0.005 A 
ATOM      8  C13 <0> d           0.117  -0.548   7.439  0.00  0.00     0.011 A 
ATOM      9  C14 <0> d           0.754  -0.928   8.598  0.00  0.00     0.001 A 
ATOM     10  C15 <0> d           0.027  -1.258   9.726  0.00  0.00     0.002 A 
ATOM     11  C16 <0> d          -1.350  -1.202   9.672  0.00  0.00     0.024 A 
ENDROOT
BRANCH   1  12
ATOM     12  N1  <0> d          -1.487  -0.637   4.957  0.00  0.00    -0.066 N 
ATOM     13  H17 <0> d          -1.555  -1.644   4.985  0.00  0.00     0.278 HD
ATOM     14  H24 <0> d          -0.516  -0.367   4.911  0.00  0.00     0.278 HD
BRANCH  12  15
ATOM     15  C8  <0> d          -2.193  -0.131   3.772  0.00  0.00     0.237 C 
BRANCH  15  16
ATOM     16  C5  <0> d          -1.615  -0.786   2.516  0.00  0.00     0.011 C 
ATOM     17  C4  <0> d          -2.430  -0.355   1.295  0.00  0.00     0.006 C 
ATOM     18  C3  <0> d          -1.852  -1.009   0.039  0.00  0.00     0.005 C 
ATOM     19  C2  <0> d          -0.396  -0.572  -0.140  0.00  0.00    -0.019 C 
ATOM     20  C1  <0> d          -0.334   0.950  -0.283  0.00  0.00     0.010 C 
ATOM     21  C7  <0> d           0.419  -1.003   1.081  0.00  0.00     0.005 C 
ATOM     22  C6  <0> d          -0.159  -0.349   2.337  0.00  0.00     0.006 C 
ENDBRANCH  15  16
ENDBRANCH  12  15
ENDBRANCH   1  12
TORSDOF 3
