REMARK  6 active torsions:
REMARK  status: ('A' for Active; 'I' for Inactive)
REMARK    1  A    between atoms: C2_2  and  C3_3 
REMARK    2  A    between atoms: C6_9  and  N3_11 
REMARK    3  A    between atoms: C7_12  and  N5_21 
REMARK    4  A    between atoms: C9_14  and  C10_16 
REMARK       I    between atoms: N5_21  and  C14_22 
REMARK    5  A    between atoms: C14_22  and  C15_24 
REMARK    6  A    between atoms: N6_28  and  C19_30 
ROOT
ATOM      1  N3  <0> d           6.226   6.740   4.579  0.00  0.00    -0.044 N 
ATOM      2  C7  <0> d           5.110   6.510   3.825  0.00  0.00     0.152 A 
ATOM      3  C8  <0> d           4.033   6.601   4.645  0.00  0.00     0.086 A 
ATOM      4  C9  <0> d           4.502   6.902   5.941  0.00  0.00     0.099 A 
ATOM      5  N4  <0> d           5.816   6.987   5.895  0.00  0.00    -0.150 NA
ENDROOT
BRANCH   2   6
ATOM      6  N5  <0> d           5.083   6.226   2.461  0.00  0.00    -0.311 N 
ATOM      7  C14 <0> d           3.906   6.013   1.840  0.00  0.00     0.229 C 
ATOM      8  O2  <0> d           2.870   6.069   2.469  0.00  0.00    -0.273 OA
ATOM      9  H13 <0> d           5.912   6.182   1.959  0.00  0.00     0.170 HD
BRANCH   7  10
ATOM     10  C15 <0> d           3.877   5.707   0.365  0.00  0.00     0.105 C 
ATOM     11  C18 <0> d           2.447   5.350  -0.104  0.00  0.00     0.146 C 
ATOM     12  N6  <0> d           2.356   3.889   0.000  0.00  0.00    -0.317 N 
ATOM     13  C17 <0> d           3.575   3.328   0.083  0.00  0.00     0.225 C 
ATOM     14  C16 <0> d           4.643   4.399   0.057  0.00  0.00     0.119 C 
ATOM     15  O3  <0> d           3.788   2.137   0.167  0.00  0.00    -0.273 OA
BRANCH  12  16
ATOM     16  C19 <0> d           1.155   3.171   0.008  0.00  0.00     0.037 A 
ATOM     17  C24 <0> d          -0.059   3.845   0.038  0.00  0.00     0.031 A 
ATOM     18  C23 <0> d          -1.243   3.134   0.045  0.00  0.00     0.026 A 
ATOM     19  C22 <0> d          -1.221   1.751   0.017  0.00  0.00     0.034 A 
ATOM     20  C21 <0> d          -0.013   1.076  -0.007  0.00  0.00     0.026 A 
ATOM     21 Cl1  <0> d          -2.711   0.860   0.019  0.00  0.00    -0.084 Cl
ATOM     22  C20 <0> d           1.174   1.782  -0.015  0.00  0.00     0.031 A 
ENDBRANCH  12  16
ENDBRANCH   7  10
ENDBRANCH   2   6
BRANCH   1  23
ATOM     23  C6  <0> d           7.530   6.732   4.122  0.00  0.00     0.732 A 
ATOM     24  N1  <0> d           8.543   6.986   4.993  0.00  0.00    -0.152 N 
ATOM     25  C5  <0> d           9.821   6.975   4.556  0.00  0.00     0.261 A 
ATOM     26  H1  <0> d           8.349   7.170   5.925  0.00  0.00     0.187 HD
ATOM     27  C4  <0> d          10.068   6.710   3.196  0.00  0.00     0.102 A 
ATOM     28  O1  <0> d          10.742   7.194   5.324  0.00  0.00    -0.268 OA
ATOM     29  C3  <0> d           9.009   6.469   2.370  0.00  0.00     0.058 A 
ATOM     30  N2  <0> d           7.768   6.486   2.852  0.00  0.00    -0.067 NA
BRANCH  29  31
ATOM     31  C2  <0> d           9.245   6.182   0.909  0.00  0.00     0.055 C 
ATOM     32  C1  <0> d           9.295   4.669   0.688  0.00  0.00     0.011 C 
ENDBRANCH  29  31
ENDBRANCH   1  23
BRANCH   4  33
ATOM     33  C10 <0> d           3.663   7.090   7.144  0.00  0.00     0.035 A 
ATOM     34  S1  <0> d           1.887   7.003   7.303  0.00  0.00    -0.100 SA
ATOM     35  C13 <0> d           1.772   7.347   9.050  0.00  0.00     0.050 A 
ATOM     36  C12 <0> d           3.075   7.511   9.395  0.00  0.00     0.008 A 
ATOM     37  C11 <0> d           4.047   7.382   8.426  0.00  0.00     0.022 A 
ENDBRANCH   4  33
TORSDOF 6
