REMARK  6 active torsions:
REMARK  status: ('A' for Active; 'I' for Inactive)
REMARK    1  A    between atoms: C2_2  and  C3_3 
REMARK    2  A    between atoms: C2_2  and  N2_9 
REMARK       I    between atoms: N2_9  and  C8_10 
REMARK    3  A    between atoms: C8_10  and  C9_12 
REMARK    4  A    between atoms: C10_15  and  C11_17 
REMARK    5  A    between atoms: C14_20  and  S1_23 
REMARK    6  A    between atoms: S1_23  and  N5_26 
ROOT
ATOM      1  C9  <0> d           0.763  -1.121   3.549  0.00  0.00     0.261 A 
ATOM      2  N3  <0> d           2.036  -1.445   3.616  0.00  0.00    -0.116 NA
ATOM      3  N4  <0> d           2.314  -1.830   4.812  0.00  0.00    -0.121 NA
ATOM      4  C10 <0> d           1.227  -1.765   5.556  0.00  0.00     0.203 A 
ATOM      5  O2  <0> d           0.231  -1.312   4.774  0.00  0.00    -0.265 OA
ENDROOT
BRANCH   1   6
ATOM      6  C8  <0> d           0.051  -0.633   2.355  0.00  0.00     0.297 C 
ATOM      7  N2  <0> d           0.711  -0.489   1.189  0.00  0.00    -0.344 N 
ATOM      8  H9  <0> d           1.654  -0.707   1.135  0.00  0.00     0.163 HD
ATOM      9  O1  <0> d          -1.132  -0.361   2.423  0.00  0.00    -0.264 OA
BRANCH   7  10
ATOM     10  C2  <0> d           0.002  -0.004   0.002  0.00  0.00     0.133 C 
ATOM     11  C1  <0> d          -0.019   1.526   0.010  0.00  0.00     0.039 C 
BRANCH  10  12
ATOM     12  C3  <0> d           0.707  -0.490  -1.238  0.00  0.00     0.056 A 
ATOM     13  N1  <0> d           1.992  -0.784  -1.184  0.00  0.00    -0.263 NA
ATOM     14  C7  <0> d           2.649  -1.218  -2.242  0.00  0.00     0.117 A 
ATOM     15  C6  <0> d           2.010  -1.370  -3.458  0.00  0.00     0.019 A 
ATOM     16  C5  <0> d           0.660  -1.065  -3.555  0.00  0.00     0.003 A 
ATOM     17  C4  <0> d           0.002  -0.617  -2.420  0.00  0.00     0.029 A 
ENDBRANCH  10  12
ENDBRANCH   7  10
ENDBRANCH   1   6
BRANCH   4  18
ATOM     18  C11 <0> d           1.124  -2.120   6.986  0.00  0.00     0.019 A 
ATOM     19  C16 <0> d           2.248  -2.574   7.679  0.00  0.00     0.017 A 
ATOM     20  C15 <0> d           2.146  -2.898   9.015  0.00  0.00     0.026 A 
ATOM     21  C14 <0> d           0.931  -2.785   9.667  0.00  0.00     0.079 A 
ATOM     22  C13 <0> d          -0.189  -2.342   8.985  0.00  0.00     0.026 A 
ATOM     23  C12 <0> d          -0.099  -2.008   7.650  0.00  0.00     0.017 A 
BRANCH  21  24
ATOM     24  S1  <0> d           0.808  -3.208  11.373  0.00  0.00     0.260 S 
ATOM     25  O3  <0> d           2.113  -3.076  11.919  0.00  0.00    -0.200 OA
ATOM     26  O4  <0> d          -0.310  -2.498  11.888  0.00  0.00    -0.200 OA
BRANCH  24  27
ATOM     27  N5  <0> d           0.423  -4.817  11.452  0.00  0.00    -0.315 N 
ATOM     28  C17 <0> d           1.486  -5.823  11.503  0.00  0.00     0.162 C 
ATOM     29  C18 <0> d          -0.982  -5.234  11.471  0.00  0.00     0.162 C 
ENDBRANCH  24  27
ENDBRANCH  21  24
ENDBRANCH   4  18
TORSDOF 6
