REMARK  3 active torsions:
REMARK  status: ('A' for Active; 'I' for Inactive)
REMARK    1  A    between atoms: C2_2  and  C3_3 
REMARK    2  A    between atoms: N1_8  and  C7_9 
REMARK    3  A    between atoms: C12_14  and  N2_15 
ROOT
ATOM      1  C7  <0> d          -0.181   1.331  -2.212  0.00  0.00     0.261 C 
ATOM      2  C8  <0> d          -1.346   1.290  -3.203  0.00  0.00     0.106 C 
ATOM      3  C9  <0> d          -1.969   2.683  -3.315  0.00  0.00     0.166 C 
ATOM      4  C10 <0> d          -0.918   3.682  -3.802  0.00  0.00     0.070 C 
ATOM      5  C11 <0> d           0.247   3.720  -2.810  0.00  0.00     0.043 C 
ATOM      6  C12 <0> d           0.872   2.327  -2.705  0.00  0.00     0.251 C 
ATOM      7  O2  <0> d          -3.061   2.644  -4.248  0.00  0.00    -0.353 OA
ATOM      8  C13 <0> d          -4.240   2.457  -3.429  0.00  0.00     0.197 C 
ATOM      9  C14 <0> d          -3.888   3.294  -2.174  0.00  0.00     0.197 C 
ATOM     10  O3  <0> d          -2.467   3.092  -2.035  0.00  0.00    -0.353 OA
ENDROOT
BRANCH   1  11
ATOM     11  N1  <0> d           0.421  -0.005  -2.108  0.00  0.00     0.104 N 
ATOM     12  C3  <0> d          -0.282  -0.822  -1.108  0.00  0.00     0.247 C 
ATOM     13  C4  <0> d           0.338  -2.222  -1.073  0.00  0.00     0.203 C 
ATOM     14  O1  <0> d           1.736  -2.112  -0.796  0.00  0.00    -0.387 OA
ATOM     15  C5  <0> d           2.452  -1.324  -1.751  0.00  0.00     0.198 C 
ATOM     16  C6  <0> d           1.854   0.085  -1.793  0.00  0.00     0.299 C 
BRANCH  12  17
ATOM     17  C2  <0> d          -1.762  -0.927  -1.482  0.00  0.00     0.033 C 
ATOM     18  C1  <0> d          -2.484  -1.810  -0.463  0.00  0.00     0.007 C 
ENDBRANCH  12  17
ENDBRANCH   1  11
BRANCH   6  19
ATOM     19  N2  <0> d           1.361   1.909  -4.025  0.00  0.00     0.085 N 
ATOM     20  H21 <0> d           2.145   2.474  -4.316  0.00  0.00     0.313 HD
ATOM     21  H26 <0> d           1.602   0.929  -4.028  0.00  0.00     0.313 HD
ENDBRANCH   6  19
TORSDOF 3
