REMARK  7 active torsions:
REMARK  status: ('A' for Active; 'I' for Inactive)
REMARK    1  A    between atoms: C2_2  and  C3_3 
REMARK    2  A    between atoms: C3_3  and  C4_4 
REMARK    3  A    between atoms: C3_3  and  N4_20 
REMARK    4  A    between atoms: C4_4  and  C5_5 
REMARK    5  A    between atoms: C4_4  and  N1_11 
REMARK    6  A    between atoms: N1_11  and  C10_13 
REMARK    7  A    between atoms: C10_13  and  C11_14 
ROOT
ATOM      1  C4  <0> d           0.554  -2.083   1.306  0.00  0.00     0.292 C 
ENDROOT
BRANCH   1   2
ATOM      2  C3  <0> d           0.599  -0.553   1.312  0.00  0.00     0.221 C 
BRANCH   2   3
ATOM      3  C2  <0> d           2.050  -0.085   1.189  0.00  0.00     0.031 C 
ATOM      4  C1  <0> d           2.107   1.438   1.320  0.00  0.00     0.007 C 
ENDBRANCH   2   3
BRANCH   2   5
ATOM      5  N4  <0> d          -0.180  -0.036   0.179  0.00  0.00    -0.073 N 
ATOM      6  H20 <0> d           0.274  -0.290  -0.686  0.00  0.00     0.274 HD
ATOM      7  H21 <0> d          -1.108  -0.432   0.200  0.00  0.00     0.274 HD
ATOM      8  H22 <0> d          -0.241   0.969   0.244  0.00  0.00     0.274 HD
ENDBRANCH   2   5
ENDBRANCH   1   2
BRANCH   1   9
ATOM      9  C5  <0> d           1.041  -2.594  -0.026  0.00  0.00     0.019 A 
ATOM     10  S1  <0> d           2.717  -2.788  -0.611  0.00  0.00    -0.103 SA
ATOM     11  C8  <0> d           2.344  -3.434  -2.232  0.00  0.00     0.069 A 
ATOM     12  C7  <0> d           0.989  -3.451  -2.223  0.00  0.00     0.018 A 
ATOM     13  C6  <0> d           0.321  -3.021  -1.092  0.00  0.00     0.036 A 
ATOM     14 Br1  <0> d           0.026  -4.056  -3.734  0.00  0.00    -0.051 Br
ENDBRANCH   1   9
BRANCH   1  15
ATOM     15  N1  <0> d           1.417  -2.602   2.375  0.00  0.00     0.102 N 
ATOM     16  C9  <0> d           1.432  -4.071   2.372  0.00  0.00     0.311 C 
BRANCH  15  17
ATOM     17  C10 <0> d           1.002  -2.083   3.685  0.00  0.00     0.349 C 
BRANCH  17  18
ATOM     18  C11 <0> d           1.976  -2.542   4.739  0.00  0.00     0.111 A 
ATOM     19  N3  <0> d           1.934  -3.725   5.388  0.00  0.00    -0.348 N 
ATOM     20  C13 <0> d           2.993  -3.749   6.255  0.00  0.00     0.108 A 
ATOM     21  C14 <0> d           0.942  -4.786   5.198  0.00  0.00     0.157 C 
ATOM     22  C12 <0> d           3.640  -2.577   6.112  0.00  0.00     0.106 A 
ATOM     23  N2  <0> d           2.997  -1.859   5.179  0.00  0.00    -0.353 N 
ATOM     24  H23 <0> d           3.251  -0.972   4.880  0.00  0.00     0.166 HD
ENDBRANCH  17  18
ENDBRANCH  15  17
ENDBRANCH   1  15
TORSDOF 7
