REMARK  3 active torsions:
REMARK  status: ('A' for Active; 'I' for Inactive)
REMARK    1  A    between atoms: C2_2  and  C3_3 
REMARK    2  A    between atoms: C2_2  and  N4_13 
REMARK    3  A    between atoms: N4_13  and  C10_14 
ROOT
ATOM      1  C1  <0> d           0.067   1.650   0.193  0.00  0.00     0.048 C 
ATOM      2  C2  <0> d          -0.019   0.127   0.078  0.00  0.00     0.253 C 
ENDROOT
BRANCH   2   3
ATOM      3  C3  <0> d          -1.463  -0.300   0.127  0.00  0.00     0.160 A 
ATOM      4  N3  <0> d          -2.214  -0.714  -0.917  0.00  0.00    -0.319 N 
ATOM      5  C4  <0> d          -3.444  -0.980  -0.418  0.00  0.00     0.130 A 
ATOM      6  C5  <0> d          -1.788  -0.865  -2.309  0.00  0.00     0.132 C 
ATOM      7  N2  <0> d          -3.404  -0.741   0.862  0.00  0.00    -0.135 NA
ATOM      8  C9  <0> d          -4.628  -1.455  -1.220  0.00  0.00     0.080 C 
ATOM      9  N1  <0> d          -2.227  -0.334   1.188  0.00  0.00    -0.133 NA
ATOM     10  C8  <0> d          -4.191  -2.595  -2.136  0.00  0.00     0.008 C 
ATOM     11  C7  <0> d          -3.681  -2.028  -3.458  0.00  0.00     0.002 C 
ATOM     12  C6  <0> d          -2.995  -0.681  -3.233  0.00  0.00     0.020 C 
ENDBRANCH   2   3
BRANCH   2  13
ATOM     13  N4  <0> d           0.713  -0.491   1.192  0.00  0.00    -0.060 N 
ATOM     14  H15 <0> d           0.367  -0.123   2.066  0.00  0.00     0.278 HD
ATOM     15  H25 <0> d           0.578  -1.490   1.170  0.00  0.00     0.278 HD
BRANCH  13  16
ATOM     16  C10 <0> d           2.144  -0.187   1.066  0.00  0.00     0.188 C 
ATOM     17  C14 <0> d           2.877  -0.695   2.304  0.00  0.00     0.048 C 
ATOM     18  C13 <0> d           4.310  -0.157   2.321  0.00  0.00     0.142 C 
ATOM     19  S1  <0> d           5.199  -0.808   0.877  0.00  0.00     0.144 S 
ATOM     20  C12 <0> d           4.100  -0.334  -0.490  0.00  0.00     0.142 C 
ATOM     21  O1  <0> d           6.422  -0.097   0.740  0.00  0.00    -0.228 OA
ATOM     22  O2  <0> d           5.229  -2.226   0.963  0.00  0.00    -0.228 OA
ATOM     23  C11 <0> d           2.690  -0.853  -0.194  0.00  0.00     0.048 C 
ENDBRANCH  13  16
ENDBRANCH   2  13
TORSDOF 3
