REMARK  7 active torsions:
REMARK  status: ('A' for Active; 'I' for Inactive)
REMARK    1  A    between atoms: C3_3  and  C6_8 
REMARK       I    between atoms: C6_8  and  N2_10 
REMARK    2  A    between atoms: N2_10  and  C7_11 
REMARK    3  A    between atoms: C7_11  and  C8_12 
REMARK    4  A    between atoms: C8_12  and  N3_13 
REMARK    5  A    between atoms: N3_13  and  S1_14 
REMARK    6  A    between atoms: S1_14  and  C9_17 
REMARK    7  A    between atoms: C12_20  and  N4_23 
ROOT
ATOM      1  N3  <0> d           8.536   1.646  -0.072  0.00  0.00    -0.314 N 
ATOM      2  H10 <0> d           8.584   2.591  -0.285  0.00  0.00     0.172 HD
ENDROOT
BRANCH   1   3
ATOM      3  C8  <0> d           7.241   0.962  -0.063  0.00  0.00     0.152 C 
BRANCH   3   4
ATOM      4  C7  <0> d           6.116   1.998  -0.047  0.00  0.00     0.143 C 
BRANCH   4   5
ATOM      5  N2  <0> d           4.821   1.314  -0.037  0.00  0.00    -0.355 N 
ATOM      6  C6  <0> d           3.680   2.031  -0.023  0.00  0.00     0.253 C 
ATOM      7  O2  <0> d           3.725   3.245  -0.017  0.00  0.00    -0.268 OA
ATOM      8  H5  <0> d           4.785   0.344  -0.042  0.00  0.00     0.162 HD
BRANCH   6   9
ATOM      9  C3  <0> d           2.373   1.340  -0.013  0.00  0.00     0.050 A 
ATOM     10  C2  <0> d           1.181   2.073   0.002  0.00  0.00     0.020 A 
ATOM     11  C1  <0> d          -0.017   1.379   0.010  0.00  0.00     0.021 A 
ATOM     12  C5  <0> d           0.002  -0.004   0.002  0.00  0.00     0.125 A 
ATOM     13  N1  <0> d           1.142  -0.670  -0.013  0.00  0.00    -0.210 N 
ATOM     14  C4  <0> d           2.307  -0.054  -0.020  0.00  0.00     0.142 A 
ATOM     15  O1  <0> d           1.112  -2.086  -0.021  0.00  0.00    -0.082 OA
ENDBRANCH   6   9
ENDBRANCH   4   5
ENDBRANCH   3   4
ENDBRANCH   1   3
BRANCH   1  16
ATOM     16  S1  <0> d           9.919   0.807   0.282  0.00  0.00     0.258 S 
ATOM     17  O3  <0> d          10.995   1.728   0.164  0.00  0.00    -0.201 OA
ATOM     18  O4  <0> d           9.662   0.085   1.478  0.00  0.00    -0.201 OA
BRANCH  16  19
ATOM     19  C9  <0> d          10.141  -0.391  -0.991  0.00  0.00     0.079 A 
ATOM     20  C14 <0> d          10.869  -0.071  -2.122  0.00  0.00     0.028 A 
ATOM     21  C13 <0> d          11.047  -1.012  -3.119  0.00  0.00     0.037 A 
ATOM     22  C12 <0> d          10.489  -2.271  -2.989  0.00  0.00     0.102 A 
ATOM     23  C11 <0> d           9.757  -2.589  -1.861  0.00  0.00     0.037 A 
ATOM     24  C10 <0> d           9.583  -1.649  -0.862  0.00  0.00     0.028 A 
BRANCH  22  25
ATOM     25  N4  <0> d          10.677  -3.277  -4.058  0.00  0.00    -0.116 N 
ATOM     26  O5  <0> d          10.189  -4.378  -3.944  0.00  0.00    -0.532 OA
ATOM     27  O6  <0> d          11.317  -2.999  -5.045  0.00  0.00    -0.532 OA
ENDBRANCH  22  25
ENDBRANCH  16  19
ENDBRANCH   1  16
TORSDOF 7
