REMARK  4 active torsions:
REMARK  status: ('A' for Active; 'I' for Inactive)
REMARK    1  A    between atoms: C3_4  and  C14_20 
REMARK    2  A    between atoms: N2_9  and  C8_14 
REMARK       I    between atoms: C14_20  and  N4_22 
REMARK    3  A    between atoms: N4_22  and  C15_23 
REMARK    4  A    between atoms: C15_23  and  C16_24 
ROOT
ATOM      1  C1  <0> d           2.677   0.780  -2.088  0.00  0.00     0.156 C 
ATOM      2  N1  <0> d           2.316   1.929  -1.254  0.00  0.00    -0.354 N 
ATOM      3  C2  <0> d           3.133   2.948  -0.938  0.00  0.00     0.110 A 
ATOM      4  C3  <0> d           2.448   3.841  -0.138  0.00  0.00     0.076 A 
ATOM      5  C4  <0> d           1.141   3.327   0.037  0.00  0.00     0.086 A 
ATOM      6  C5  <0> d           1.083   2.134  -0.668  0.00  0.00     0.131 A 
ATOM      7  C6  <0> d          -0.127   1.400  -0.663  0.00  0.00     0.285 A 
ATOM      8  O1  <0> d          -0.211   0.348  -1.272  0.00  0.00    -0.265 OA
ATOM      9  N2  <0> d          -1.187   1.879   0.018  0.00  0.00    -0.228 N 
ATOM     10  C7  <0> d          -1.110   3.034   0.700  0.00  0.00     0.334 A 
ATOM     11  O2  <0> d          -2.086   3.433   1.307  0.00  0.00    -0.246 OA
ATOM     12  N3  <0> d           0.022   3.764   0.722  0.00  0.00    -0.305 N 
ATOM     13  H1  <0> d           0.052   4.597   1.218  0.00  0.00     0.171 HD
ENDROOT
BRANCH   4  14
ATOM     14  C14 <0> d           2.977   5.093   0.426  0.00  0.00     0.255 C 
ATOM     15  O3  <0> d           2.267   5.796   1.119  0.00  0.00    -0.268 OA
ATOM     16  N4  <0> d           4.249   5.461   0.175  0.00  0.00    -0.353 N 
ATOM     17  H11 <0> d           4.816   4.901  -0.378  0.00  0.00     0.163 HD
BRANCH  16  18
ATOM     18  C15 <0> d           4.776   6.707   0.737  0.00  0.00     0.161 C 
BRANCH  18  19
ATOM     19  C16 <0> d           6.210   6.885   0.309  0.00  0.00    -0.040 A 
ATOM     20  C21 <0> d           6.503   7.559  -0.862  0.00  0.00     0.012 A 
ATOM     21  C20 <0> d           7.818   7.722  -1.255  0.00  0.00     0.043 A 
ATOM     22  C19 <0> d           8.842   7.210  -0.476  0.00  0.00     0.116 A 
ATOM     23  C18 <0> d           8.547   6.535   0.697  0.00  0.00     0.043 A 
ATOM     24  F1  <0> d          10.128   7.369  -0.859  0.00  0.00    -0.206 F 
ATOM     25  C17 <0> d           7.232   6.378   1.090  0.00  0.00     0.012 A 
ENDBRANCH  18  19
ENDBRANCH  16  18
ENDBRANCH   4  14
BRANCH   9  26
ATOM     26  C8  <0> d          -2.388   1.157   0.019  0.00  0.00     0.047 A 
ATOM     27  C13 <0> d          -3.344   1.395  -0.960  0.00  0.00     0.030 A 
ATOM     28  C12 <0> d          -4.527   0.682  -0.956  0.00  0.00     0.002 A 
ATOM     29  C11 <0> d          -4.760  -0.268   0.021  0.00  0.00     0.000 A 
ATOM     30  C10 <0> d          -3.810  -0.507   0.998  0.00  0.00     0.002 A 
ATOM     31  C9  <0> d          -2.623   0.198   0.996  0.00  0.00     0.030 A 
ENDBRANCH   9  26
TORSDOF 4
