REMARK  4 active torsions:
REMARK  status: ('A' for Active; 'I' for Inactive)
REMARK    1  A    between atoms: C2_2  and  O1_3 
REMARK    2  A    between atoms: O1_3  and  C3_4 
REMARK    3  A    between atoms: C3_4  and  C4_6 
REMARK    4  A    between atoms: C8_13  and  C9_14 
ROOT
ATOM      1  C4  <0> d          -1.299   1.930   0.019  0.00  0.00     0.074 A 
ATOM      2  C5  <0> d          -1.915   2.284  -1.166  0.00  0.00     0.023 A 
ATOM      3  N1  <0> d          -3.090   2.936  -1.168  0.00  0.00    -0.349 N 
ATOM      4  H1  <0> d          -3.497   3.166  -2.018  0.00  0.00     0.166 HD
ATOM      5  C6  <0> d          -3.719   3.285  -0.034  0.00  0.00     0.122 A 
ATOM      6  S1  <0> d          -5.210   4.120  -0.120  0.00  0.00    -0.059 SA
ATOM      7  C7  <0> d          -3.166   2.972   1.233  0.00  0.00     0.094 A 
ATOM      8  C8  <0> d          -1.944   2.287   1.287  0.00  0.00     0.016 A 
ATOM      9  C15 <0> d          -3.845   3.348   2.437  0.00  0.00     0.103 C 
ATOM     10  N2  <0> d          -4.383   3.647   3.392  0.00  0.00    -0.191 NA
ATOM     11  C16 <0> d          -1.261   1.929  -2.477  0.00  0.00     0.069 C 
ENDROOT
BRANCH   8  12
ATOM     12  C9  <0> d          -1.324   1.937   2.582  0.00  0.00    -0.023 A 
ATOM     13  C14 <0> d          -0.886   2.943   3.445  0.00  0.00     0.012 A 
ATOM     14  C13 <0> d          -0.309   2.609   4.652  0.00  0.00     0.001 A 
ATOM     15  C12 <0> d          -0.163   1.280   5.009  0.00  0.00     0.000 A 
ATOM     16  C11 <0> d          -0.594   0.277   4.158  0.00  0.00     0.001 A 
ATOM     17  C10 <0> d          -1.179   0.597   2.950  0.00  0.00     0.012 A 
ENDBRANCH   8  12
BRANCH   1  18
ATOM     18  C3  <0> d          -0.014   1.211   0.009  0.00  0.00     0.296 C 
ATOM     19  O2  <0> d           0.002  -0.004   0.002  0.00  0.00    -0.259 OA
BRANCH  18  20
ATOM     20  O1  <0> d           1.144   1.901   0.001  0.00  0.00    -0.318 OA
BRANCH  20  21
ATOM     21  C2  <0> d           2.372   1.127  -0.015  0.00  0.00     0.174 C 
ATOM     22  C1  <0> d           3.572   2.075  -0.021  0.00  0.00     0.034 C 
ENDBRANCH  20  21
ENDBRANCH  18  20
ENDBRANCH   1  18
TORSDOF 4
