REMARK  6 active torsions:
REMARK  status: ('A' for Active; 'I' for Inactive)
REMARK    1  A    between atoms: C3_3  and  C13_17 
REMARK    2  A    between atoms: C4_5  and  C5_7 
REMARK    3  A    between atoms: C8_10  and  C11_13 
REMARK       I    between atoms: C11_13  and  N2_15 
REMARK    4  A    between atoms: C13_17  and  N3_18 
REMARK    5  A    between atoms: N4_21  and  S1_24 
REMARK    6  A    between atoms: S1_24  and  N5_27 
ROOT
ATOM      1  C1  <0> d          -2.868  11.116   0.077  0.00  0.00     0.079 C 
ATOM      2  C2  <0> d          -1.974   9.902   0.066  0.00  0.00     0.078 A 
ATOM      3  C3  <0> d          -0.627   9.903   0.060  0.00  0.00     0.092 A 
ATOM      4  N1  <0> d          -0.217   8.627   0.051  0.00  0.00    -0.224 NA
ATOM      5  C4  <0> d          -1.272   7.846   0.052  0.00  0.00     0.180 A 
ATOM      6  O1  <0> d          -2.374   8.616   0.055  0.00  0.00    -0.294 OA
ENDROOT
BRANCH   3   7
ATOM      7  C13 <0> d           0.260  11.120   0.063  0.00  0.00     0.296 C 
BRANCH   7   8
ATOM      8  N3  <0> d           0.542  11.524  -1.321  0.00  0.00    -0.063 N 
ATOM      9  C17 <0> d           1.203  12.836  -1.363  0.00  0.00     0.256 C 
ATOM     10  C16 <0> d           1.315  13.301  -2.818  0.00  0.00     0.164 C 
ATOM     11  N4  <0> d           1.980  12.245  -3.597  0.00  0.00    -0.291 N 
ATOM     12  C15 <0> d           1.457  10.874  -3.498  0.00  0.00     0.164 C 
ATOM     13  C14 <0> d           1.339  10.504  -2.015  0.00  0.00     0.256 C 
ATOM     14  H28 <0> d          -0.418  11.616  -1.850  0.00  0.00     0.280 HD
BRANCH  11  15
ATOM     15  S1  <0> d           3.282  12.591  -4.559  0.00  0.00     0.318 S 
ATOM     16  O3  <0> d           3.333  11.576  -5.553  0.00  0.00    -0.183 OA
ATOM     17  O4  <0> d           3.192  13.971  -4.884  0.00  0.00    -0.183 OA
BRANCH  15  18
ATOM     18  N5  <0> d           4.640  12.410  -3.629  0.00  0.00    -0.303 N 
ATOM     19  C18 <0> d           5.313  11.110  -3.559  0.00  0.00     0.163 C 
ATOM     20  C19 <0> d           5.170  13.550  -2.877  0.00  0.00     0.163 C 
ENDBRANCH  15  18
ENDBRANCH  11  15
ENDBRANCH   7   8
ENDBRANCH   3   7
BRANCH   5  21
ATOM     21  C5  <0> d          -1.252   6.369   0.044  0.00  0.00     0.017 A 
ATOM     22  C10 <0> d          -0.032   5.687   0.034  0.00  0.00     0.017 A 
ATOM     23  C9  <0> d          -0.013   4.311   0.031  0.00  0.00     0.018 A 
ATOM     24  C8  <0> d          -1.214   3.596   0.027  0.00  0.00     0.032 A 
ATOM     25  C7  <0> d          -2.433   4.278   0.037  0.00  0.00     0.018 A 
ATOM     26  C6  <0> d          -2.452   5.654   0.045  0.00  0.00     0.017 A 
BRANCH  24  27
ATOM     27  C11 <0> d          -1.194   2.119   0.019  0.00  0.00     0.251 C 
ATOM     28  O2  <0> d          -2.239   1.497   0.021  0.00  0.00    -0.268 OA
ATOM     29  N2  <0> d          -0.018   1.461   0.010  0.00  0.00    -0.361 N 
ATOM     30  C12 <0> d           0.002  -0.004   0.002  0.00  0.00     0.149 C 
ATOM     31  H8  <0> d           0.927   2.024   0.009  0.00  0.00     0.162 HD
ENDBRANCH  24  27
ENDBRANCH   5  21
TORSDOF 6
