REMARK  5 active torsions:
REMARK  status: ('A' for Active; 'I' for Inactive)
REMARK    1  A    between atoms: C6_8  and  C9_12 
REMARK    2  A    between atoms: C9_12  and  S1_13 
REMARK    3  A    between atoms: S1_13  and  C10_14 
REMARK    4  A    between atoms: C11_17  and  N5_19 
REMARK       I    between atoms: N5_19  and  C12_20 
REMARK    5  A    between atoms: C12_20  and  C13_22 
ROOT
ATOM      1  C10 <0> d           1.654  -5.697   2.624  0.00  0.00     0.160 A 
ATOM      2  N3  <0> d           2.591  -5.606   3.556  0.00  0.00    -0.133 NA
ATOM      3  N4  <0> d           2.620  -6.382   4.551  0.00  0.00    -0.122 NA
ATOM      4  C11 <0> d           1.718  -7.333   4.724  0.00  0.00     0.197 A 
ATOM      5  S2  <0> d           0.701  -7.067   3.275  0.00  0.00    -0.022 SA
ENDROOT
BRANCH   1   6
ATOM      6  S1  <0> d           1.410  -4.740   1.165  0.00  0.00    -0.099 SA
BRANCH   6   7
ATOM      7  C9  <0> d           2.776  -3.547   1.190  0.00  0.00     0.116 C 
BRANCH   7   8
ATOM      8  C6  <0> d           2.683  -2.640  -0.038  0.00  0.00     0.184 A 
ATOM      9  C5  <0> d           3.903  -1.747  -0.045  0.00  0.00     0.245 A 
ATOM     10  N1  <0> d           3.739  -0.422  -0.036  0.00  0.00    -0.323 N 
ATOM     11  O1  <0> d           5.019  -2.228  -0.058  0.00  0.00    -0.271 OA
ATOM     12  C4  <0> d           2.536   0.127  -0.022  0.00  0.00     0.061 A 
ATOM     13  H13 <0> d           4.521   0.152  -0.041  0.00  0.00     0.169 HD
ATOM     14  C3  <0> d           2.398   1.533  -0.013  0.00  0.00     0.032 A 
ATOM     15  C7  <0> d           1.301  -0.697  -0.014  0.00  0.00     0.055 A 
ATOM     16  C2  <0> d           1.169   2.101   0.002  0.00  0.00     0.002 A 
ATOM     17  C1  <0> d          -0.016   1.347   0.009  0.00  0.00     0.002 A 
ATOM     18  C8  <0> d           0.002  -0.004   0.002  0.00  0.00     0.031 A 
ATOM     19  N2  <0> d           1.360  -1.997  -0.022  0.00  0.00    -0.374 N 
ATOM     20  H12 <0> d           0.550  -2.531  -0.017  0.00  0.00     0.160 HD
ENDBRANCH   7   8
ENDBRANCH   6   7
ENDBRANCH   1   6
BRANCH   4  21
ATOM     21  N5  <0> d           1.591  -8.271   5.746  0.00  0.00    -0.300 N 
ATOM     22  C12 <0> d           2.480  -8.287   6.759  0.00  0.00     0.263 C 
ATOM     23  O2  <0> d           3.392  -7.484   6.780  0.00  0.00    -0.267 OA
ATOM     24  H8  <0> d           0.863  -8.912   5.728  0.00  0.00     0.171 HD
BRANCH  22  25
ATOM     25  C13 <0> d           2.346  -9.281   7.841  0.00  0.00     0.109 A 
ATOM     26  C18 <0> d           1.588  -8.983   8.979  0.00  0.00     0.135 A 
ATOM     27  C17 <0> d           1.463  -9.922   9.986  0.00  0.00     0.043 A 
ATOM     28  F1  <0> d           0.976  -7.784   9.091  0.00  0.00    -0.205 F 
ATOM     29  C16 <0> d           2.094 -11.148   9.876  0.00  0.00     0.006 A 
ATOM     30  C15 <0> d           2.849 -11.448   8.757  0.00  0.00     0.043 A 
ATOM     31  C14 <0> d           2.981 -10.523   7.738  0.00  0.00     0.135 A 
ATOM     32  F2  <0> d           3.719 -10.819   6.646  0.00  0.00    -0.205 F 
ENDBRANCH  22  25
ENDBRANCH   4  21
TORSDOF 5
