REMARK  3 active torsions:
REMARK  status: ('A' for Active; 'I' for Inactive)
REMARK    1  A    between atoms: N1_6  and  C6_7 
REMARK    2  A    between atoms: C6_7  and  C10_14 
REMARK    3  A    between atoms: C10_14  and  N2_15 
ROOT
ATOM      1  C6  <0> d           1.174  -1.585   0.029  0.00  0.00     0.200 C 
ATOM      2  C7  <0> d           0.335  -2.723  -0.551  0.00  0.00     0.059 C 
ATOM      3  C8  <0> d           1.205  -3.999  -0.726  0.00  0.00     0.143 C 
ATOM      4  S1  <0> d           2.209  -3.901   0.821  0.00  0.00     0.147 S 
ATOM      5  O1  <0> d           3.507  -4.420   0.570  0.00  0.00    -0.228 OA
ATOM      6  O2  <0> d           1.446  -4.410   1.907  0.00  0.00    -0.228 OA
ATOM      7  C9  <0> d           2.306  -2.067   0.956  0.00  0.00     0.184 C 
ENDROOT
BRANCH   1   8
ATOM      8  N1  <0> d           0.291  -0.690   0.789  0.00  0.00     0.110 N 
ATOM      9  C2  <0> d          -0.252  -1.369   1.980  0.00  0.00     0.153 C 
ATOM     10  C1  <0> d          -1.775  -1.464   1.875  0.00  0.00     0.049 C 
ATOM     11  C3  <0> d           0.139  -0.521   3.208  0.00  0.00     0.043 C 
ATOM     12  C11 <0> d           0.350  -2.771   2.099  0.00  0.00     0.049 C 
ATOM     13  C4  <0> d           0.389   0.883   2.598  0.00  0.00     0.033 C 
ATOM     14  C5  <0> d           1.016   0.522   1.228  0.00  0.00     0.275 C 
ENDBRANCH   1   8
BRANCH   1  15
ATOM     15  C10 <0> d           1.790  -0.796  -1.128  0.00  0.00     0.309 C 
BRANCH  15  16
ATOM     16  N2  <0> d           2.623   0.289  -0.593  0.00  0.00     0.080 N 
ATOM     17  H18 <0> d           3.328  -0.072   0.033  0.00  0.00     0.312 HD
ATOM     18  H22 <0> d           3.042   0.825  -1.338  0.00  0.00     0.312 HD
ENDBRANCH  15  16
ENDBRANCH   1  15
TORSDOF 3
