REMARK  7 active torsions:
REMARK  status: ('A' for Active; 'I' for Inactive)
REMARK    1  A    between atoms: C3_3  and  C7_8 
REMARK    2  A    between atoms: C7_8  and  C8_9 
REMARK    3  A    between atoms: N1_12  and  C11_16 
REMARK    4  A    between atoms: C11_16  and  C12_17 
REMARK    5  A    between atoms: C12_17  and  C13_18 
REMARK    6  A    between atoms: C13_18  and  C14_19 
REMARK       I    between atoms: C14_19  and  N2_21 
REMARK    7  A    between atoms: N2_21  and  C15_22 
ROOT
ATOM      1  C8  <0> d           2.383   5.563  -0.093  0.00  0.00     0.076 A 
ATOM      2  C9  <0> d           3.503   6.519  -0.218  0.00  0.00     0.266 A 
ATOM      3  O1  <0> d           4.661   6.147  -0.252  0.00  0.00    -0.266 OA
ATOM      4  N1  <0> d           3.182   7.800  -0.293  0.00  0.00    -0.298 N 
ATOM      5  C10 <0> d           1.897   8.208  -0.256  0.00  0.00     0.148 A 
ATOM      6  S1  <0> d           1.286   9.805  -0.340  0.00  0.00    -0.052 SA
ATOM      7  S2  <0> d           0.987   6.679  -0.108  0.00  0.00    -0.055 SA
ENDROOT
BRANCH   4   8
ATOM      8  C11 <0> d           4.247   8.799  -0.419  0.00  0.00     0.134 C 
BRANCH   8   9
ATOM      9  C12 <0> d           4.543   9.044  -1.899  0.00  0.00     0.029 C 
BRANCH   9  10
ATOM     10  C13 <0> d           5.655  10.087  -2.031  0.00  0.00     0.104 C 
BRANCH  10  11
ATOM     11  C14 <0> d           5.947  10.329  -3.489  0.00  0.00     0.218 C 
ATOM     12  O2  <0> d           5.327   9.726  -4.340  0.00  0.00    -0.274 OA
ATOM     13  N2  <0> d           6.897  11.214  -3.849  0.00  0.00    -0.352 N 
ATOM     14  H13 <0> d           7.393  11.696  -3.168  0.00  0.00     0.163 HD
BRANCH  13  15
ATOM     15  C15 <0> d           7.181  11.450  -5.266  0.00  0.00     0.122 C 
ATOM     16  C18 <0> d           8.156  10.425  -5.750  0.00  0.00     0.011 C 
ATOM     17  C17 <0> d           9.415  10.736  -5.904  0.00  0.00     0.107 C 
ATOM     18  S3  <0> d           9.553  12.456  -5.454  0.00  0.00     0.167 S 
ATOM     19  C16 <0> d           7.759  12.879  -5.442  0.00  0.00     0.174 C 
ATOM     20  O3  <0> d          10.220  13.090  -6.537  0.00  0.00    -0.223 OA
ATOM     21  O4  <0> d          10.090  12.472  -4.139  0.00  0.00    -0.223 OA
ENDBRANCH  13  15
ENDBRANCH  10  11
ENDBRANCH   9  10
ENDBRANCH   8   9
ENDBRANCH   4   8
BRANCH   1  22
ATOM     22  C7  <0> d           2.407   4.210   0.002  0.00  0.00     0.036 C 
BRANCH  22  23
ATOM     23  C3  <0> d           1.173   3.472   0.309  0.00  0.00    -0.032 A 
ATOM     24  C2  <0> d           0.015   4.163   0.682  0.00  0.00     0.011 A 
ATOM     25  C1  <0> d          -1.139   3.465   0.969  0.00  0.00     0.004 A 
ATOM     26  C6  <0> d          -1.157   2.084   0.883  0.00  0.00     0.042 A 
ATOM     27  C5  <0> d          -0.012   1.391   0.520  0.00  0.00     0.117 A 
ATOM     28  C4  <0> d           1.151   2.076   0.230  0.00  0.00     0.053 A 
ATOM     29  F1  <0> d          -0.037   0.042   0.444  0.00  0.00    -0.206 F 
ENDBRANCH  22  23
ENDBRANCH   1  22
TORSDOF 7
