REMARK  2 active torsions:
REMARK  status: ('A' for Active; 'I' for Inactive)
REMARK    1  A    between atoms: C7_8  and  C18_22 
REMARK    2  A    between atoms: C11_13  and  C14_17 
ROOT
ATOM      1  C1  <0> d           0.541   1.652   0.241  0.00  0.00     0.002 A 
ATOM      2  C2  <0> d           1.800   2.218   0.335  0.00  0.00     0.002 A 
ATOM      3  C3  <0> d           2.930   1.418   0.303  0.00  0.00     0.032 A 
ATOM      4  C4  <0> d           2.788   0.047   0.177  0.00  0.00     0.059 A 
ATOM      5  C5  <0> d           1.525  -0.523   0.117  0.00  0.00     0.055 A 
ATOM      6  C6  <0> d           0.397   0.280   0.132  0.00  0.00     0.031 A 
ATOM      7  N1  <0> d           1.431  -1.915   0.093  0.00  0.00    -0.375 N 
ATOM      8  C7  <0> d           1.873  -2.714   1.216  0.00  0.00     0.154 C 
ATOM      9  C8  <0> d           3.356  -2.643   1.491  0.00  0.00     0.037 C 
ATOM     10  C9  <0> d           4.217  -1.764   0.950  0.00  0.00     0.022 C 
ATOM     11  N2  <0> d           3.880  -0.803   0.054  0.00  0.00    -0.357 N 
ATOM     12  C10 <0> d           5.686  -1.787   1.340  0.00  0.00     0.068 C 
ATOM     13  C11 <0> d           6.122  -3.221   1.635  0.00  0.00     0.038 C 
ATOM     14  C12 <0> d           5.259  -3.743   2.791  0.00  0.00     0.094 C 
ATOM     15  C13 <0> d           3.816  -3.620   2.404  0.00  0.00     0.160 C 
ATOM     16  O1  <0> d           3.011  -4.389   2.894  0.00  0.00    -0.293 OA
ATOM     17  H7  <0> d           1.062  -2.354  -0.689  0.00  0.00     0.160 HD
ATOM     18  H8  <0> d           4.443  -0.702  -0.730  0.00  0.00     0.166 HD
ENDROOT
BRANCH   8  19
ATOM     19  C18 <0> d           1.136  -2.251   2.447  0.00  0.00    -0.028 A 
ATOM     20  C23 <0> d           0.312  -3.127   3.128  0.00  0.00     0.053 A 
ATOM     21  C22 <0> d          -0.364  -2.703   4.259  0.00  0.00     0.138 A 
ATOM     22  C21 <0> d          -0.214  -1.400   4.707  0.00  0.00     0.072 A 
ATOM     23  F1  <0> d          -1.171  -3.558   4.925  0.00  0.00    -0.204 F 
ATOM     24  C20 <0> d           0.612  -0.526   4.023  0.00  0.00     0.028 A 
ATOM     25 Cl1  <0> d          -1.061  -0.866   6.124  0.00  0.00    -0.081 Cl
ATOM     26  C19 <0> d           1.290  -0.953   2.897  0.00  0.00     0.011 A 
ENDBRANCH   8  19
BRANCH  13  27
ATOM     27  C14 <0> d           7.575  -3.242   2.034  0.00  0.00    -0.013 A 
ATOM     28  S1  <0> d           8.378  -2.420   3.401  0.00  0.00    -0.106 SA
ATOM     29  C17 <0> d          10.041  -2.995   3.098  0.00  0.00     0.050 A 
ATOM     30  C16 <0> d           9.877  -3.757   1.989  0.00  0.00     0.008 A 
ATOM     31  C15 <0> d           8.613  -3.883   1.444  0.00  0.00     0.015 A 
ENDBRANCH  13  27
TORSDOF 2
