REMARK  7 active torsions:
REMARK  status: ('A' for Active; 'I' for Inactive)
REMARK    1  A    between atoms: C2_2  and  C3_3 
REMARK    2  A    between atoms: C2_2  and  O2_12 
REMARK    3  A    between atoms: C4_6  and  S1_8 
REMARK    4  A    between atoms: S1_8  and  C5_9 
REMARK    5  A    between atoms: C5_9  and  C6_10 
REMARK    6  A    between atoms: C6_10  and  N3_11 
REMARK    7  A    between atoms: O2_12  and  C7_13 
ROOT
ATOM      1  C3  <0> d          -4.765   3.751   0.567  0.00  0.00     0.199 A 
ATOM      2  N1  <0> d          -5.050   5.010   0.402  0.00  0.00    -0.123 NA
ATOM      3  N2  <0> d          -6.102   5.306   1.080  0.00  0.00    -0.114 NA
ATOM      4  C4  <0> d          -6.523   4.239   1.716  0.00  0.00     0.231 A 
ATOM      5  O1  <0> d          -5.685   3.232   1.404  0.00  0.00    -0.266 OA
ENDROOT
BRANCH   1   6
ATOM      6  C2  <0> d          -3.611   3.010  -0.058  0.00  0.00     0.203 C 
ATOM      7  C1  <0> d          -3.917   2.740  -1.532  0.00  0.00     0.049 C 
BRANCH   6   8
ATOM      8  O2  <0> d          -2.425   3.800   0.046  0.00  0.00    -0.338 OA
BRANCH   8   9
ATOM      9  C7  <0> d          -1.238   3.137   0.028  0.00  0.00     0.072 A 
ATOM     10  C12 <0> d          -1.211   1.770  -0.200  0.00  0.00     0.082 A 
ATOM     11  C11 <0> d          -0.002   1.096  -0.218  0.00  0.00     0.157 A 
ATOM     12  C10 <0> d           1.180   1.789  -0.007  0.00  0.00     0.154 A 
ATOM     13  F1  <0> d           0.026  -0.236  -0.440  0.00  0.00    -0.203 F 
ATOM     14  C9  <0> d           1.152   3.154   0.221  0.00  0.00     0.048 A 
ATOM     15  F2  <0> d           2.360   1.132  -0.025  0.00  0.00    -0.203 F 
ATOM     16  C8  <0> d          -0.054   3.827   0.244  0.00  0.00     0.040 A 
ENDBRANCH   8   9
ENDBRANCH   6   8
ENDBRANCH   1   6
BRANCH   4  17
ATOM     17  S1  <0> d          -7.924   4.141   2.780  0.00  0.00    -0.081 SA
BRANCH  17  18
ATOM     18  C5  <0> d          -8.508   5.852   2.689  0.00  0.00     0.110 C 
BRANCH  18  19
ATOM     19  C6  <0> d          -9.755   6.012   3.561  0.00  0.00     0.240 C 
BRANCH  19  20
ATOM     20  N3  <0> d         -10.229   7.401   3.487  0.00  0.00    -0.079 N 
ATOM     21  H9  <0> d         -11.125   7.516   4.114  0.00  0.00     0.274 HD
ATOM     22  H10 <0> d         -10.476   7.649   2.444  0.00  0.00     0.274 HD
ATOM     23  H14 <0> d          -9.440   8.077   3.848  0.00  0.00     0.274 HD
ENDBRANCH  19  20
ENDBRANCH  18  19
ENDBRANCH  17  18
ENDBRANCH   4  17
TORSDOF 7
