REMARK  5 active torsions:
REMARK  status: ('A' for Active; 'I' for Inactive)
REMARK    1  A    between atoms: C6_6  and  N4_24 
REMARK       I    between atoms: N1_10  and  C10_11 
REMARK    2  A    between atoms: C10_11  and  C11_13 
REMARK       I    between atoms: C11_13  and  N2_15 
REMARK    3  A    between atoms: N2_15  and  C12_16 
REMARK    4  A    between atoms: C12_16  and  C13_17 
REMARK    5  A    between atoms: C13_17  and  N3_19 
ROOT
ATOM      1  C1  <0> d           1.734  -2.815   1.202  0.00  0.00     0.033 C 
ATOM      2  C2  <0> d           1.862  -1.380   0.685  0.00  0.00     0.094 A 
ATOM      3  C3  <0> d           1.902  -1.369  -0.852  0.00  0.00     0.066 A 
ATOM      4  C4  <0> d           0.692  -0.558  -1.257  0.00  0.00    -0.027 A 
ATOM      5  C5  <0> d           0.211  -0.210  -2.505  0.00  0.00     0.045 A 
ATOM      6  C6  <0> d          -0.936   0.553  -2.619  0.00  0.00     0.103 A 
ATOM      7  C7  <0> d          -1.604   0.966  -1.480  0.00  0.00     0.038 A 
ATOM      8  C8  <0> d          -1.129   0.621  -0.233  0.00  0.00     0.033 A 
ATOM      9  C9  <0> d           0.030  -0.149  -0.110  0.00  0.00     0.044 A 
ATOM     10  N1  <0> d           0.674  -0.602   1.046  0.00  0.00    -0.305 N 
ATOM     11  C10 <0> d           0.263  -0.360   2.307  0.00  0.00     0.316 C 
ATOM     12  O1  <0> d          -0.797   0.198   2.503  0.00  0.00    -0.262 OA
ENDROOT
BRANCH  11  13
ATOM     13  C11 <0> d           1.112  -0.777   3.462  0.00  0.00     0.309 C 
ATOM     14  O2  <0> d           2.221  -1.229   3.268  0.00  0.00    -0.262 OA
ATOM     15  N2  <0> d           0.646  -0.652   4.721  0.00  0.00    -0.351 N 
ATOM     16  H11 <0> d          -0.241  -0.291   4.876  0.00  0.00     0.162 HD
BRANCH  15  17
ATOM     17  C12 <0> d           1.479  -1.062   5.854  0.00  0.00     0.155 C 
BRANCH  17  18
ATOM     18  C13 <0> d           0.772  -0.703   7.163  0.00  0.00     0.202 C 
ATOM     19  C14 <0> d           0.567   0.812   7.231  0.00  0.00     0.042 C 
BRANCH  18  20
ATOM     20  N3  <0> d           1.595  -1.137   8.299  0.00  0.00    -0.066 N 
ATOM     21  C18 <0> d           1.899  -2.580   8.187  0.00  0.00     0.235 C 
ATOM     22  C17 <0> d           1.906  -3.153   9.616  0.00  0.00     0.029 C 
ATOM     23  C16 <0> d           1.559  -1.957  10.532  0.00  0.00     0.029 C 
ATOM     24  C15 <0> d           0.840  -0.980   9.568  0.00  0.00     0.235 C 
ATOM     25  H25 <0> d           2.451  -0.603   8.334  0.00  0.00     0.280 HD
ENDBRANCH  18  20
ENDBRANCH  17  18
ENDBRANCH  15  17
ENDBRANCH  11  13
BRANCH   6  26
ATOM     26  N4  <0> d          -1.450   0.925  -3.956  0.00  0.00    -0.116 N 
ATOM     27  O3  <0> d          -0.866   0.563  -4.951  0.00  0.00    -0.532 OA
ATOM     28  O4  <0> d          -2.454   1.592  -4.054  0.00  0.00    -0.532 OA
ENDBRANCH   6  26
TORSDOF 5
