REMARK  3 active torsions:
REMARK  status: ('A' for Active; 'I' for Inactive)
REMARK    1  A    between atoms: C9_9  and  C10_11 
REMARK       I    between atoms: C10_11  and  N2_13 
REMARK    2  A    between atoms: N2_13  and  N3_14 
REMARK    3  A    between atoms: C11_15  and  C13_20 
ROOT
ATOM      1  C10 <0> d           5.006  -2.551  -0.059  0.00  0.00     0.288 C 
ATOM      2  O1  <0> d           5.082  -3.763  -0.066  0.00  0.00    -0.264 OA
ATOM      3  N2  <0> d           6.128  -1.805  -0.066  0.00  0.00    -0.258 N 
ATOM      4  H8  <0> d           6.067  -0.837  -0.060  0.00  0.00     0.190 HD
ENDROOT
BRANCH   3   5
ATOM      5  N3  <0> d           7.383  -2.428  -0.081  0.00  0.00    -0.229 N 
ATOM      6  C12 <0> d           7.991  -3.038  -1.122  0.00  0.00     0.211 A 
ATOM      7  N5  <0> d           9.206  -3.518  -0.739  0.00  0.00    -0.254 N 
ATOM      8  S1  <0> d           7.331  -3.183  -2.695  0.00  0.00    -0.037 SA
ATOM      9  N4  <0> d           9.466  -3.300   0.447  0.00  0.00    -0.180 NA
ATOM     10  H12 <0> d           9.806  -3.989  -1.339  0.00  0.00     0.191 HD
ATOM     11  C11 <0> d           8.334  -2.570   1.037  0.00  0.00     0.309 A 
BRANCH  11  12
ATOM     12  C13 <0> d           8.774  -1.216   1.532  0.00  0.00     0.100 A 
ATOM     13  O2  <0> d           8.043  -0.091   1.495  0.00  0.00    -0.323 OA
ATOM     14  C16 <0> d           8.751   0.921   2.025  0.00  0.00     0.142 A 
ATOM     15  C15 <0> d           9.953   0.448   2.398  0.00  0.00     0.027 A 
ATOM     16  C14 <0> d           9.969  -0.930   2.081  0.00  0.00     0.039 A 
ENDBRANCH  11  12
ENDBRANCH   3   5
BRANCH   1  17
ATOM     17  C9  <0> d           3.678  -1.891  -0.043  0.00  0.00     0.126 A 
ATOM     18  C8  <0> d           2.520  -2.683  -0.036  0.00  0.00     0.038 A 
ATOM     19  C7  <0> d           1.291  -2.088  -0.021  0.00  0.00     0.016 A 
ATOM     20  C5  <0> d           1.232  -0.682  -0.013  0.00  0.00    -0.007 A 
ATOM     21  C4  <0> d           2.441   0.061  -0.021  0.00  0.00     0.068 A 
ATOM     22  C6  <0> d           0.002  -0.004   0.002  0.00  0.00     0.014 A 
ATOM     23  C3  <0> d           2.379   1.468  -0.013  0.00  0.00     0.032 A 
ATOM     24  N1  <0> d           3.612  -0.574  -0.035  0.00  0.00    -0.243 NA
ATOM     25  C2  <0> d           1.170   2.090   0.002  0.00  0.00     0.002 A 
ATOM     26  C1  <0> d          -0.016   1.357   0.009  0.00  0.00     0.001 A 
ENDBRANCH   1  17
TORSDOF 3
