REMARK  6 active torsions:
REMARK  status: ('A' for Active; 'I' for Inactive)
REMARK    1  A    between atoms: C2_2  and  N1_3 
REMARK    2  A    between atoms: N1_3  and  C3_4 
REMARK    3  A    between atoms: N1_3  and  S1_10 
REMARK    4  A    between atoms: C3_4  and  C4_5 
REMARK       I    between atoms: C4_5  and  N2_7 
REMARK    5  A    between atoms: S1_10  and  C7_13 
REMARK    6  A    between atoms: C10_16  and  N3_20 
ROOT
ATOM      1  S1  <0> d          -0.188  -0.875  -2.551  0.00  0.00     0.267 S 
ATOM      2  O2  <0> d           0.610  -1.782  -3.300  0.00  0.00    -0.200 OA
ATOM      3  O3  <0> d          -1.496  -1.201  -2.104  0.00  0.00    -0.200 OA
ENDROOT
BRANCH   1   4
ATOM      4  N1  <0> d           0.688  -0.476  -1.203  0.00  0.00    -0.298 N 
BRANCH   4   5
ATOM      5  C2  <0> d           0.002  -0.004   0.002  0.00  0.00     0.131 C 
ATOM      6  C1  <0> d          -0.019   1.526   0.010  0.00  0.00     0.027 C 
ENDBRANCH   4   5
BRANCH   4   7
ATOM      7  C3  <0> d           2.148  -0.597  -1.216  0.00  0.00     0.238 C 
BRANCH   7   8
ATOM      8  C4  <0> d           2.547  -1.931  -0.641  0.00  0.00     0.237 C 
ATOM      9  O1  <0> d           1.696  -2.705  -0.258  0.00  0.00    -0.272 OA
ATOM     10  N2  <0> d           3.850  -2.264  -0.552  0.00  0.00    -0.359 N 
ATOM     11  C5  <0> d           4.238  -3.561   0.008  0.00  0.00     0.152 C 
ATOM     12  C6  <0> d           4.878  -1.328  -1.014  0.00  0.00     0.152 C 
ENDBRANCH   7   8
ENDBRANCH   4   7
ENDBRANCH   1   4
BRANCH   1  13
ATOM     13  C7  <0> d          -0.337   0.586  -3.526  0.00  0.00     0.156 A 
ATOM     14  C12 <0> d           0.619   0.878  -4.484  0.00  0.00     0.144 A 
ATOM     15  C11 <0> d           0.500   2.022  -5.254  0.00  0.00     0.073 A 
ATOM     16  F1  <0> d           1.665   0.045  -4.670  0.00  0.00    -0.204 F 
ATOM     17  C10 <0> d          -0.573   2.882  -5.058  0.00  0.00     0.031 A 
ATOM     18  C9  <0> d          -1.527   2.589  -4.092  0.00  0.00     0.073 A 
ATOM     19  C8  <0> d          -1.407   1.442  -3.328  0.00  0.00     0.144 A 
ATOM     20  F2  <0> d          -2.336   1.156  -2.389  0.00  0.00    -0.204 F 
BRANCH  17  21
ATOM     21  N3  <0> d          -0.692   4.039  -5.831  0.00  0.00    -0.399 N 
ATOM     22  H16 <0> d          -1.442   4.639  -5.693  0.00  0.00     0.156 HD
ATOM     23  H17 <0> d          -0.025   4.243  -6.505  0.00  0.00     0.156 HD
ENDBRANCH  17  21
ENDBRANCH   1  13
TORSDOF 6
