REMARK  5 active torsions:
REMARK  status: ('A' for Active; 'I' for Inactive)
REMARK    1  A    between atoms: N1_9  and  C16_20 
REMARK    2  A    between atoms: C11_13  and  C12_15 
REMARK    3  A    between atoms: C16_20  and  C17_21 
REMARK       I    between atoms: C17_21  and  N3_23 
REMARK    4  A    between atoms: N3_23  and  C18_24 
REMARK    5  A    between atoms: C22_28  and  S2_30 
ROOT
ATOM      1  C1  <0> d           1.152   1.418   0.007  0.00  0.00     0.049 C 
ATOM      2  C2  <0> d           0.857  -0.060   0.002  0.00  0.00    -0.054 A 
ATOM      3  C3  <0> d           0.639  -0.716  -1.198  0.00  0.00     0.039 A 
ATOM      4  C4  <0> d           0.369  -2.074  -1.202  0.00  0.00     0.060 A 
ATOM      5  C5  <0> d           0.318  -2.777   0.001  0.00  0.00     0.065 A 
ATOM      6  C6  <0> d           0.537  -2.115   1.197  0.00  0.00     0.039 A 
ATOM      7  C7  <0> d           0.811  -0.758   1.194  0.00  0.00    -0.054 A 
ATOM      8  C8  <0> d           1.056  -0.038   2.495  0.00  0.00     0.049 C 
ATOM      9  N1  <0> d           0.061  -4.143   0.204  0.00  0.00    -0.303 N 
ATOM     10  C9  <0> d          -0.195  -5.095  -0.714  0.00  0.00     0.250 A 
ATOM     11  O1  <0> d          -0.385  -6.214  -0.271  0.00  0.00    -0.268 OA
ATOM     12  C10 <0> d          -0.275  -4.976  -2.111  0.00  0.00     0.105 A 
ATOM     13  C11 <0> d          -0.110  -3.856  -2.897  0.00  0.00     0.055 A 
ATOM     14  N2  <0> d           0.176  -2.561  -2.505  0.00  0.00    -0.353 N 
ATOM     15  H10 <0> d           0.254  -1.908  -3.218  0.00  0.00     0.166 HD
ENDROOT
BRANCH   9  16
ATOM     16  C16 <0> d           0.075  -4.591   1.599  0.00  0.00     0.235 C 
BRANCH  16  17
ATOM     17  C17 <0> d           1.496  -4.845   2.031  0.00  0.00     0.240 C 
ATOM     18  O2  <0> d           2.408  -4.668   1.251  0.00  0.00    -0.271 OA
ATOM     19  N3  <0> d           1.754  -5.268   3.284  0.00  0.00    -0.326 N 
ATOM     20  H16 <0> d           1.022  -5.482   3.884  0.00  0.00     0.169 HD
BRANCH  19  21
ATOM     21  C18 <0> d           3.077  -5.399   3.720  0.00  0.00     0.036 A 
ATOM     22  C23 <0> d           4.046  -4.514   3.273  0.00  0.00     0.048 A 
ATOM     23  C22 <0> d           5.357  -4.643   3.713  0.00  0.00     0.002 A 
ATOM     24  C21 <0> d           5.695  -5.666   4.591  0.00  0.00     0.018 A 
ATOM     25  C20 <0> d           4.728  -6.549   5.030  0.00  0.00     0.004 A 
ATOM     26  C19 <0> d           3.422  -6.419   4.598  0.00  0.00     0.029 A 
BRANCH  23  27
ATOM     27  S2  <0> d           6.591  -3.516   3.154  0.00  0.00    -0.134 SA
ATOM     28  C24 <0> d           8.106  -4.081   3.976  0.00  0.00     0.095 C 
ENDBRANCH  23  27
ENDBRANCH  19  21
ENDBRANCH  16  17
ENDBRANCH   9  16
BRANCH  13  29
ATOM     29  C12 <0> d          -0.257  -4.064  -4.340  0.00  0.00     0.031 A 
ATOM     30  S1  <0> d          -0.120  -2.881  -5.666  0.00  0.00    -0.100 SA
ATOM     31  C15 <0> d          -0.414  -3.903  -6.967  0.00  0.00     0.050 A 
ATOM     32  C14 <0> d          -0.620  -5.115  -6.398  0.00  0.00     0.008 A 
ATOM     33  C13 <0> d          -0.545  -5.233  -5.030  0.00  0.00     0.021 A 
ENDBRANCH  13  29
TORSDOF 5
