REMARK  3 active torsions:
REMARK  status: ('A' for Active; 'I' for Inactive)
REMARK    1  A    between atoms: N1_11  and  C10_12 
REMARK    2  A    between atoms: C10_12  and  C11_13 
REMARK       I    between atoms: C11_13  and  N2_15 
REMARK    3  A    between atoms: N2_15  and  C12_16 
ROOT
ATOM      1  C10 <0> d           4.961  -0.016  -0.031  0.00  0.00     0.231 C 
ENDROOT
BRANCH   1   2
ATOM      2  N1  <0> d           3.826  -0.942  -0.014  0.00  0.00    -0.347 N 
ATOM      3  C4  <0> d           2.548  -0.437   0.066  0.00  0.00     0.049 A 
ATOM      4  C3  <0> d           2.318   0.934   0.130  0.00  0.00     0.030 A 
ATOM      5  C5  <0> d           1.454  -1.320   0.083  0.00  0.00     0.041 A 
ATOM      6  C2  <0> d           1.026   1.407   0.209  0.00  0.00     0.002 A 
ATOM      7  C1  <0> d          -0.050   0.530   0.225  0.00  0.00     0.001 A 
ATOM      8  C6  <0> d           0.154  -0.820   0.163  0.00  0.00     0.018 A 
ATOM      9  C7  <0> d           1.719  -2.768   0.015  0.00  0.00     0.185 A 
ATOM     10  O1  <0> d           0.805  -3.577   0.026  0.00  0.00    -0.287 OA
ATOM     11  C8  <0> d           3.067  -3.188  -0.065  0.00  0.00     0.073 A 
ATOM     12  C9  <0> d           4.061  -2.275  -0.076  0.00  0.00     0.096 A 
ENDBRANCH   1   2
BRANCH   1  13
ATOM     13  C11 <0> d           5.417   0.247   1.381  0.00  0.00     0.240 C 
ATOM     14  O2  <0> d           4.849  -0.288   2.311  0.00  0.00    -0.271 OA
ATOM     15  N2  <0> d           6.454   1.075   1.611  0.00  0.00    -0.321 N 
ATOM     16  H9  <0> d           6.954   1.446   0.867  0.00  0.00     0.169 HD
BRANCH  15  17
ATOM     17  C12 <0> d           6.813   1.402   2.928  0.00  0.00     0.101 A 
ATOM     18  C16 <0> d           5.876   2.022   3.795  0.00  0.00     0.201 A 
ATOM     19  C15 <0> d           6.275   2.329   5.115  0.00  0.00     0.074 A 
ATOM     20  O3  <0> d           4.744   2.280   3.409  0.00  0.00    -0.286 OA
ATOM     21  C14 <0> d           7.534   2.036   5.511  0.00  0.00     0.091 A 
ATOM     22  N3  <0> d           8.410   1.449   4.661  0.00  0.00    -0.373 N 
ATOM     23  C13 <0> d           8.060   1.135   3.387  0.00  0.00     0.121 A 
ATOM     24  H13 <0> d           9.308   1.249   4.969  0.00  0.00     0.164 HD
ENDBRANCH  15  17
ENDBRANCH   1  13
TORSDOF 3
