REMARK  2 active torsions:
REMARK  status: ('A' for Active; 'I' for Inactive)
REMARK    1  A    between atoms: C8_8  and  N2_12 
REMARK    2  A    between atoms: N2_12  and  C10_13 
ROOT
ATOM      1  C1  <0> d          -0.537   1.704   0.168  0.00  0.00     0.048 C 
ATOM      2  C2  <0> d          -0.421   0.204   0.083  0.00  0.00    -0.061 A 
ATOM      3  C3  <0> d          -0.461  -0.426  -1.148  0.00  0.00     0.015 A 
ATOM      4  C4  <0> d          -0.355  -1.799  -1.232  0.00  0.00    -0.034 A 
ATOM      5  C5  <0> d          -0.207  -2.562  -0.075  0.00  0.00     0.049 A 
ATOM      6  C6  <0> d          -0.168  -1.917   1.155  0.00  0.00     0.012 A 
ATOM      7  C7  <0> d          -0.269  -0.546   1.236  0.00  0.00     0.019 A 
ATOM      8  C8  <0> d          -0.003  -2.999   2.197  0.00  0.00     0.347 A 
ATOM      9  C9  <0> d           0.042  -4.281   1.393  0.00  0.00     0.260 A 
ATOM     10  O1  <0> d           0.166  -5.404   1.833  0.00  0.00    -0.270 OA
ATOM     11  N1  <0> d          -0.082  -3.941   0.099  0.00  0.00    -0.324 N 
ATOM     12  C16 <0> d          -0.401  -2.475  -2.578  0.00  0.00     0.050 C 
ATOM     13  H8  <0> d          -0.084  -4.580  -0.631  0.00  0.00     0.169 HD
ENDROOT
BRANCH   8  14
ATOM     14  N2  <0> d          -1.147  -3.006   3.118  0.00  0.00     0.108 N 
ATOM     15  H23 <0> d          -2.004  -2.786   2.632  0.00  0.00     0.318 HD
BRANCH  14  16
ATOM     16  C10 <0> d          -0.926  -2.082   4.239  0.00  0.00     0.250 C 
ATOM     17  C14 <0> d          -0.161  -2.803   5.352  0.00  0.00     0.307 C 
ATOM     18  N3  <0> d           0.041  -1.887   6.481  0.00  0.00     0.086 N 
ATOM     19  C13 <0> d          -1.241  -1.450   7.048  0.00  0.00     0.272 C 
ATOM     20  C15 <0> d           0.890  -2.501   7.511  0.00  0.00     0.310 C 
ATOM     21  C12 <0> d          -2.037  -0.689   5.986  0.00  0.00     0.032 C 
ATOM     22  C11 <0> d          -2.275  -1.603   4.781  0.00  0.00     0.039 C 
ENDBRANCH  14  16
ENDBRANCH   8  14
TORSDOF 2
