REMARK  4 active torsions:
REMARK  status: ('A' for Active; 'I' for Inactive)
REMARK    1  A    between atoms: N1_6  and  C10_11 
REMARK    2  A    between atoms: C10_11  and  C11_12 
REMARK    3  A    between atoms: C11_12  and  C12_13 
REMARK    4  A    between atoms: C12_13  and  C13_14 
ROOT
ATOM      1  C1  <0> d          -0.019   1.527   0.010  0.00  0.00     0.000 C 
ATOM      2  C2  <0> d           1.414   2.062  -0.000  0.00  0.00     0.000 C 
ATOM      3  C3  <0> d           2.166   1.549   1.231  0.00  0.00     0.007 C 
ATOM      4  C4  <0> d           2.187   0.021   1.207  0.00  0.00     0.016 C 
ATOM      5  C5  <0> d           2.941  -0.516   2.423  0.00  0.00     0.239 C 
ATOM      6  N1  <0> d           2.957  -1.984   2.379  0.00  0.00    -0.071 N 
ATOM      7  C6  <0> d           1.587  -2.505   2.463  0.00  0.00     0.235 C 
ATOM      8  C7  <0> d           0.777  -2.033   1.252  0.00  0.00     0.032 C 
ATOM      9  C8  <0> d           0.748  -0.504   1.240  0.00  0.00    -0.007 C 
ATOM     10  C9  <0> d           0.002  -0.004   0.002  0.00  0.00     0.005 C 
ATOM     11  H34 <0> d           3.378  -2.288   1.514  0.00  0.00     0.279 HD
ENDROOT
BRANCH   6  12
ATOM     12  C10 <0> d           3.743  -2.498   3.508  0.00  0.00     0.235 C 
BRANCH  12  13
ATOM     13  C11 <0> d           3.865  -4.019   3.394  0.00  0.00     0.028 C 
BRANCH  13  14
ATOM     14  C12 <0> d           4.685  -4.553   4.570  0.00  0.00     0.006 C 
BRANCH  14  15
ATOM     15  C13 <0> d           4.807  -6.074   4.457  0.00  0.00    -0.011 C 
ATOM     16  C17 <0> d           5.729  -6.598   5.561  0.00  0.00     0.032 C 
ATOM     17  C16 <0> d           5.784  -8.126   5.491  0.00  0.00     0.232 C 
ATOM     18  N2  <0> d           4.436  -8.676   5.676  0.00  0.00    -0.075 N 
ATOM     19  C15 <0> d           3.564  -8.236   4.580  0.00  0.00     0.232 C 
ATOM     20  H28 <0> d           4.059  -8.353   6.555  0.00  0.00     0.277 HD
ATOM     21  H33 <0> d           4.483  -9.684   5.683  0.00  0.00     0.277 HD
ATOM     22  C14 <0> d           3.424  -6.712   4.615  0.00  0.00     0.032 C 
ENDBRANCH  14  15
ENDBRANCH  13  14
ENDBRANCH  12  13
ENDBRANCH   6  12
TORSDOF 4
