REMARK  3 active torsions:
REMARK  status: ('A' for Active; 'I' for Inactive)
REMARK    1  A    between atoms: C10_12  and  N5_15 
REMARK    2  A    between atoms: N5_15  and  C11_16 
REMARK    3  A    between atoms: C11_16  and  C13_18 
ROOT
ATOM      1  C1  <0> d          -0.018   1.503   0.010  0.00  0.00     0.095 C 
ATOM      2  C2  <0> d           0.002  -0.004   0.002  0.00  0.00     0.145 A 
ATOM      3  N1  <0> d           0.007  -0.765  -1.089  0.00  0.00    -0.211 NA
ATOM      4  C3  <0> d           0.026  -2.035  -0.743  0.00  0.00     0.183 A 
ATOM      5  C4  <0> d           0.041  -3.302  -1.481  0.00  0.00     0.042 A 
ATOM      6  C5  <0> d           0.036  -3.346  -2.874  0.00  0.00     0.018 A 
ATOM      7  C6  <0> d           0.050  -4.565  -3.516  0.00  0.00     0.001 A 
ATOM      8  C7  <0> d           0.070  -5.747  -2.787  0.00  0.00     0.002 A 
ATOM      9  C8  <0> d           0.075  -5.726  -1.411  0.00  0.00     0.033 A 
ATOM     10  C9  <0> d           0.061  -4.503  -0.736  0.00  0.00     0.090 A 
ATOM     11  N2  <0> d           0.067  -4.443   0.618  0.00  0.00    -0.062 NA
ATOM     12  C10 <0> d           0.054  -3.305   1.261  0.00  0.00     0.726 A 
ATOM     13  N3  <0> d           0.033  -2.095   0.625  0.00  0.00    -0.041 N 
ATOM     14  N4  <0> d           0.023  -0.765   1.068  0.00  0.00    -0.136 NA
ENDROOT
BRANCH  12  15
ATOM     15  N5  <0> d           0.061  -3.325   2.636  0.00  0.00    -0.212 N 
ATOM     16  H9  <0> d           0.052  -2.493   3.133  0.00  0.00     0.178 HD
BRANCH  15  17
ATOM     17  C11 <0> d           0.083  -4.605   3.349  0.00  0.00     0.155 C 
ATOM     18  C12 <0> d           1.527  -5.091   3.481  0.00  0.00     0.040 C 
BRANCH  17  19
ATOM     19  C13 <0> d          -0.514  -4.425   4.721  0.00  0.00     0.097 A 
ATOM     20  S1  <0> d          -1.627  -5.407   5.515  0.00  0.00    -0.083 SA
ATOM     21  C15 <0> d          -1.753  -4.463   7.026  0.00  0.00     0.071 A 
ATOM     22  C14 <0> d          -0.898  -3.443   6.756  0.00  0.00     0.124 A 
ATOM     23  N6  <0> d          -0.296  -3.463   5.584  0.00  0.00    -0.256 NA
ENDBRANCH  17  19
ENDBRANCH  15  17
ENDBRANCH  12  15
TORSDOF 3
