REMARK  2 active torsions:
REMARK  status: ('A' for Active; 'I' for Inactive)
REMARK    1  A    between atoms: N1_4  and  C8_10 
REMARK    2  A    between atoms: C11_16  and  O4_17 
ROOT
ATOM      1  C1  <0> d          -0.026   1.520   0.350  0.00  0.00     0.041 C 
ATOM      2  C2  <0> d          -0.005   0.001   0.166  0.00  0.00     0.147 C 
ATOM      3  C3  <0> d          -1.438  -0.537   0.188  0.00  0.00     0.304 C 
ATOM      4  N1  <0> d          -1.407  -2.003   0.088  0.00  0.00     0.102 N 
ATOM      5  C4  <0> d          -0.634  -2.585   1.195  0.00  0.00     0.310 C 
ATOM      6  C5  <0> d           0.791  -2.026   1.163  0.00  0.00     0.080 C 
ATOM      7  O1  <0> d           0.740  -0.599   1.229  0.00  0.00    -0.372 OA
ATOM      8  C6  <0> d           1.579  -2.566   2.359  0.00  0.00     0.047 C 
ATOM      9  C7  <0> d           1.478  -2.453  -0.136  0.00  0.00     0.047 C 
ENDROOT
BRANCH   4  10
ATOM     10  C8  <0> d          -2.767  -2.557   0.049  0.00  0.00     0.266 C 
ATOM     11  C11 <0> d          -3.470  -2.030  -1.193  0.00  0.00     0.166 C 
ATOM     12  C10 <0> d          -3.955  -3.137  -2.155  0.00  0.00     0.174 C 
ATOM     13  S1  <0> d          -4.055  -4.586  -1.015  0.00  0.00     0.149 S 
ATOM     14  C9  <0> d          -2.674  -4.098   0.108  0.00  0.00     0.178 C 
ATOM     15  O2  <0> d          -5.283  -4.538  -0.301  0.00  0.00    -0.228 OA
ATOM     16  O3  <0> d          -3.695  -5.766  -1.720  0.00  0.00    -0.228 OA
BRANCH  11  17
ATOM     17  O4  <0> d          -4.599  -1.254  -0.784  0.00  0.00    -0.392 OA
ATOM     18  H21 <0> d          -5.105  -0.880  -1.518  0.00  0.00     0.210 HD
ENDBRANCH  11  17
ENDBRANCH   4  10
TORSDOF 2
