REMARK  5 active torsions:
REMARK  status: ('A' for Active; 'I' for Inactive)
REMARK    1  A    between atoms: C4_4  and  C7_7 
REMARK    2  A    between atoms: C8_10  and  S1_13 
REMARK    3  A    between atoms: S1_13  and  C9_14 
REMARK    4  A    between atoms: C9_14  and  C10_15 
REMARK       I    between atoms: C10_15  and  N4_17 
REMARK    5  A    between atoms: C19_28  and  C20_29 
ROOT
ATOM      1  C10 <0> d          -0.999  11.500   0.074  0.00  0.00     0.234 C 
ATOM      2  O1  <0> d          -2.206  11.624   0.085  0.00  0.00    -0.272 OA
ATOM      3  N4  <0> d          -0.209  12.592   0.073  0.00  0.00    -0.301 N 
ATOM      4  C11 <0> d           1.187  12.463   0.060  0.00  0.00     0.064 A 
ATOM      5  C12 <0> d           1.846  12.037  -1.081  0.00  0.00     0.032 A 
ATOM      6  C13 <0> d           3.225  11.938  -1.082  0.00  0.00     0.002 A 
ATOM      7  C14 <0> d           3.949  12.263   0.051  0.00  0.00     0.002 A 
ATOM      8  C15 <0> d           3.297  12.681   1.197  0.00  0.00     0.032 A 
ATOM      9  C16 <0> d           1.915  12.773   1.209  0.00  0.00     0.061 A 
ATOM     10  N5  <0> d           1.230  13.139   2.373  0.00  0.00    -0.325 N 
ATOM     11  C17 <0> d           0.265  14.083   2.332  0.00  0.00     0.224 C 
ATOM     12  O2  <0> d          -0.378  14.331   3.330  0.00  0.00    -0.273 OA
ATOM     13  C18 <0> d          -0.019  14.828   1.054  0.00  0.00     0.138 C 
ATOM     14  C19 <0> d          -0.793  13.934   0.079  0.00  0.00     0.209 C 
ATOM     15  H14 <0> d           1.477  12.658   3.331  0.00  0.00     0.169 HD
ENDROOT
BRANCH   1  16
ATOM     16  C9  <0> d          -0.383  10.124   0.061  0.00  0.00     0.185 C 
BRANCH  16  17
ATOM     17  S1  <0> d          -1.694   8.876   0.065  0.00  0.00    -0.081 SA
BRANCH  17  18
ATOM     18  C8  <0> d          -0.720   7.409   0.049  0.00  0.00     0.185 A 
ATOM     19  N1  <0> d          -1.188   6.125   0.046  0.00  0.00    -0.201 NA
ATOM     20  C7  <0> d          -0.070   5.323   0.031  0.00  0.00     0.182 A 
ATOM     21  N3  <0> d           0.975   6.117   0.032  0.00  0.00    -0.152 NA
ATOM     22  N2  <0> d           0.593   7.344   0.037  0.00  0.00    -0.253 N 
ATOM     23  H1  <0> d           1.339   8.153   0.031  0.00  0.00     0.191 HD
BRANCH  20  24
ATOM     24  C4  <0> d          -0.050   3.845   0.016  0.00  0.00     0.013 A 
ATOM     25  C3  <0> d          -1.248   3.127   0.025  0.00  0.00     0.015 A 
ATOM     26  C2  <0> d          -1.222   1.748   0.005  0.00  0.00     0.001 A 
ATOM     27  C1  <0> d          -0.013   1.076  -0.011  0.00  0.00     0.000 A 
ATOM     28  C6  <0> d           1.178   1.781  -0.019  0.00  0.00     0.001 A 
ATOM     29  C5  <0> d           1.166   3.160  -0.006  0.00  0.00     0.015 A 
ENDBRANCH  20  24
ENDBRANCH  17  18
ENDBRANCH  16  17
ENDBRANCH   1  16
BRANCH  14  30
ATOM     30  C20 <0> d          -0.719  14.527  -1.329  0.00  0.00     0.408 C 
ATOM     31  F1  <0> d          -1.431  13.713  -2.216  0.00  0.00    -0.169 F 
ATOM     32  F2  <0> d          -1.277  15.810  -1.325  0.00  0.00    -0.169 F 
ATOM     33  F3  <0> d           0.618  14.601  -1.735  0.00  0.00    -0.169 F 
ENDBRANCH  14  30
TORSDOF 5
