REMARK  5 active torsions:
REMARK  status: ('A' for Active; 'I' for Inactive)
REMARK    1  A    between atoms: C5_6  and  N3_8 
REMARK    2  A    between atoms: N3_8  and  C6_9 
REMARK    3  A    between atoms: C6_9  and  C7_10 
REMARK    4  A    between atoms: C7_10  and  C8_11 
REMARK    5  A    between atoms: C10_14  and  C11_16 
ROOT
ATOM      1  C1  <0> d          -0.018   1.503   0.010  0.00  0.00     0.091 C 
ATOM      2  C2  <0> d           0.002  -0.004   0.002  0.00  0.00     0.102 A 
ATOM      3  N1  <0> d           0.005  -0.639  -1.151  0.00  0.00    -0.347 N 
ATOM      4  C3  <0> d           0.015  -1.968  -1.206  0.00  0.00     0.022 A 
ATOM      5  C4  <0> d           0.006  -2.683  -0.036  0.00  0.00     0.012 A 
ATOM      6  C5  <0> d           0.021  -1.980   1.175  0.00  0.00     0.133 A 
ATOM      7  N2  <0> d           0.022  -0.651   1.149  0.00  0.00    -0.218 NA
ATOM      8  C15 <0> d          -0.051  -4.188   0.007  0.00  0.00     0.072 C 
ATOM      9  C16 <0> d           0.608  -4.793  -1.234  0.00  0.00     0.237 C 
ATOM     10  N7  <0> d          -0.419  -4.999  -2.261  0.00  0.00    -0.074 N 
ATOM     11  C17 <0> d          -1.021  -3.721  -2.645  0.00  0.00     0.238 C 
ATOM     12  C18 <0> d           0.057  -2.636  -2.554  0.00  0.00     0.085 C 
ATOM     13  H17 <0> d           0.001  -5.427  -3.072  0.00  0.00     0.277 HD
ATOM     14  H22 <0> d           0.000  -0.128  -1.976  0.00  0.00     0.167 HD
ATOM     15  H23 <0> d          -1.135  -5.609  -1.898  0.00  0.00     0.277 HD
ENDROOT
BRANCH   6  16
ATOM     16  N3  <0> d           0.038  -2.660   2.382  0.00  0.00    -0.374 N 
ATOM     17  H4  <0> d           0.041  -3.630   2.393  0.00  0.00     0.161 HD
BRANCH  16  18
ATOM     18  C6  <0> d           0.053  -1.913   3.643  0.00  0.00     0.127 C 
BRANCH  18  19
ATOM     19  C7  <0> d           0.071  -2.894   4.817  0.00  0.00     0.079 C 
BRANCH  19  20
ATOM     20  C8  <0> d           0.086  -2.127   6.113  0.00  0.00     0.044 A 
ATOM     21  N4  <0> d           1.017  -1.230   6.335  0.00  0.00    -0.243 NA
ATOM     22  C10 <0> d           1.050  -0.536   7.464  0.00  0.00     0.128 A 
ATOM     23  S1  <0> d          -0.362  -1.210   8.328  0.00  0.00    -0.078 SA
ATOM     24  C9  <0> d          -0.862  -2.367   7.059  0.00  0.00     0.079 A 
BRANCH  22  25
ATOM     25  C11 <0> d           2.002   0.509   7.895  0.00  0.00     0.109 A 
ATOM     26  N6  <0> d           3.001   0.875   7.094  0.00  0.00    -0.255 NA
ATOM     27  C14 <0> d           3.845   1.812   7.481  0.00  0.00     0.136 A 
ATOM     28  C13 <0> d           3.701   2.408   8.723  0.00  0.00     0.135 A 
ATOM     29  N5  <0> d           2.715   2.045   9.525  0.00  0.00    -0.269 NA
ATOM     30  C12 <0> d           1.862   1.113   9.146  0.00  0.00     0.150 A 
ENDBRANCH  22  25
ENDBRANCH  19  20
ENDBRANCH  18  19
ENDBRANCH  16  18
ENDBRANCH   6  16
TORSDOF 5
