REMARK  6 active torsions:
REMARK  status: ('A' for Active; 'I' for Inactive)
REMARK    1  A    between atoms: C2_2  and  C3_3 
REMARK    2  A    between atoms: C3_3  and  C4_4 
REMARK    3  A    between atoms: C4_4  and  N1_5 
REMARK       I    between atoms: N1_5  and  C5_6 
REMARK    4  A    between atoms: C5_6  and  C6_8 
REMARK    5  A    between atoms: C7_9  and  N3_18 
REMARK       I    between atoms: N3_18  and  C15_19 
REMARK    6  A    between atoms: C15_19  and  C16_21 
ROOT
ATOM      1  C6  <0> d          -4.063  -4.585  -0.246  0.00  0.00     0.225 A 
ATOM      2  C7  <0> d          -5.070  -4.378  -1.356  0.00  0.00     0.057 A 
ATOM      3  C8  <0> d          -5.842  -5.527  -1.381  0.00  0.00     0.016 A 
ATOM      4  C9  <0> d          -6.933  -5.927  -2.189  0.00  0.00     0.022 A 
ATOM      5  C10 <0> d          -7.511  -7.137  -1.988  0.00  0.00    -0.061 A 
ATOM      6  C11 <0> d          -7.058  -8.009  -0.995  0.00  0.00     0.009 A 
ATOM      7  C12 <0> d          -6.018  -7.693  -0.185  0.00  0.00     0.030 A 
ATOM      8  C13 <0> d          -5.361  -6.445  -0.335  0.00  0.00     0.041 A 
ATOM      9  N2  <0> d          -4.346  -5.910   0.316  0.00  0.00    -0.371 N 
ATOM     10  C14 <0> d          -8.673  -7.550  -2.855  0.00  0.00     0.048 C 
ATOM     11  H23 <0> d          -3.863  -6.325   1.048  0.00  0.00     0.161 HD
ENDROOT
BRANCH   2  12
ATOM     12  N3  <0> d          -5.192  -3.288  -2.161  0.00  0.00    -0.323 N 
ATOM     13  C15 <0> d          -5.630  -3.432  -3.428  0.00  0.00     0.256 C 
ATOM     14  O2  <0> d          -5.947  -4.530  -3.840  0.00  0.00    -0.267 OA
ATOM     15  H18 <0> d          -4.964  -2.408  -1.824  0.00  0.00     0.169 HD
BRANCH  13  16
ATOM     16  C16 <0> d          -5.724  -2.255  -4.314  0.00  0.00     0.032 A 
ATOM     17  C21 <0> d          -6.178  -2.401  -5.627  0.00  0.00     0.020 A 
ATOM     18  C20 <0> d          -6.270  -1.298  -6.448  0.00  0.00     0.043 A 
ATOM     19  C19 <0> d          -5.901  -0.047  -5.977  0.00  0.00     0.116 A 
ATOM     20  C18 <0> d          -5.445   0.103  -4.676  0.00  0.00     0.043 A 
ATOM     21  F1  <0> d          -5.988   1.030  -6.788  0.00  0.00    -0.206 F 
ATOM     22  C17 <0> d          -5.355  -0.992  -3.845  0.00  0.00     0.020 A 
ENDBRANCH  13  16
ENDBRANCH   2  12
BRANCH   1  23
ATOM     23  C5  <0> d          -2.663  -4.545  -0.802  0.00  0.00     0.246 C 
ATOM     24  N1  <0> d          -2.066  -3.360  -1.040  0.00  0.00    -0.359 N 
ATOM     25  H11 <0> d          -2.538  -2.534  -0.854  0.00  0.00     0.162 HD
ATOM     26  O1  <0> d          -2.073  -5.579  -1.035  0.00  0.00    -0.271 OA
BRANCH  24  27
ATOM     27  C4  <0> d          -0.705  -3.321  -1.580  0.00  0.00     0.122 C 
BRANCH  27  28
ATOM     28  C3  <0> d          -0.267  -1.866  -1.756  0.00  0.00     0.019 C 
BRANCH  28  29
ATOM     29  C2  <0> d           1.154  -1.825  -2.320  0.00  0.00    -0.003 C 
ATOM     30  C1  <0> d           1.592  -0.369  -2.495  0.00  0.00     0.005 C 
ENDBRANCH  28  29
ENDBRANCH  27  28
ENDBRANCH  24  27
ENDBRANCH   1  23
TORSDOF 6
