REMARK  6 active torsions:
REMARK  status: ('A' for Active; 'I' for Inactive)
REMARK    1  A    between atoms: C2_2  and  O1_3 
REMARK    2  A    between atoms: O1_3  and  C3_4 
REMARK    3  A    between atoms: C7_8  and  C9_11 
REMARK    4  A    between atoms: C8_9  and  O2_10 
REMARK    5  A    between atoms: N2_21  and  C17_22 
REMARK    6  A    between atoms: C17_22  and  C18_23 
ROOT
ATOM      1  C9  <0> d           1.151  -0.400  -0.721  0.00  0.00     0.224 C 
ATOM      2  N1  <0> d           0.007   0.203  -0.027  0.00  0.00    -0.364 N 
ATOM      3  C10 <0> d          -0.001   1.580   0.168  0.00  0.00     0.045 A 
ATOM      4  C11 <0> d          -1.178   2.306   0.225  0.00  0.00     0.030 A 
ATOM      5  C12 <0> d          -1.130   3.672   0.422  0.00  0.00     0.002 A 
ATOM      6  C13 <0> d           0.087   4.323   0.552  0.00  0.00     0.001 A 
ATOM      7  C14 <0> d           1.270   3.615   0.493  0.00  0.00     0.019 A 
ATOM      8  C15 <0> d           1.236   2.236   0.302  0.00  0.00     0.058 A 
ATOM      9  C16 <0> d           2.468   1.430   0.236  0.00  0.00     0.258 C 
ATOM     10  O3  <0> d           3.531   1.904   0.589  0.00  0.00    -0.267 OA
ATOM     11  N2  <0> d           2.404   0.162  -0.218  0.00  0.00    -0.316 N 
ATOM     12  H11 <0> d          -0.727  -0.346   0.290  0.00  0.00     0.162 HD
ENDROOT
BRANCH   1  13
ATOM     13  C7  <0> d           1.038  -0.126  -2.199  0.00  0.00     0.020 A 
ATOM     14  C6  <0> d           1.687   0.963  -2.751  0.00  0.00     0.014 A 
ATOM     15  C5  <0> d           1.591   1.214  -4.107  0.00  0.00     0.004 A 
ATOM     16  C4  <0> d           0.836   0.384  -4.915  0.00  0.00     0.040 A 
ATOM     17  C3  <0> d           0.178  -0.706  -4.367  0.00  0.00     0.102 A 
ATOM     18  C8  <0> d           0.280  -0.962  -3.003  0.00  0.00     0.109 A 
BRANCH  17  19
ATOM     19  O1  <0> d          -0.565  -1.523  -5.160  0.00  0.00    -0.349 OA
BRANCH  19  20
ATOM     20  C2  <0> d          -0.624  -1.199  -6.551  0.00  0.00     0.171 C 
ATOM     21  C1  <0> d          -1.498  -2.223  -7.277  0.00  0.00     0.034 C 
ENDBRANCH  19  20
ENDBRANCH  17  19
BRANCH  18  22
ATOM     22  O2  <0> d          -0.364  -2.030  -2.460  0.00  0.00    -0.357 OA
ATOM     23  H10 <0> d          -1.261  -1.835  -2.156  0.00  0.00     0.217 HD
ENDBRANCH  18  22
ENDBRANCH   1  13
BRANCH  11  24
ATOM     24  C17 <0> d           3.611  -0.668  -0.208  0.00  0.00     0.193 C 
BRANCH  24  25
ATOM     25  C18 <0> d           4.347  -0.500  -1.512  0.00  0.00     0.070 A 
ATOM     26  O4  <0> d           4.181  -1.254  -2.611  0.00  0.00    -0.325 OA
ATOM     27  C21 <0> d           5.001  -0.818  -3.581  0.00  0.00     0.142 A 
ATOM     28  C20 <0> d           5.704   0.226  -3.107  0.00  0.00     0.027 A 
ATOM     29  C19 <0> d           5.279   0.434  -1.775  0.00  0.00     0.036 A 
ENDBRANCH  24  25
ENDBRANCH  11  24
TORSDOF 6
