REMARK  7 active torsions:
REMARK  status: ('A' for Active; 'I' for Inactive)
REMARK    1  A    between atoms: N1_5  and  C5_7 
REMARK    2  A    between atoms: C5_7  and  C6_8 
REMARK    3  A    between atoms: C10_12  and  N3_14 
REMARK       I    between atoms: N3_14  and  C12_15 
REMARK       I    between atoms: C12_15  and  N4_17 
REMARK    4  A    between atoms: N4_17  and  C13_18 
REMARK    5  A    between atoms: C13_18  and  C14_19 
REMARK    6  A    between atoms: C14_19  and  C15_20 
REMARK    7  A    between atoms: C14_19  and  N5_25 
ROOT
ATOM      1  N3  <0> d           4.054  -2.906   4.369  0.00  0.00    -0.309 N 
ATOM      2  C12 <0> d           5.279  -3.383   4.667  0.00  0.00     0.320 C 
ATOM      3  O1  <0> d           5.808  -4.200   3.937  0.00  0.00    -0.247 OA
ATOM      4  N4  <0> d           5.918  -2.956   5.774  0.00  0.00    -0.340 N 
ATOM      5  H12 <0> d           3.663  -2.202   4.910  0.00  0.00     0.170 HD
ATOM      6  H13 <0> d           5.496  -2.305   6.356  0.00  0.00     0.164 HD
ENDROOT
BRANCH   1   7
ATOM      7  C10 <0> d           3.347  -3.426   3.279  0.00  0.00     0.036 A 
ATOM      8  C9  <0> d           2.503  -2.606   2.542  0.00  0.00     0.029 A 
ATOM      9  C8  <0> d           1.807  -3.122   1.467  0.00  0.00     0.003 A 
ATOM     10  C7  <0> d           1.948  -4.454   1.124  0.00  0.00     0.009 A 
ATOM     11  C6  <0> d           2.788  -5.273   1.856  0.00  0.00    -0.036 A 
ATOM     12  C11 <0> d           3.483  -4.765   2.936  0.00  0.00     0.038 A 
BRANCH  11  13
ATOM     13  C5  <0> d           2.939  -6.725   1.480  0.00  0.00     0.189 C 
BRANCH  13  14
ATOM     14  N1  <0> d           1.935  -7.521   2.189  0.00  0.00    -0.270 N 
ATOM     15  C4  <0> d           0.694  -7.810   1.746  0.00  0.00     0.029 A 
ATOM     16  C3  <0> d           0.084  -8.564   2.691  0.00  0.00     0.055 A 
ATOM     17  C21 <0> d           0.094  -7.373   0.435  0.00  0.00     0.070 C 
ATOM     18  C2  <0> d           0.984  -8.741   3.747  0.00  0.00     0.053 A 
ATOM     19  C1  <0> d           0.721  -9.517   5.012  0.00  0.00     0.072 C 
ATOM     20  N2  <0> d           2.092  -8.112   3.450  0.00  0.00    -0.177 NA
ENDBRANCH  13  14
ENDBRANCH  11  13
ENDBRANCH   1   7
BRANCH   4  21
ATOM     21  C13 <0> d           7.249  -3.475   6.098  0.00  0.00     0.164 C 
BRANCH  21  22
ATOM     22  C14 <0> d           7.702  -2.910   7.446  0.00  0.00     0.261 C 
BRANCH  22  23
ATOM     23  C15 <0> d           6.791  -3.417   8.535  0.00  0.00     0.085 A 
ATOM     24  O2  <0> d           5.576  -2.928   8.834  0.00  0.00    -0.325 OA
ATOM     25  C18 <0> d           5.052  -3.625   9.855  0.00  0.00     0.142 A 
ATOM     26  C17 <0> d           5.938  -4.566  10.227  0.00  0.00     0.027 A 
ATOM     27  C16 <0> d           7.059  -4.432   9.376  0.00  0.00     0.037 A 
ENDBRANCH  22  23
BRANCH  22  28
ATOM     28  N5  <0> d           7.647  -1.443   7.406  0.00  0.00    -0.067 N 
ATOM     29  C19 <0> d           8.113  -0.900   8.689  0.00  0.00     0.270 C 
ATOM     30  C20 <0> d           8.511  -0.950   6.324  0.00  0.00     0.270 C 
ATOM     31  H28 <0> d           6.697  -1.146   7.240  0.00  0.00     0.280 HD
ENDBRANCH  22  28
ENDBRANCH  21  22
ENDBRANCH   4  21
TORSDOF 7
