REMARK  5 active torsions:
REMARK  status: ('A' for Active; 'I' for Inactive)
REMARK    1  A    between atoms: C5_5  and  N1_8 
REMARK    2  A    between atoms: C12_17  and  C20_30 
REMARK    3  A    between atoms: C12_17  and  C21_34 
REMARK    4  A    between atoms: C13_19  and  C14_21 
REMARK    5  A    between atoms: C18_25  and  N5_27 
ROOT
ATOM      1  N1  <0> d          -0.271  -3.903   0.398  0.00  0.00    -0.248 N 
ATOM      2  C8  <0> d           0.006  -4.728   1.462  0.00  0.00     0.133 A 
ATOM      3  C9  <0> d           0.016  -6.080   1.284  0.00  0.00     0.103 A 
ATOM      4  C10 <0> d          -0.266  -6.601   0.009  0.00  0.00     0.262 A 
ATOM      5  O1  <0> d          -0.269  -7.806  -0.175  0.00  0.00    -0.267 OA
ATOM      6  N2  <0> d          -0.533  -5.758  -1.008  0.00  0.00    -0.274 N 
ATOM      7  H1  <0> d          -0.728  -6.115  -1.889  0.00  0.00     0.173 HD
ATOM      8  C11 <0> d          -0.539  -4.427  -0.813  0.00  0.00     0.335 A 
ATOM      9  O2  <0> d          -0.785  -3.686  -1.745  0.00  0.00    -0.246 OA
ATOM     10  C12 <0> d           0.330  -7.001   2.428  0.00  0.00     0.285 C 
ATOM     11  N3  <0> d           0.225  -6.311   3.707  0.00  0.00    -0.237 NA
ATOM     12  C13 <0> d           0.201  -5.023   3.815  0.00  0.00     0.136 C 
ATOM     13  N4  <0> d           0.267  -4.204   2.705  0.00  0.00    -0.326 N 
ATOM     14  H9  <0> d           0.497  -3.267   2.803  0.00  0.00     0.169 HD
ENDROOT
BRANCH  12  15
ATOM     15  C14 <0> d           0.100  -4.412   5.160  0.00  0.00     0.012 A 
ATOM     16  C19 <0> d           0.031  -5.221   6.293  0.00  0.00     0.051 A 
ATOM     17  C18 <0> d          -0.058  -4.645   7.544  0.00  0.00     0.103 A 
ATOM     18  C17 <0> d          -0.090  -3.268   7.674  0.00  0.00     0.036 A 
ATOM     19  C16 <0> d          -0.028  -2.460   6.553  0.00  0.00     0.003 A 
ATOM     20  C15 <0> d           0.067  -3.024   5.297  0.00  0.00     0.015 A 
BRANCH  17  21
ATOM     21  N5  <0> d          -0.125  -5.503   8.749  0.00  0.00    -0.116 N 
ATOM     22  O3  <0> d          -0.208  -4.999   9.845  0.00  0.00    -0.532 OA
ATOM     23  O4  <0> d          -0.097  -6.706   8.637  0.00  0.00    -0.532 OA
ENDBRANCH  17  21
ENDBRANCH  12  15
BRANCH  10  24
ATOM     24  C20 <0> d          -0.651  -8.175   2.409  0.00  0.00     0.428 C 
ATOM     25  F1  <0> d          -0.293  -9.066   1.391  0.00  0.00    -0.168 F 
ATOM     26  F2  <0> d          -0.611  -8.836   3.642  0.00  0.00    -0.168 F 
ATOM     27  F3  <0> d          -1.945  -7.697   2.178  0.00  0.00    -0.168 F 
ENDBRANCH  10  24
BRANCH  10  28
ATOM     28  C21 <0> d           1.754  -7.537   2.264  0.00  0.00     0.428 C 
ATOM     29  F4  <0> d           2.657  -6.468   2.259  0.00  0.00    -0.168 F 
ATOM     30  F5  <0> d           2.054  -8.396   3.326  0.00  0.00    -0.168 F 
ATOM     31  F6  <0> d           1.852  -8.236   1.056  0.00  0.00    -0.168 F 
ENDBRANCH  10  28
BRANCH   1  32
ATOM     32  C5  <0> d          -0.279  -2.514   0.576  0.00  0.00     0.045 A 
ATOM     33  C4  <0> d          -1.448  -1.868   0.955  0.00  0.00     0.031 A 
ATOM     34  C3  <0> d          -1.453  -0.497   1.129  0.00  0.00     0.009 A 
ATOM     35  C2  <0> d          -0.296   0.231   0.927  0.00  0.00    -0.062 A 
ATOM     36  C1  <0> d          -0.304   1.726   1.118  0.00  0.00     0.048 C 
ATOM     37  C7  <0> d           0.869  -0.409   0.544  0.00  0.00     0.009 A 
ATOM     38  C6  <0> d           0.882  -1.779   0.373  0.00  0.00     0.031 A 
ENDBRANCH   1  32
TORSDOF 5
