REMARK  6 active torsions:
REMARK  status: ('A' for Active; 'I' for Inactive)
REMARK    1  A    between atoms: C4_4  and  S1_7 
REMARK    2  A    between atoms: S1_7  and  C7_10 
REMARK    3  A    between atoms: C7_10  and  C8_11 
REMARK    4  A    between atoms: C8_11  and  S2_12 
REMARK    5  A    between atoms: S2_12  and  C9_13 
REMARK    6  A    between atoms: C10_16  and  C11_18 
ROOT
ATOM      1  C9  <0> d           7.699  -2.935   3.510  0.00  0.00     0.311 A 
ATOM      2  N1  <0> d           7.557  -4.201   2.772  0.00  0.00    -0.273 N 
ATOM      3  N2  <0> d           8.429  -4.099   1.678  0.00  0.00    -0.150 NA
ATOM      4  C10 <0> d           9.043  -2.946   1.699  0.00  0.00     0.195 A 
ATOM      5  O3  <0> d           8.668  -2.187   2.761  0.00  0.00    -0.296 OA
ATOM      6  H11 <0> d           6.981  -4.949   2.995  0.00  0.00     0.186 HD
ENDROOT
BRANCH   1   7
ATOM      7  S2  <0> d           6.116  -2.049   3.559  0.00  0.00    -0.114 SA
BRANCH   7   8
ATOM      8  C8  <0> d           5.691  -1.813   1.812  0.00  0.00     0.093 C 
BRANCH   8   9
ATOM      9  C7  <0> d           4.359  -1.068   1.707  0.00  0.00     0.156 C 
BRANCH   9  10
ATOM     10  S1  <0> d           3.934  -0.832  -0.041  0.00  0.00     0.176 S 
ATOM     11  O1  <0> d           3.641  -2.083  -0.647  0.00  0.00    -0.223 OA
ATOM     12  O2  <0> d           4.846   0.072  -0.648  0.00  0.00    -0.223 OA
BRANCH  10  13
ATOM     13  C4  <0> d           2.396   0.029  -0.020  0.00  0.00     0.059 A 
ATOM     14  C3  <0> d           2.377   1.411  -0.013  0.00  0.00     0.023 A 
ATOM     15  C2  <0> d           1.171   2.086   0.002  0.00  0.00     0.002 A 
ATOM     16  C1  <0> d          -0.017   1.378   0.010  0.00  0.00     0.000 A 
ATOM     17  C6  <0> d           0.002  -0.004   0.002  0.00  0.00     0.002 A 
ATOM     18  C5  <0> d           1.208  -0.679  -0.012  0.00  0.00     0.023 A 
ENDBRANCH  10  13
ENDBRANCH   9  10
ENDBRANCH   8   9
ENDBRANCH   7   8
ENDBRANCH   1   7
BRANCH   4  19
ATOM     19  C11 <0> d           9.981  -2.540   0.740  0.00  0.00     0.026 A 
ATOM     20  C18 <0> d          10.733  -1.228   0.694  0.00  0.00     0.164 A 
ATOM     21  N3  <0> d          11.588  -1.293  -0.496  0.00  0.00    -0.385 N 
ATOM     22  C17 <0> d          11.400  -2.448  -1.104  0.00  0.00     0.039 A 
ATOM     23  H18 <0> d          12.193  -0.594  -0.791  0.00  0.00     0.160 HD
ATOM     24  C12 <0> d          10.412  -3.259  -0.376  0.00  0.00     0.003 A 
ATOM     25  C16 <0> d          11.974  -2.991  -2.282  0.00  0.00     0.030 A 
ATOM     26  C13 <0> d          10.076  -4.535  -0.875  0.00  0.00     0.014 A 
ATOM     27  C14 <0> d          10.666  -4.991  -2.010  0.00  0.00     0.001 A 
ATOM     28  C15 <0> d          11.605  -4.226  -2.704  0.00  0.00     0.002 A 
ENDBRANCH   4  19
TORSDOF 6
