REMARK  2 active torsions:
REMARK  status: ('A' for Active; 'I' for Inactive)
REMARK    1  A    between atoms: C7_10  and  S1_13 
REMARK    2  A    between atoms: S1_13  and  N2_16 
ROOT
ATOM      1  S1  <0> d           2.712   0.902  -0.018  0.00  0.00     0.260 S 
ATOM      2  O2  <0> d           3.689   1.777   0.528  0.00  0.00    -0.200 OA
ATOM      3  O3  <0> d           2.449  -0.383   0.529  0.00  0.00    -0.200 OA
ENDROOT
BRANCH   1   4
ATOM      4  C7  <0> d           1.184   1.779   0.000  0.00  0.00     0.080 A 
ATOM      5  C6  <0> d           1.188   3.145   0.007  0.00  0.00     0.039 A 
ATOM      6  C5  <0> d          -0.025   3.842   0.022  0.00  0.00    -0.008 A 
ATOM      7  C1  <0> d          -0.057   5.306   0.029  0.00  0.00     0.019 A 
ATOM      8  C4  <0> d          -1.241   3.132   0.030  0.00  0.00     0.045 A 
ATOM      9  C2  <0> d          -1.263   5.926   0.043  0.00  0.00     0.075 A 
ATOM     10  C3  <0> d          -2.453   5.168   0.051  0.00  0.00     0.245 A 
ATOM     11  O1  <0> d          -3.526   5.746   0.064  0.00  0.00    -0.268 OA
ATOM     12  N1  <0> d          -2.433   3.824   0.044  0.00  0.00    -0.323 N 
ATOM     13  H1  <0> d          -3.378   3.260   0.050  0.00  0.00     0.169 HD
ATOM     14  C9  <0> d          -1.220   1.742   0.017  0.00  0.00     0.032 A 
ATOM     15  C8  <0> d          -0.013   1.076   0.008  0.00  0.00     0.027 A 
ENDBRANCH   1   4
BRANCH   1  16
ATOM     16  N2  <0> d           3.122   0.665  -1.605  0.00  0.00    -0.306 N 
ATOM     17  C14 <0> d           3.937   1.655  -2.322  0.00  0.00     0.140 C 
ATOM     18  C13 <0> d           5.149   0.945  -2.935  0.00  0.00     0.089 C 
ATOM     19  C12 <0> d           4.668  -0.223  -3.797  0.00  0.00     0.167 C 
ATOM     20  C11 <0> d           3.902  -1.227  -2.934  0.00  0.00     0.089 C 
ATOM     21  O5  <0> d           3.803   0.273  -4.833  0.00  0.00    -0.353 OA
ATOM     22  O4  <0> d           5.793  -0.869  -4.404  0.00  0.00    -0.353 OA
ATOM     23  C10 <0> d           2.683  -0.541  -2.319  0.00  0.00     0.140 C 
ATOM     24  C16 <0> d           4.665   0.443  -5.984  0.00  0.00     0.197 C 
ATOM     25  C15 <0> d           5.632  -0.757  -5.833  0.00  0.00     0.197 C 
ENDBRANCH   1  16
TORSDOF 2
