REMARK  3 active torsions:
REMARK  status: ('A' for Active; 'I' for Inactive)
REMARK    1  A    between atoms: C5_5  and  N1_8 
REMARK    2  A    between atoms: C10_12  and  C21_27 
REMARK    3  A    between atoms: C21_27  and  C22_28 
ROOT
ATOM      1  N1  <0> d           0.059  -4.172  -0.021  0.00  0.00    -0.252 N 
ATOM      2  C8  <0> d          -0.030  -4.891  -1.146  0.00  0.00     0.238 A 
ATOM      3  O1  <0> d          -0.133  -4.432  -2.264  0.00  0.00    -0.272 OA
ATOM      4  C9  <0> d           0.018  -6.364  -0.807  0.00  0.00     0.129 A 
ATOM      5  C10 <0> d          -1.360  -6.995  -1.096  0.00  0.00     0.240 C 
ATOM      6  N2  <0> d          -1.656  -7.828   0.100  0.00  0.00     0.114 N 
ATOM      7  C11 <0> d          -1.154  -7.027   1.232  0.00  0.00     0.279 A 
ATOM      8  C12 <0> d           0.160  -6.370   0.741  0.00  0.00     0.147 A 
ATOM      9  C13 <0> d           0.172  -4.901   1.096  0.00  0.00     0.239 A 
ATOM     10  O2  <0> d           0.268  -4.452   2.218  0.00  0.00    -0.272 OA
ATOM     11  C14 <0> d          -2.162  -6.003   1.672  0.00  0.00     0.017 A 
ATOM     12  C15 <0> d          -2.785  -4.952   1.037  0.00  0.00     0.012 A 
ATOM     13  C16 <0> d          -3.693  -4.167   1.726  0.00  0.00     0.001 A 
ATOM     14  C17 <0> d          -3.973  -4.441   3.053  0.00  0.00     0.002 A 
ATOM     15  C18 <0> d          -3.350  -5.492   3.692  0.00  0.00     0.030 A 
ATOM     16  C19 <0> d          -2.436  -6.288   3.006  0.00  0.00     0.044 A 
ATOM     17  N3  <0> d          -1.689  -7.390   3.428  0.00  0.00    -0.324 N 
ATOM     18  C20 <0> d          -0.911  -7.883   2.445  0.00  0.00     0.267 A 
ATOM     19  O3  <0> d          -0.161  -8.832   2.523  0.00  0.00    -0.270 OA
ATOM     20  H11 <0> d          -2.647  -7.997   0.188  0.00  0.00     0.318 HD
ATOM     21  H16 <0> d          -1.726  -7.758   4.325  0.00  0.00     0.169 HD
ENDROOT
BRANCH   5  22
ATOM     22  C21 <0> d          -1.295  -7.867  -2.352  0.00  0.00     0.073 C 
BRANCH  22  23
ATOM     23  C22 <0> d          -2.674  -8.373  -2.684  0.00  0.00    -0.048 A 
ATOM     24  C29 <0> d          -3.354  -9.600  -2.118  0.00  0.00     0.155 A 
ATOM     25  N4  <0> d          -4.675  -9.657  -2.752  0.00  0.00    -0.385 N 
ATOM     26  C28 <0> d          -4.787  -8.644  -3.577  0.00  0.00     0.038 A 
ATOM     27  H25 <0> d          -5.352 -10.334  -2.592  0.00  0.00     0.160 HD
ATOM     28  C23 <0> d          -3.553  -7.826  -3.555  0.00  0.00    -0.006 A 
ATOM     29  C27 <0> d          -5.845  -8.234  -4.435  0.00  0.00     0.030 A 
ATOM     30  C24 <0> d          -3.491  -6.641  -4.418  0.00  0.00     0.014 A 
ATOM     31  C25 <0> d          -4.554  -6.340  -5.197  0.00  0.00     0.001 A 
ATOM     32  C26 <0> d          -5.713  -7.130  -5.201  0.00  0.00     0.002 A 
ENDBRANCH  22  23
ENDBRANCH   5  22
BRANCH   1  33
ATOM     33  C5  <0> d           0.040  -2.771  -0.013  0.00  0.00     0.045 A 
ATOM     34  C4  <0> d           1.175  -2.062   0.358  0.00  0.00     0.031 A 
ATOM     35  C3  <0> d           1.153  -0.681   0.365  0.00  0.00     0.009 A 
ATOM     36  C2  <0> d           0.004  -0.004   0.001  0.00  0.00    -0.062 A 
ATOM     37  C1  <0> d          -0.016   1.503   0.009  0.00  0.00     0.048 C 
ATOM     38  C7  <0> d          -1.129  -0.707  -0.365  0.00  0.00     0.009 A 
ATOM     39  C6  <0> d          -1.113  -2.088  -0.378  0.00  0.00     0.031 A 
ENDBRANCH   1  33
TORSDOF 3
