REMARK  6 active torsions:
REMARK  status: ('A' for Active; 'I' for Inactive)
REMARK    1  A    between atoms: C2_2  and  N1_3 
REMARK    2  A    between atoms: C3_4  and  C5_9 
REMARK    3  A    between atoms: C5_9  and  C6_10 
REMARK    4  A    between atoms: C6_10  and  N4_11 
REMARK       I    between atoms: N4_11  and  C7_12 
REMARK    5  A    between atoms: C7_12  and  C8_14 
REMARK    6  A    between atoms: C8_14  and  N5_15 
ROOT
ATOM      1  N4  <0> d           5.424  -0.748  -0.421  0.00  0.00    -0.359 N 
ATOM      2  C7  <0> d           6.726  -1.024  -0.211  0.00  0.00     0.235 C 
ATOM      3  O1  <0> d           7.095  -1.422   0.874  0.00  0.00    -0.272 OA
ATOM      4  H11 <0> d           5.130  -0.430  -1.289  0.00  0.00     0.162 HD
ENDROOT
BRANCH   1   5
ATOM      5  C6  <0> d           4.453  -0.929   0.661  0.00  0.00     0.130 C 
BRANCH   5   6
ATOM      6  C5  <0> d           3.058  -0.548   0.163  0.00  0.00     0.100 C 
BRANCH   6   7
ATOM      7  C3  <0> d           2.059  -0.734   1.276  0.00  0.00     0.130 A 
ATOM      8  N1  <0> d           0.711  -0.489   1.189  0.00  0.00    -0.310 N 
ATOM      9  C4  <0> d           0.151  -0.766   2.384  0.00  0.00     0.196 A 
ATOM     10  N3  <0> d           1.137  -1.188   3.203  0.00  0.00    -0.251 N 
ATOM     11  S1  <0> d          -1.506  -0.615   2.787  0.00  0.00    -0.039 SA
ATOM     12  N2  <0> d           2.332  -1.152   2.470  0.00  0.00    -0.159 NA
ATOM     13  H6  <0> d           1.038  -1.461   4.128  0.00  0.00     0.191 HD
BRANCH   8  14
ATOM     14  C2  <0> d           0.002  -0.004   0.002  0.00  0.00     0.128 C 
ATOM     15  C1  <0> d          -0.019   1.526   0.010  0.00  0.00     0.027 C 
ENDBRANCH   8  14
ENDBRANCH   6   7
ENDBRANCH   5   6
ENDBRANCH   1   5
BRANCH   2  16
ATOM     16  C8  <0> d           7.725  -0.838  -1.324  0.00  0.00     0.231 C 
BRANCH  16  17
ATOM     17  N5  <0> d           9.062  -1.203  -0.848  0.00  0.00    -0.347 N 
ATOM     18  C12 <0> d           9.575  -2.481  -0.832  0.00  0.00     0.045 A 
ATOM     19  C11 <0> d          10.877  -2.398  -0.307  0.00  0.00    -0.002 A 
ATOM     20  C13 <0> d           9.071  -3.719  -1.216  0.00  0.00     0.030 A 
ATOM     21  C10 <0> d          11.102  -0.984  -0.001  0.00  0.00    -0.034 A 
ATOM     22  C16 <0> d          11.650  -3.554  -0.176  0.00  0.00     0.014 A 
ATOM     23  C9  <0> d           9.984  -0.325  -0.345  0.00  0.00     0.099 A 
ATOM     24  C17 <0> d          12.351  -0.381   0.589  0.00  0.00     0.050 C 
ATOM     25  C15 <0> d          11.132  -4.762  -0.551  0.00  0.00     0.001 A 
ATOM     26  C14 <0> d           9.849  -4.848  -1.073  0.00  0.00     0.002 A 
ENDBRANCH  16  17
ENDBRANCH   2  16
TORSDOF 6
