REMARK  7 active torsions:
REMARK  status: ('A' for Active; 'I' for Inactive)
REMARK    1  A    between atoms: C3_3  and  O5_34 
REMARK    2  A    between atoms: C4_4  and  N2_15 
REMARK    3  A    between atoms: C6_6  and  S1_7 
REMARK    4  A    between atoms: S1_7  and  N1_10 
REMARK       I    between atoms: N2_15  and  C11_16 
REMARK    5  A    between atoms: C11_16  and  C12_18 
REMARK    6  A    between atoms: C12_18  and  C13_19 
REMARK    7  A    between atoms: C13_19  and  C14_20 
ROOT
ATOM      1  N2  <0> d          -3.493   0.532   3.693  0.00  0.00    -0.325 N 
ATOM      2  C11 <0> d          -3.768  -0.642   3.090  0.00  0.00     0.222 C 
ATOM      3  O3  <0> d          -3.144  -0.979   2.105  0.00  0.00    -0.273 OA
ATOM      4  H13 <0> d          -3.934   0.764   4.524  0.00  0.00     0.169 HD
ENDROOT
BRANCH   1   5
ATOM      5  C4  <0> d          -2.570   1.415   3.118  0.00  0.00     0.069 A 
ATOM      6  C3  <0> d          -1.895   2.337   3.916  0.00  0.00     0.092 A 
ATOM      7  C2  <0> d          -0.983   3.208   3.343  0.00  0.00     0.040 A 
ATOM      8  C1  <0> d          -0.741   3.158   1.982  0.00  0.00     0.028 A 
ATOM      9  C6  <0> d          -1.414   2.248   1.189  0.00  0.00     0.082 A 
ATOM     10  C5  <0> d          -2.325   1.375   1.754  0.00  0.00     0.057 A 
BRANCH   6  11
ATOM     11  O5  <0> d          -2.130   2.380   5.255  0.00  0.00    -0.358 OA
ATOM     12  H24 <0> d          -1.552   1.805   5.775  0.00  0.00     0.217 HD
ENDBRANCH   6  11
BRANCH   9  13
ATOM     13  S1  <0> d          -1.104   2.195  -0.545  0.00  0.00     0.260 S 
ATOM     14  O1  <0> d          -1.452   0.888  -0.980  0.00  0.00    -0.200 OA
ATOM     15  O2  <0> d           0.191   2.745  -0.743  0.00  0.00    -0.200 OA
BRANCH  13  16
ATOM     16  N1  <0> d          -2.174   3.233  -1.265  0.00  0.00    -0.307 N 
ATOM     17  C10 <0> d          -1.939   4.665  -1.525  0.00  0.00     0.135 C 
ATOM     18  C9  <0> d          -2.883   5.015  -2.703  0.00  0.00     0.022 C 
ATOM     19  C8  <0> d          -4.130   4.154  -2.368  0.00  0.00     0.022 C 
ATOM     20  C7  <0> d          -3.514   2.878  -1.757  0.00  0.00     0.135 C 
ENDBRANCH  13  16
ENDBRANCH   9  13
ENDBRANCH   1   5
BRANCH   2  21
ATOM     21  C12 <0> d          -4.849  -1.536   3.639  0.00  0.00     0.110 C 
BRANCH  21  22
ATOM     22  C13 <0> d          -4.957  -2.795   2.776  0.00  0.00     0.088 C 
BRANCH  22  23
ATOM     23  C14 <0> d          -6.039  -3.689   3.325  0.00  0.00     0.108 A 
ATOM     24  N4  <0> d          -6.703  -3.315   4.386  0.00  0.00    -0.227 NA
ATOM     25  C19 <0> d          -7.664  -4.082   4.894  0.00  0.00     0.116 A 
ATOM     26  C16 <0> d          -8.009  -5.315   4.325  0.00  0.00     0.075 A 
ATOM     27  S2  <0> d          -8.766  -3.946   6.277  0.00  0.00    -0.073 SA
ATOM     28  C15 <0> d          -7.263  -5.697   3.163  0.00  0.00     0.260 A 
ATOM     29  C17 <0> d          -9.091  -6.054   4.992  0.00  0.00    -0.026 A 
ATOM     30  N3  <0> d          -6.308  -4.867   2.704  0.00  0.00    -0.311 N 
ATOM     31  O4  <0> d          -7.492  -6.753   2.599  0.00  0.00    -0.267 OA
ATOM     32  H1  <0> d          -5.801  -5.116   1.916  0.00  0.00     0.170 HD
ATOM     33  C22 <0> d          -9.794  -7.393   4.748  0.00  0.00     0.041 C 
ATOM     34  C18 <0> d          -9.639  -5.482   6.078  0.00  0.00    -0.008 A 
ATOM     35  C21 <0> d         -10.507  -7.732   6.072  0.00  0.00     0.010 C 
ATOM     36  C20 <0> d         -10.729  -6.329   6.678  0.00  0.00     0.047 C 
ENDBRANCH  22  23
ENDBRANCH  21  22
ENDBRANCH   2  21
TORSDOF 7
