REMARK  4 active torsions:
REMARK  status: ('A' for Active; 'I' for Inactive)
REMARK    1  A    between atoms: C9_10  and  C11_13 
REMARK    2  A    between atoms: C11_13  and  C12_14 
REMARK       I    between atoms: C12_14  and  N1_16 
REMARK    3  A    between atoms: N1_16  and  N2_17 
REMARK       I    between atoms: N2_17  and  C13_18 
REMARK    4  A    between atoms: C13_18  and  C14_20 
ROOT
ATOM      1  C12 <0> d          -1.329  -5.703   0.993  0.00  0.00     0.240 C 
ATOM      2  O2  <0> d          -2.259  -5.050   0.569  0.00  0.00    -0.272 OA
ATOM      3  N1  <0> d          -1.556  -6.728   1.838  0.00  0.00    -0.267 N 
ATOM      4  H11 <0> d          -0.813  -7.250   2.178  0.00  0.00     0.190 HD
ENDROOT
BRANCH   1   5
ATOM      5  C11 <0> d           0.080  -5.368   0.576  0.00  0.00     0.146 C 
BRANCH   5   6
ATOM      6  C9  <0> d           0.059  -4.191  -0.364  0.00  0.00    -0.013 A 
ATOM      7  C5  <0> d           0.041  -2.770   0.002  0.00  0.00     0.014 A 
ATOM      8  C4  <0> d           0.025  -2.068  -1.215  0.00  0.00     0.086 A 
ATOM      9  C6  <0> d           0.037  -2.076   1.211  0.00  0.00    -0.026 A 
ATOM     10  C3  <0> d           0.006  -0.680  -1.200  0.00  0.00     0.046 A 
ATOM     11  O1  <0> d           0.033  -2.984  -2.205  0.00  0.00    -0.321 OA
ATOM     12  C2  <0> d           0.002  -0.004   0.002  0.00  0.00    -0.037 A 
ATOM     13  C1  <0> d          -0.018   1.503   0.010  0.00  0.00     0.050 C 
ATOM     14  C7  <0> d           0.023  -0.697   1.204  0.00  0.00     0.046 A 
ATOM     15 Cl1  <0> d           0.025   0.175   2.706  0.00  0.00    -0.083 Cl
ATOM     16  C10 <0> d           0.053  -4.231  -1.704  0.00  0.00     0.151 A 
ATOM     17  C8  <0> d           0.053  -2.828   2.517  0.00  0.00     0.051 C 
ENDBRANCH   5   6
ENDBRANCH   1   5
BRANCH   3  18
ATOM     18  N2  <0> d          -2.866  -7.040   2.226  0.00  0.00    -0.263 N 
ATOM     19  C13 <0> d          -3.093  -8.065   3.071  0.00  0.00     0.270 C 
ATOM     20  O3  <0> d          -2.161  -8.719   3.497  0.00  0.00    -0.266 OA
ATOM     21  H12 <0> d          -3.610  -6.517   1.887  0.00  0.00     0.190 HD
BRANCH  19  22
ATOM     22  C14 <0> d          -4.475  -8.393   3.481  0.00  0.00     0.033 A 
ATOM     23  C19 <0> d          -4.713  -9.454   4.356  0.00  0.00     0.018 A 
ATOM     24  C18 <0> d          -6.004  -9.752   4.738  0.00  0.00     0.020 A 
ATOM     25  C17 <0> d          -7.064  -9.008   4.247  0.00  0.00     0.011 A 
ATOM     26  C16 <0> d          -6.835  -7.958   3.374  0.00  0.00     0.020 A 
ATOM     27 Br1  <0> d          -8.832  -9.429   4.770  0.00  0.00    -0.051 Br
ATOM     28  C15 <0> d          -5.547  -7.647   2.989  0.00  0.00     0.018 A 
ENDBRANCH  19  22
ENDBRANCH   3  18
TORSDOF 4
