REMARK  8 active torsions:
REMARK  status: ('A' for Active; 'I' for Inactive)
REMARK    1  A    between atoms: C2_2  and  C3_3 
REMARK    2  A    between atoms: C3_3  and  O1_4 
REMARK    3  A    between atoms: O1_4  and  C4_5 
REMARK    4  A    between atoms: C9_10  and  O2_11 
REMARK    5  A    between atoms: O2_11  and  C10_12 
REMARK    6  A    between atoms: C10_12  and  C11_13 
REMARK    7  A    between atoms: C10_12  and  C12_15 
REMARK    8  A    between atoms: C11_13  and  N1_14 
ROOT
ATOM      1  C10 <0> d           0.838  -6.090  -1.604  0.00  0.00     0.194 C 
ENDROOT
BRANCH   1   2
ATOM      2  O2  <0> d           0.847  -4.675  -1.408  0.00  0.00    -0.336 OA
BRANCH   2   3
ATOM      3  C9  <0> d           1.516  -3.929  -2.328  0.00  0.00     0.103 A 
ATOM      4  C4  <0> d           1.496  -2.539  -2.246  0.00  0.00     0.102 A 
ATOM      5  C5  <0> d           2.183  -1.784  -3.182  0.00  0.00     0.039 A 
ATOM      6  C6  <0> d           2.882  -2.409  -4.198  0.00  0.00     0.003 A 
ATOM      7  C7  <0> d           2.897  -3.789  -4.282  0.00  0.00     0.003 A 
ATOM      8  C8  <0> d           2.213  -4.549  -3.352  0.00  0.00     0.040 A 
BRANCH   4   9
ATOM      9  O1  <0> d           0.809  -1.925  -1.246  0.00  0.00    -0.348 OA
BRANCH   9  10
ATOM     10  C3  <0> d           0.833  -0.497  -1.224  0.00  0.00     0.175 C 
BRANCH  10  11
ATOM     11  C2  <0> d           0.011   0.009  -0.037  0.00  0.00     0.022 C 
ATOM     12  C1  <0> d           0.036   1.539  -0.014  0.00  0.00     0.007 C 
ENDBRANCH  10  11
ENDBRANCH   9  10
ENDBRANCH   4   9
ENDBRANCH   2   3
ENDBRANCH   1   2
BRANCH   1  13
ATOM     13  C11 <0> d          -0.391  -6.484  -2.426  0.00  0.00     0.267 C 
BRANCH  13  14
ATOM     14  N1  <0> d          -0.286  -5.905  -3.772  0.00  0.00    -0.077 N 
ATOM     15  H15 <0> d          -0.235  -4.900  -3.703  0.00  0.00     0.274 HD
ATOM     16  H16 <0> d           0.546  -6.254  -4.224  0.00  0.00     0.274 HD
ATOM     17  H19 <0> d          -1.097  -6.165  -4.314  0.00  0.00     0.274 HD
ENDBRANCH  13  14
ENDBRANCH   1  13
BRANCH   1  18
ATOM     18  C12 <0> d           0.791  -6.782  -0.267  0.00  0.00     0.015 A 
ATOM     19  S1  <0> d          -0.139  -6.345   1.193  0.00  0.00    -0.102 SA
ATOM     20  C15 <0> d           0.403  -7.681   2.247  0.00  0.00     0.069 A 
ATOM     21  C14 <0> d           1.250  -8.356   1.431  0.00  0.00     0.018 A 
ATOM     22  C13 <0> d           1.449  -7.895   0.143  0.00  0.00     0.037 A 
ATOM     23 Br1  <0> d           2.145  -9.904   2.046  0.00  0.00    -0.051 Br
ENDBRANCH   1  18
TORSDOF 8
