REMARK  4 active torsions:
REMARK  status: ('A' for Active; 'I' for Inactive)
REMARK    1  A    between atoms: C4_4  and  C7_8 
REMARK       I    between atoms: C7_8  and  N1_10 
REMARK    2  A    between atoms: N1_10  and  N2_11 
REMARK       I    between atoms: N2_11  and  C8_12 
REMARK    3  A    between atoms: C8_12  and  C9_14 
REMARK    4  A    between atoms: C9_14  and  N3_15 
ROOT
ATOM      1  N2  <0> d          -4.165   0.653   1.689  0.00  0.00    -0.266 N 
ATOM      2  C8  <0> d          -2.944   1.168   1.441  0.00  0.00     0.254 C 
ATOM      3  O3  <0> d          -2.214   1.469   2.362  0.00  0.00    -0.270 OA
ATOM      4  H9  <0> d          -4.748   0.412   0.953  0.00  0.00     0.190 HD
ENDROOT
BRANCH   1   5
ATOM      5  N1  <0> d          -4.590   0.464   3.011  0.00  0.00    -0.263 N 
ATOM      6  C7  <0> d          -5.810  -0.051   3.259  0.00  0.00     0.272 C 
ATOM      7  O2  <0> d          -6.542  -0.353   2.335  0.00  0.00    -0.266 OA
ATOM      8  H8  <0> d          -4.006   0.705   3.747  0.00  0.00     0.190 HD
BRANCH   6   9
ATOM      9  C4  <0> d          -6.258  -0.250   4.649  0.00  0.00     0.065 A 
ATOM     10  C3  <0> d          -5.506   0.051   5.876  0.00  0.00     0.052 A 
ATOM     11  C2  <0> d          -6.311  -0.289   6.894  0.00  0.00     0.050 A 
ATOM     12  C1  <0> d          -5.972  -0.158   8.357  0.00  0.00     0.076 C 
ATOM     13  O1  <0> d          -7.463  -0.770   6.402  0.00  0.00    -0.319 OA
ATOM     14  C5  <0> d          -7.454  -0.756   5.066  0.00  0.00     0.065 A 
ATOM     15  C6  <0> d          -8.575  -1.220   4.171  0.00  0.00     0.077 C 
ENDBRANCH   6   9
ENDBRANCH   1   5
BRANCH   2  16
ATOM     16  C9  <0> d          -2.487   1.371   0.020  0.00  0.00     0.241 C 
BRANCH  16  17
ATOM     17  N3  <0> d          -1.137   1.940   0.018  0.00  0.00    -0.259 N 
ATOM     18  C12 <0> d          -0.014   1.211   0.009  0.00  0.00     0.326 A 
ATOM     19  N4  <0> d           1.094   1.974   0.002  0.00  0.00    -0.325 N 
ATOM     20  O5  <0> d           0.002  -0.004   0.002  0.00  0.00    -0.247 OA
ATOM     21  C11 <0> d           0.640   3.376   0.014  0.00  0.00     0.108 A 
ATOM     22  H12 <0> d           2.012   1.662  -0.009  0.00  0.00     0.165 HD
ATOM     23  C10 <0> d          -0.871   3.261   0.028  0.00  0.00     0.256 A 
ATOM     24  C13 <0> d           1.137   4.092   1.272  0.00  0.00     0.049 C 
ATOM     25  C14 <0> d           1.113   4.105  -1.245  0.00  0.00     0.049 C 
ATOM     26  O4  <0> d          -1.675   4.169   0.040  0.00  0.00    -0.270 OA
ENDBRANCH  16  17
ENDBRANCH   2  16
TORSDOF 4
