REMARK  7 active torsions:
REMARK  status: ('A' for Active; 'I' for Inactive)
REMARK    1  A    between atoms: C2_2  and  C4_4 
REMARK    2  A    between atoms: C9_9  and  N1_10 
REMARK       I    between atoms: N1_10  and  C10_11 
REMARK    3  A    between atoms: C10_11  and  C11_13 
REMARK       I    between atoms: C11_13  and  N2_15 
REMARK    4  A    between atoms: N2_15  and  C12_16 
REMARK    5  A    between atoms: C12_16  and  C13_17 
REMARK    6  A    between atoms: C18_22  and  C19_23 
REMARK    7  A    between atoms: C19_23  and  N3_24 
ROOT
ATOM      1  C11 <0> d          -0.500  -2.377  -4.346  0.00  0.00     0.309 C 
ATOM      2  O2  <0> d           0.678  -2.105  -4.239  0.00  0.00    -0.262 OA
ATOM      3  N2  <0> d          -0.954  -2.980  -5.462  0.00  0.00    -0.349 N 
ATOM      4  H13 <0> d          -1.895  -3.197  -5.547  0.00  0.00     0.163 HD
ENDROOT
BRANCH   1   5
ATOM      5  C10 <0> d          -1.446  -2.043  -3.240  0.00  0.00     0.314 C 
ATOM      6  N1  <0> d          -0.992  -1.440  -2.123  0.00  0.00    -0.318 N 
ATOM      7  H12 <0> d          -0.062  -1.171  -2.061  0.00  0.00     0.169 HD
ATOM      8  O1  <0> d          -2.624  -2.315  -3.346  0.00  0.00    -0.262 OA
BRANCH   6   9
ATOM      9  C9  <0> d          -1.861  -1.202  -1.055  0.00  0.00     0.041 A 
ATOM     10  C4  <0> d          -1.363  -1.101   0.238  0.00  0.00    -0.028 A 
ATOM     11  C5  <0> d          -2.224  -0.860   1.291  0.00  0.00     0.010 A 
ATOM     12  C6  <0> d          -3.581  -0.725   1.060  0.00  0.00     0.001 A 
ATOM     13  C7  <0> d          -4.080  -0.830  -0.226  0.00  0.00     0.002 A 
ATOM     14  C8  <0> d          -3.225  -1.071  -1.283  0.00  0.00     0.030 A 
BRANCH  10  15
ATOM     15  C2  <0> d           0.115  -1.249   0.491  0.00  0.00     0.013 C 
ATOM     16  C1  <0> d           0.678   0.074   1.012  0.00  0.00     0.015 C 
ATOM     17  C3  <0> d           0.347  -2.347   1.531  0.00  0.00     0.015 C 
ENDBRANCH  10  15
ENDBRANCH   6   9
ENDBRANCH   1   5
BRANCH   3  18
ATOM     18  C12 <0> d          -0.025  -3.308  -6.547  0.00  0.00     0.162 C 
BRANCH  18  19
ATOM     19  C13 <0> d          -0.780  -3.971  -7.671  0.00  0.00    -0.033 A 
ATOM     20  C18 <0> d          -1.501  -3.204  -8.566  0.00  0.00    -0.025 A 
ATOM     21  C17 <0> d          -2.190  -3.812  -9.599  0.00  0.00     0.009 A 
ATOM     22  C16 <0> d          -2.164  -5.187  -9.732  0.00  0.00     0.001 A 
ATOM     23  C15 <0> d          -1.446  -5.955  -8.833  0.00  0.00     0.001 A 
ATOM     24  C14 <0> d          -0.755  -5.347  -7.803  0.00  0.00     0.009 A 
BRANCH  20  25
ATOM     25  C19 <0> d          -1.534  -1.704  -8.418  0.00  0.00     0.273 C 
BRANCH  25  26
ATOM     26  N3  <0> d          -0.302  -1.131  -8.976  0.00  0.00    -0.075 N 
ATOM     27  C20 <0> d          -0.258  -1.378 -10.424  0.00  0.00     0.269 C 
ATOM     28  C21 <0> d          -0.278   0.317  -8.726  0.00  0.00     0.269 C 
ATOM     29  H28 <0> d           0.498  -1.561  -8.537  0.00  0.00     0.279 HD
ENDBRANCH  25  26
ENDBRANCH  20  25
ENDBRANCH  18  19
ENDBRANCH   3  18
TORSDOF 7
