REMARK  7 active torsions:
REMARK  status: ('A' for Active; 'I' for Inactive)
REMARK    1  A    between atoms: O1_2  and  C2_3 
REMARK    2  A    between atoms: C4_5  and  C10_13 
REMARK    3  A    between atoms: C5_6  and  O3_11 
REMARK    4  A    between atoms: C7_8  and  O2_9 
REMARK    5  A    between atoms: C10_13  and  C11_14 
REMARK    6  A    between atoms: C10_13  and  N1_16 
REMARK    7  A    between atoms: C11_14  and  O4_15 
ROOT
ATOM      1  C2  <0> d           0.607  -0.608  -1.057  0.00  0.00     0.102 A 
ATOM      2  C3  <0> d           1.173   0.160  -2.062  0.00  0.00     0.051 A 
ATOM      3  C4  <0> d           1.787  -0.453  -3.138  0.00  0.00     0.013 A 
ATOM      4  C5  <0> d           1.838  -1.837  -3.214  0.00  0.00     0.079 A 
ATOM      5  C6  <0> d           1.272  -2.609  -2.211  0.00  0.00     0.077 A 
ATOM      6  C7  <0> d           0.661  -1.996  -1.129  0.00  0.00     0.104 A 
ENDROOT
BRANCH   3   7
ATOM      7  C10 <0> d           2.401   0.384  -4.230  0.00  0.00     0.282 C 
BRANCH   7   8
ATOM      8  C11 <0> d           1.395   0.555  -5.369  0.00  0.00     0.204 C 
BRANCH   8   9
ATOM      9  O4  <0> d           0.178   1.098  -4.852  0.00  0.00    -0.398 OA
ATOM     10  H15 <0> d          -0.508   1.233  -5.521  0.00  0.00     0.209 HD
ENDBRANCH   8   9
ENDBRANCH   7   8
BRANCH   7  11
ATOM     11  N1  <0> d           2.762   1.703  -3.693  0.00  0.00     0.102 N 
ATOM     12  C15 <0> d           3.365   2.548  -4.732  0.00  0.00     0.300 C 
ATOM     13  C14 <0> d           3.671   3.929  -4.148  0.00  0.00     0.262 C 
ATOM     14  N2  <0> d           4.591   3.789  -3.012  0.00  0.00    -0.072 N 
ATOM     15  C13 <0> d           3.964   2.962  -1.972  0.00  0.00     0.262 C 
ATOM     16  H20 <0> d           4.801   4.700  -2.635  0.00  0.00     0.277 HD
ATOM     17  H25 <0> d           5.444   3.348  -3.323  0.00  0.00     0.277 HD
ATOM     18  C12 <0> d           3.661   1.573  -2.538  0.00  0.00     0.300 C 
ENDBRANCH   7  11
ENDBRANCH   3   7
BRANCH   4  19
ATOM     19  O3  <0> d           2.442  -2.437  -4.274  0.00  0.00    -0.355 OA
ATOM     20  C9  <0> d           2.458  -3.866  -4.288  0.00  0.00     0.210 C 
ENDBRANCH   4  19
BRANCH   1  21
ATOM     21  O1  <0> d           0.002  -0.004   0.002  0.00  0.00    -0.353 OA
ATOM     22  C1  <0> d          -0.017   1.425   0.010  0.00  0.00     0.210 C 
ENDBRANCH   1  21
BRANCH   6  23
ATOM     23  O2  <0> d           0.112  -2.751  -0.140  0.00  0.00    -0.353 OA
ATOM     24  C8  <0> d           0.205  -4.170  -0.279  0.00  0.00     0.210 C 
ENDBRANCH   6  23
TORSDOF 7
