REMARK  6 active torsions:
REMARK  status: ('A' for Active; 'I' for Inactive)
REMARK    1  A    between atoms: C9_11  and  O3_13 
REMARK    2  A    between atoms: O3_13  and  C11_14 
REMARK    3  A    between atoms: C11_14  and  C12_15 
REMARK    4  A    between atoms: C12_15  and  C13_16 
REMARK    5  A    between atoms: C12_15  and  O4_23 
REMARK    6  A    between atoms: C13_16  and  N1_25 
ROOT
ATOM      1  O3  <0> d           4.076   6.046   0.440  0.00  0.00    -0.348 OA
ENDROOT
BRANCH   1   2
ATOM      2  C9  <0> d           4.239   7.394   0.456  0.00  0.00     0.071 A 
ATOM      3  C8  <0> d           3.140   8.225   0.252  0.00  0.00     0.038 A 
ATOM      4  C7  <0> d           3.286   9.582   0.270  0.00  0.00     0.017 A 
ATOM      5  C6  <0> d           4.551  10.142   0.484  0.00  0.00     0.004 A 
ATOM      6  C2  <0> d           4.739  11.594   0.503  0.00  0.00    -0.043 A 
ATOM      7  C5  <0> d           5.666   9.307   0.685  0.00  0.00     0.092 A 
ATOM      8  C1  <0> d           3.575  12.528   0.292  0.00  0.00     0.049 C 
ATOM      9  C3  <0> d           5.990  12.076   0.716  0.00  0.00     0.090 A 
ATOM     10  C4  <0> d           7.063  11.182   0.910  0.00  0.00     0.288 A 
ATOM     11  O1  <0> d           8.180  11.628   1.100  0.00  0.00    -0.260 OA
ATOM     12  O2  <0> d           6.884   9.852   0.891  0.00  0.00    -0.275 OA
ATOM     13  C10 <0> d           5.498   7.931   0.669  0.00  0.00     0.075 A 
ENDBRANCH   1   2
BRANCH   1  14
ATOM     14  C11 <0> d           2.753   5.555   0.215  0.00  0.00     0.209 C 
BRANCH  14  15
ATOM     15  C12 <0> d           2.767   4.025   0.232  0.00  0.00     0.168 C 
BRANCH  15  16
ATOM     16  C13 <0> d           1.378   3.499  -0.132  0.00  0.00     0.268 C 
BRANCH  16  17
ATOM     17  N1  <0> d           1.404   2.022  -0.096  0.00  0.00    -0.069 N 
ATOM     18  C14 <0> d           2.256   1.505  -1.188  0.00  0.00     0.235 C 
ATOM     19  C15 <0> d           2.364  -0.016  -1.057  0.00  0.00     0.032 C 
ATOM     20  C16 <0> d           0.965  -0.631  -1.159  0.00  0.00    -0.015 C 
ATOM     21  C17 <0> d           0.072  -0.033  -0.068  0.00  0.00     0.032 C 
ATOM     22  C19 <0> d           1.059  -2.147  -0.968  0.00  0.00     0.010 C 
ATOM     23  C18 <0> d           0.032   1.489  -0.228  0.00  0.00     0.235 C 
ATOM     24  H26 <0> d           1.795   1.717   0.804  0.00  0.00     0.280 HD
ENDBRANCH  16  17
ENDBRANCH  15  16
BRANCH  15  25
ATOM     25  O4  <0> d           3.124   3.566   1.537  0.00  0.00    -0.392 OA
ATOM     26  H25 <0> d           2.519   3.853   2.234  0.00  0.00     0.210 HD
ENDBRANCH  15  25
ENDBRANCH  14  15
ENDBRANCH   1  14
TORSDOF 6
