REMARK  4 active torsions:
REMARK  status: ('A' for Active; 'I' for Inactive)
REMARK    1  A    between atoms: C2_2  and  C5_5 
REMARK    2  A    between atoms: C5_5  and  C6_6 
REMARK    3  A    between atoms: C8_8  and  N3_18 
REMARK    4  A    between atoms: N1_9  and  C9_11 
ROOT
ATOM      1  C6  <0> d           2.132   0.024  -1.268  0.00  0.00     0.030 A 
ATOM      2  C7  <0> d           2.539   1.276  -1.738  0.00  0.00     0.076 A 
ATOM      3  C8  <0> d           3.888   1.364  -1.574  0.00  0.00     0.117 A 
ATOM      4  N1  <0> d           4.308   0.204  -1.020  0.00  0.00    -0.271 N 
ATOM      5  N2  <0> d           3.188  -0.615  -0.833  0.00  0.00    -0.301 N 
ATOM      6  H22 <0> d           3.193  -1.506  -0.448  0.00  0.00     0.187 HD
ENDROOT
BRANCH   4   7
ATOM      7  C9  <0> d           5.691  -0.133  -0.671  0.00  0.00     0.124 C 
ATOM      8  C12 <0> d           6.134  -1.379  -1.476  0.00  0.00     0.167 C 
ATOM      9  S1  <0> d           7.310  -2.204  -0.329  0.00  0.00     0.146 S 
ATOM     10  C11 <0> d           7.163  -1.077   1.121  0.00  0.00     0.142 C 
ATOM     11  O1  <0> d           6.794  -3.480   0.023  0.00  0.00    -0.228 OA
ATOM     12  O2  <0> d           8.624  -2.104  -0.861  0.00  0.00    -0.228 OA
ATOM     13  C10 <0> d           5.781  -0.425   0.836  0.00  0.00     0.043 C 
ENDBRANCH   4   7
BRANCH   3  14
ATOM     14  N3  <0> d           4.689   2.450  -1.917  0.00  0.00    -0.384 N 
ATOM     15  H20 <0> d           4.290   3.241  -2.312  0.00  0.00     0.157 HD
ATOM     16  H21 <0> d           5.646   2.415  -1.760  0.00  0.00     0.157 HD
ENDBRANCH   3  14
BRANCH   1  17
ATOM     17  C5  <0> d           0.718  -0.497  -1.257  0.00  0.00     0.067 C 
BRANCH  17  18
ATOM     18  C2  <0> d           0.002  -0.004   0.002  0.00  0.00    -0.046 C 
ATOM     19  C1  <0> d          -0.019   1.526   0.010  0.00  0.00     0.015 C 
ATOM     20  C3  <0> d           0.742  -0.511   1.242  0.00  0.00     0.015 C 
ATOM     21  C4  <0> d          -1.433  -0.534   0.013  0.00  0.00     0.015 C 
ENDBRANCH  17  18
ENDBRANCH   1  17
TORSDOF 4
