REMARK  8 active torsions:
REMARK  status: ('A' for Active; 'I' for Inactive)
REMARK    1  A    between atoms: C2_2  and  N1_3 
REMARK    2  A    between atoms: N1_3  and  C3_4 
REMARK    3  A    between atoms: N1_3  and  C5_6 
REMARK    4  A    between atoms: C5_6  and  C6_7 
REMARK    5  A    between atoms: C6_7  and  C7_8 
REMARK    6  A    between atoms: C7_8  and  N2_9 
REMARK    7  A    between atoms: C11_14  and  N4_15 
REMARK    8  A    between atoms: C12_16  and  C23_28 
ROOT
ATOM      1  N2  <0> d           1.843  -2.673  -3.652  0.00  0.00    -0.327 N 
ATOM      2  C8  <0> d           1.168  -2.674  -4.784  0.00  0.00     0.214 A 
ATOM      3  N3  <0> d           1.657  -3.202  -5.887  0.00  0.00    -0.219 NA
ATOM      4  C9  <0> d           2.866  -3.761  -5.899  0.00  0.00     0.182 A 
ATOM      5  C10 <0> d           3.607  -3.781  -4.729  0.00  0.00     0.054 A 
ATOM      6  C11 <0> d           3.061  -3.208  -3.584  0.00  0.00     0.113 A 
ATOM      7  C12 <0> d           4.972  -4.402  -4.693  0.00  0.00     0.120 C 
ATOM      8  C13 <0> d           5.516  -4.566  -6.089  0.00  0.00    -0.008 A 
ATOM      9  C14 <0> d           6.885  -4.784  -6.254  0.00  0.00     0.012 A 
ATOM     10  C15 <0> d           7.435  -4.940  -7.488  0.00  0.00     0.013 A 
ATOM     11  C16 <0> d           6.614  -4.882  -8.627  0.00  0.00    -0.023 A 
ATOM     12  C17 <0> d           7.145  -5.041  -9.919  0.00  0.00     0.012 A 
ATOM     13  C18 <0> d           6.319  -4.975 -10.998  0.00  0.00     0.001 A 
ATOM     14  C19 <0> d           4.952  -4.752 -10.842  0.00  0.00     0.001 A 
ATOM     15  C20 <0> d           4.404  -4.596  -9.606  0.00  0.00     0.015 A 
ATOM     16  C21 <0> d           5.226  -4.659  -8.469  0.00  0.00     0.009 A 
ATOM     17  C22 <0> d           4.688  -4.504  -7.172  0.00  0.00     0.096 A 
ATOM     18  O1  <0> d           3.356  -4.298  -7.035  0.00  0.00    -0.290 OA
ENDROOT
BRANCH   1  19
ATOM     19  C7  <0> d           1.249  -2.070  -2.456  0.00  0.00     0.133 C 
BRANCH  19  20
ATOM     20  C6  <0> d           1.723  -0.621  -2.326  0.00  0.00     0.048 C 
BRANCH  20  21
ATOM     21  C5  <0> d           1.103   0.009  -1.077  0.00  0.00     0.236 C 
BRANCH  21  22
ATOM     22  N1  <0> d           1.633   1.367  -0.899  0.00  0.00    -0.072 N 
ATOM     23  H30 <0> d           2.641   1.335  -0.878  0.00  0.00     0.279 HD
BRANCH  22  24
ATOM     24  C2  <0> d           1.193   2.215  -2.016  0.00  0.00     0.230 C 
ATOM     25  C1  <0> d           1.846   3.594  -1.897  0.00  0.00     0.034 C 
ENDBRANCH  22  24
BRANCH  22  26
ATOM     26  C3  <0> d           1.134   1.925   0.365  0.00  0.00     0.230 C 
ATOM     27  C4  <0> d           1.721   1.137   1.537  0.00  0.00     0.034 C 
ENDBRANCH  22  26
ENDBRANCH  21  22
ENDBRANCH  20  21
ENDBRANCH  19  20
ENDBRANCH   1  19
BRANCH   6  28
ATOM     28  N4  <0> d           3.770  -3.199  -2.393  0.00  0.00    -0.385 N 
ATOM     29  H19 <0> d           4.484  -3.839  -2.249  0.00  0.00     0.157 HD
ATOM     30  H29 <0> d           3.552  -2.552  -1.703  0.00  0.00     0.157 HD
ENDBRANCH   6  28
BRANCH   7  31
ATOM     31  C23 <0> d           5.900  -3.518  -3.899  0.00  0.00     0.066 A 
ATOM     32  O2  <0> d           6.091  -2.204  -4.095  0.00  0.00    -0.326 OA
ATOM     33  C26 <0> d           6.983  -1.743  -3.203  0.00  0.00     0.142 A 
ATOM     34  C25 <0> d           7.380  -2.769  -2.430  0.00  0.00     0.027 A 
ATOM     35  C24 <0> d           6.681  -3.914  -2.879  0.00  0.00     0.035 A 
ENDBRANCH   7  31
TORSDOF 8
