REMARK  6 active torsions:
REMARK  status: ('A' for Active; 'I' for Inactive)
REMARK    1  A    between atoms: C4_4  and  S1_17 
REMARK    2  A    between atoms: C5_5  and  N1_7 
REMARK    3  A    between atoms: N1_7  and  C7_8 
REMARK    4  A    between atoms: C7_8  and  C8_9 
REMARK       I    between atoms: C8_9  and  N2_11 
REMARK    5  A    between atoms: S1_17  and  C12_18 
REMARK    6  A    between atoms: C12_18  and  C13_19 
ROOT
ATOM      1  C1  <0> d          -5.762   4.630   1.331  0.00  0.00     0.002 A 
ATOM      2  C2  <0> d          -5.069   4.237   0.201  0.00  0.00     0.002 A 
ATOM      3  C3  <0> d          -3.871   3.558   0.321  0.00  0.00     0.021 A 
ATOM      4  C4  <0> d          -3.366   3.260   1.578  0.00  0.00     0.027 A 
ATOM      5  C5  <0> d          -4.065   3.656   2.719  0.00  0.00     0.045 A 
ATOM      6  C6  <0> d          -5.263   4.341   2.589  0.00  0.00     0.030 A 
ENDROOT
BRANCH   5   7
ATOM      7  N1  <0> d          -3.558   3.363   3.990  0.00  0.00    -0.380 N 
ATOM      8  H5  <0> d          -2.720   2.884   4.080  0.00  0.00     0.160 HD
BRANCH   7   9
ATOM      9  C7  <0> d          -4.294   3.780   5.186  0.00  0.00     0.223 C 
BRANCH   9  10
ATOM     10  C8  <0> d          -3.541   3.346   6.417  0.00  0.00     0.245 C 
ATOM     11  O1  <0> d          -2.492   2.747   6.306  0.00  0.00    -0.271 OA
ATOM     12  N2  <0> d          -4.032   3.624   7.641  0.00  0.00    -0.267 N 
ATOM     13  C11 <0> d          -5.172   4.282   7.889  0.00  0.00     0.325 A 
ATOM     14  C9  <0> d          -3.398   3.258   8.916  0.00  0.00     0.156 A 
ATOM     15  N3  <0> d          -5.443   4.426   9.192  0.00  0.00    -0.341 N 
ATOM     16  O2  <0> d          -5.897   4.705   7.010  0.00  0.00    -0.247 OA
ATOM     17  C10 <0> d          -4.367   3.809   9.981  0.00  0.00     0.145 A 
ATOM     18  H12 <0> d          -6.224   4.871   9.558  0.00  0.00     0.164 HD
ENDBRANCH   9  10
ENDBRANCH   7   9
ENDBRANCH   5   7
BRANCH   4  19
ATOM     19  S1  <0> d          -1.842   2.389   1.734  0.00  0.00    -0.123 SA
BRANCH  19  20
ATOM     20  C12 <0> d          -1.325   2.098   0.020  0.00  0.00     0.118 C 
BRANCH  20  21
ATOM     21  C13 <0> d          -0.016   1.351   0.009  0.00  0.00    -0.042 A 
ATOM     22  C16 <0> d           0.002  -0.004   0.002  0.00  0.00     0.057 A 
ATOM     23  S2  <0> d           1.754  -0.349  -0.017  0.00  0.00    -0.113 SA
ATOM     24  C15 <0> d           2.343   1.336  -0.013  0.00  0.00     0.050 A 
ATOM     25  C14 <0> d           1.183   2.038   0.002  0.00  0.00     0.015 A 
ENDBRANCH  20  21
ENDBRANCH  19  20
ENDBRANCH   4  19
TORSDOF 6
