REMARK  4 active torsions:
REMARK  status: ('A' for Active; 'I' for Inactive)
REMARK    1  A    between atoms: C6_8  and  O2_9 
REMARK    2  A    between atoms: O2_9  and  C7_10 
REMARK    3  A    between atoms: C7_10  and  C8_11 
REMARK       I    between atoms: C8_11  and  N2_13 
REMARK    4  A    between atoms: N2_13  and  C9_14 
ROOT
ATOM      1  C8  <0> d           2.282   0.034   4.133  0.00  0.00     0.245 C 
ATOM      2  O3  <0> d           3.217   0.429   3.470  0.00  0.00    -0.271 OA
ATOM      3  N2  <0> d           2.379  -0.010   5.476  0.00  0.00    -0.326 N 
ATOM      4  H10 <0> d           1.609  -0.257   6.011  0.00  0.00     0.169 HD
ENDROOT
BRANCH   1   5
ATOM      5  C7  <0> d           1.011  -0.408   3.455  0.00  0.00     0.272 C 
BRANCH   5   6
ATOM      6  O2  <0> d           1.153  -0.269   2.039  0.00  0.00    -0.363 OA
BRANCH   6   7
ATOM      7  C6  <0> d          -0.004  -0.663   1.298  0.00  0.00     0.242 A 
ATOM      8  C2  <0> d          -0.055   0.165   0.030  0.00  0.00     0.044 A 
ATOM      9  C1  <0> d          -0.105   1.670   0.098  0.00  0.00     0.069 C 
ATOM     10  N1  <0> d          -0.051  -0.443  -1.113  0.00  0.00    -0.267 NA
ATOM     11  C3  <0> d          -0.008  -1.772  -1.248  0.00  0.00     0.120 A 
ATOM     12  C4  <0> d           0.035  -2.644  -0.217  0.00  0.00     0.072 A 
ATOM     13  C5  <0> d           0.038  -2.170   1.115  0.00  0.00     0.185 A 
ATOM     14  O1  <0> d           0.076  -2.929   2.063  0.00  0.00    -0.290 OA
ENDBRANCH   6   7
ENDBRANCH   5   6
ENDBRANCH   1   5
BRANCH   3  15
ATOM     15  C9  <0> d           3.593   0.301   6.101  0.00  0.00     0.033 C 
ATOM     16  C16 <0> d           4.197   1.610   5.844  0.00  0.00     0.030 C 
ATOM     17  C15 <0> d           5.503   1.838   6.167  0.00  0.00     0.012 C 
ATOM     18  C12 <0> d           6.164   0.757   6.786  0.00  0.00    -0.028 C 
ATOM     19  C11 <0> d           5.429  -0.274   7.621  0.00  0.00     0.165 C 
ATOM     20  C13 <0> d           7.426   0.307   6.687  0.00  0.00     0.028 C 
ATOM     21  C10 <0> d           4.156  -0.617   6.905  0.00  0.00     0.034 C 
ATOM     22  N3  <0> d           6.372  -1.375   7.760  0.00  0.00    -0.288 NA
ATOM     23  C14 <0> d           7.506  -0.990   7.245  0.00  0.00     0.112 C 
ENDBRANCH   3  15
TORSDOF 4
