REMARK  7 active torsions:
REMARK  status: ('A' for Active; 'I' for Inactive)
REMARK    1  A    between atoms: O1_2  and  C2_3 
REMARK    2  A    between atoms: C8_9  and  C10_13 
REMARK    3  A    between atoms: C10_13  and  C11_14 
REMARK    4  A    between atoms: C11_14  and  N2_15 
REMARK    5  A    between atoms: C13_18  and  C15_22 
REMARK    6  A    between atoms: C15_22  and  C16_23 
REMARK    7  A    between atoms: C16_23  and  C17_24 
ROOT
ATOM      1  C11 <0> d           2.286   5.327   1.527  0.00  0.00     0.141 C 
ENDROOT
BRANCH   1   2
ATOM      2  C10 <0> d           3.630   5.801   0.971  0.00  0.00     0.061 C 
BRANCH   2   3
ATOM      3  C8  <0> d           3.869   7.231   1.383  0.00  0.00    -0.029 A 
ATOM      4  C6  <0> d           4.452   7.687   2.647  0.00  0.00     0.001 A 
ATOM      5  C5  <0> d           4.476   9.092   2.579  0.00  0.00     0.043 A 
ATOM      6  C7  <0> d           4.935   7.035   3.783  0.00  0.00     0.051 A 
ATOM      7  C4  <0> d           4.982   9.821   3.650  0.00  0.00     0.033 A 
ATOM      8  N1  <0> d           3.943   9.449   1.358  0.00  0.00    -0.365 N 
ATOM      9  C3  <0> d           5.456   9.167   4.766  0.00  0.00     0.039 A 
ATOM     10  C2  <0> d           5.433   7.776   4.835  0.00  0.00     0.069 A 
ATOM     11  C9  <0> d           3.593   8.327   0.658  0.00  0.00     0.096 A 
ATOM     12  H1  <0> d           3.837  10.359   1.042  0.00  0.00     0.165 HD
BRANCH  10  13
ATOM     13  O1  <0> d           5.904   7.146   5.944  0.00  0.00    -0.356 OA
ATOM     14  C1  <0> d           6.406   7.973   6.997  0.00  0.00     0.210 C 
ENDBRANCH  10  13
ENDBRANCH   2   3
ENDBRANCH   1   2
BRANCH   1  15
ATOM     15  N2  <0> d           2.054   3.937   1.127  0.00  0.00    -0.268 N 
ATOM     16  C14 <0> d           2.439   2.875   1.843  0.00  0.00     0.325 A 
ATOM     17  N3  <0> d           2.106   1.711   1.255  0.00  0.00    -0.329 N 
ATOM     18  O3  <0> d           3.025   2.952   2.905  0.00  0.00    -0.247 OA
ATOM     19  C13 <0> d           1.417   2.055  -0.000  0.00  0.00     0.179 A 
ATOM     20  H14 <0> d           2.284   0.820   1.593  0.00  0.00     0.165 HD
ATOM     21  C12 <0> d           1.426   3.571  -0.008  0.00  0.00     0.250 A 
ATOM     22  O2  <0> d           0.965   4.302  -0.858  0.00  0.00    -0.271 OA
BRANCH  19  23
ATOM     23  C15 <0> d          -0.019   1.526   0.010  0.00  0.00     0.045 C 
BRANCH  23  24
ATOM     24  C16 <0> d           0.002  -0.004   0.002  0.00  0.00     0.116 C 
BRANCH  24  25
ATOM     25  C17 <0> d          -1.412  -0.526   0.013  0.00  0.00     0.172 C 
ATOM     26  O4  <0> d          -2.341   0.247   0.026  0.00  0.00    -0.648 OA
ATOM     27  O5  <0> d          -1.639  -1.849   0.008  0.00  0.00    -0.648 OA
ENDBRANCH  24  25
ENDBRANCH  23  24
ENDBRANCH  19  23
ENDBRANCH   1  15
TORSDOF 7
