REMARK  5 active torsions:
REMARK  status: ('A' for Active; 'I' for Inactive)
REMARK    1  A    between atoms: O1_2  and  C2_3 
REMARK    2  A    between atoms: C2_3  and  C3_4 
REMARK    3  A    between atoms: C3_4  and  N1_5 
REMARK    4  A    between atoms: C8_13  and  N5_17 
REMARK    5  A    between atoms: N5_17  and  C10_18 
ROOT
ATOM      1  N1  <0> d          -0.999  -2.431  -0.953  0.00  0.00    -0.358 N 
ATOM      2  C4  <0> d          -2.006  -2.730  -0.059  0.00  0.00     0.200 C 
ATOM      3  N2  <0> d          -3.162  -2.874  -0.614  0.00  0.00    -0.269 NA
ATOM      4  C5  <0> d          -3.028  -2.685  -2.090  0.00  0.00     0.221 C 
ATOM      5  C6  <0> d          -1.521  -2.859  -2.244  0.00  0.00     0.213 C 
ATOM      6  C7  <0> d          -0.888  -2.386  -3.463  0.00  0.00     0.285 C 
ATOM      7  O2  <0> d          -0.018  -3.115  -3.901  0.00  0.00    -0.268 OA
ATOM      8  N3  <0> d          -1.101  -1.309  -4.164  0.00  0.00    -0.024 NA
ATOM      9  C8  <0> d          -2.039  -0.419  -4.017  0.00  0.00     0.732 C 
ATOM     10  N4  <0> d          -3.025  -0.411  -3.152  0.00  0.00    -0.037 NA
ATOM     11  C9  <0> d          -3.470  -1.275  -2.341  0.00  0.00     0.222 C 
ATOM     12  O3  <0> d          -4.478  -0.851  -1.561  0.00  0.00    -0.172 OA
ENDROOT
BRANCH   9  13
ATOM     13  N5  <0> d          -1.989   0.647  -4.874  0.00  0.00    -0.188 N 
ATOM     14  H11 <0> d          -1.335   0.663  -5.590  0.00  0.00     0.184 HD
BRANCH  13  15
ATOM     15  C10 <0> d          -2.881   1.712  -4.718  0.00  0.00     0.049 A 
ATOM     16  C15 <0> d          -3.381   2.371  -5.834  0.00  0.00     0.032 A 
ATOM     17  C14 <0> d          -4.266   3.420  -5.676  0.00  0.00     0.026 A 
ATOM     18  C13 <0> d          -4.646   3.821  -4.408  0.00  0.00     0.034 A 
ATOM     19  C12 <0> d          -4.146   3.170  -3.294  0.00  0.00     0.026 A 
ATOM     20 Cl1  <0> d          -5.754   5.144  -4.213  0.00  0.00    -0.084 Cl
ATOM     21  C11 <0> d          -3.265   2.117  -3.446  0.00  0.00     0.032 A 
ENDBRANCH  13  15
ENDBRANCH   9  13
BRANCH   1  22
ATOM     22  C3  <0> d           0.300  -1.816  -0.669  0.00  0.00     0.151 C 
BRANCH  22  23
ATOM     23  C2  <0> d           0.177  -0.295  -0.771  0.00  0.00     0.186 C 
BRANCH  23  24
ATOM     24  O1  <0> d          -0.699   0.182   0.253  0.00  0.00    -0.394 OA
ATOM     25  C1  <0> d          -0.884   1.599   0.246  0.00  0.00     0.201 C 
ENDBRANCH  23  24
ENDBRANCH  22  23
ENDBRANCH   1  22
TORSDOF 5
