REMARK  6 active torsions:
REMARK  status: ('A' for Active; 'I' for Inactive)
REMARK    1  A    between atoms: O1_2  and  C2_3 
REMARK    2  A    between atoms: C8_9  and  C11_13 
REMARK    3  A    between atoms: C11_13  and  C12_14 
REMARK    4  A    between atoms: C11_13  and  O3_24 
REMARK    5  A    between atoms: C18_20  and  C19_21 
REMARK    6  A    between atoms: C18_20  and  O2_23 
ROOT
ATOM      1  C11 <0> d           1.904   5.069  -0.276  0.00  0.00     0.183 C 
ENDROOT
BRANCH   1   2
ATOM      2  C8  <0> d           3.314   5.596  -0.339  0.00  0.00    -0.014 A 
ATOM      3  C6  <0> d           4.409   4.773  -0.013  0.00  0.00     0.004 A 
ATOM      4  C5  <0> d           5.718   5.311  -0.086  0.00  0.00     0.067 A 
ATOM      5  C7  <0> d           4.227   3.438   0.381  0.00  0.00     0.051 A 
ATOM      6  C4  <0> d           6.815   4.492   0.238  0.00  0.00     0.035 A 
ATOM      7  N1  <0> d           5.895   6.582  -0.460  0.00  0.00    -0.260 NA
ATOM      8  C3  <0> d           6.607   3.200   0.610  0.00  0.00     0.039 A 
ATOM      9  C2  <0> d           5.315   2.672   0.689  0.00  0.00     0.069 A 
ATOM     10  C10 <0> d           4.878   7.351  -0.764  0.00  0.00     0.118 A 
ATOM     11  C9  <0> d           3.566   6.885  -0.714  0.00  0.00     0.030 A 
BRANCH   9  12
ATOM     12  O1  <0> d           5.140   1.379   1.070  0.00  0.00    -0.356 OA
ATOM     13  C1  <0> d           6.316   0.629   1.379  0.00  0.00     0.210 C 
ENDBRANCH   9  12
ENDBRANCH   1   2
BRANCH   1  14
ATOM     14  C12 <0> d           1.393   5.149   1.165  0.00  0.00     0.222 C 
ATOM     15  C13 <0> d           1.175   6.615   1.549  0.00  0.00     0.044 C 
ATOM     16  C14 <0> d          -0.301   6.816   1.917  0.00  0.00     0.029 C 
ATOM     17  C18 <0> d          -1.163   6.427   0.709  0.00  0.00     0.102 C 
ATOM     18  C15 <0> d          -0.645   5.882   3.084  0.00  0.00     0.036 C 
ATOM     19  C17 <0> d          -0.880   4.966   0.349  0.00  0.00     0.277 C 
ATOM     20  N2  <0> d           0.126   4.393   1.268  0.00  0.00    -0.061 N 
ATOM     21  C16 <0> d          -0.377   4.436   2.657  0.00  0.00     0.236 C 
ATOM     22  H25 <0> d           0.299   3.416   1.006  0.00  0.00     0.280 HD
BRANCH  17  23
ATOM     23  C19 <0> d          -0.820   7.312  -0.462  0.00  0.00     0.002 C 
ATOM     24  C20 <0> d          -1.774   7.820  -1.201  0.00  0.00     0.010 C 
ENDBRANCH  17  23
BRANCH  17  25
ATOM     25  O2  <0> d          -2.545   6.580   1.039  0.00  0.00    -0.384 OA
ATOM     26  H23 <0> d          -3.149   6.351   0.319  0.00  0.00     0.211 HD
ENDBRANCH  17  25
ENDBRANCH   1  14
BRANCH   1  27
ATOM     27  O3  <0> d           1.063   5.855  -1.123  0.00  0.00    -0.389 OA
ATOM     28  H24 <0> d           1.345   6.776  -1.211  0.00  0.00     0.210 HD
ENDBRANCH   1  27
TORSDOF 6
