REMARK  4 active torsions:
REMARK  status: ('A' for Active; 'I' for Inactive)
REMARK    1  A    between atoms: C6_6  and  C11_16 
REMARK    2  A    between atoms: N2_8  and  C7_9 
REMARK       I    between atoms: C11_16  and  N3_18 
REMARK    3  A    between atoms: N3_18  and  C12_19 
REMARK    4  A    between atoms: C12_19  and  C13_20 
ROOT
ATOM      1  C1  <0> d          -2.769  -0.406   4.178  0.00  0.00     0.005 C 
ATOM      2  C2  <0> d          -1.523  -1.152   3.693  0.00  0.00     0.006 C 
ATOM      3  C3  <0> d          -1.208  -0.744   2.248  0.00  0.00     0.059 C 
ATOM      4  C4  <0> d          -1.205   0.761   2.171  0.00  0.00     0.040 A 
ATOM      5  C5  <0> d          -1.751   1.568   3.115  0.00  0.00     0.002 A 
ATOM      6  C6  <0> d          -1.535   2.883   2.671  0.00  0.00     0.152 A 
ATOM      7  N1  <0> d          -0.887   2.793   1.522  0.00  0.00    -0.166 NA
ATOM      8  N2  <0> d          -0.695   1.556   1.216  0.00  0.00    -0.267 N 
ATOM      9  C17 <0> d          -2.438   1.081   4.361  0.00  0.00     0.043 C 
ENDROOT
BRANCH   6  10
ATOM     10  C11 <0> d          -1.946   4.125   3.357  0.00  0.00     0.272 C 
ATOM     11  O3  <0> d          -2.536   4.066   4.418  0.00  0.00    -0.266 OA
ATOM     12  N3  <0> d          -1.667   5.323   2.807  0.00  0.00    -0.353 N 
ATOM     13  H15 <0> d          -1.197   5.370   1.960  0.00  0.00     0.162 HD
BRANCH  12  14
ATOM     14  C12 <0> d          -2.075   6.554   3.487  0.00  0.00     0.155 C 
BRANCH  14  15
ATOM     15  C13 <0> d          -1.641   7.764   2.657  0.00  0.00     0.139 C 
ATOM     16  O4  <0> d          -2.420   7.847   1.444  0.00  0.00    -0.384 OA
ATOM     17  C16 <0> d          -2.301   9.219   1.008  0.00  0.00     0.168 C 
ATOM     18  C15 <0> d          -2.393  10.054   2.304  0.00  0.00     0.029 C 
ATOM     19  C14 <0> d          -1.949   9.075   3.414  0.00  0.00     0.035 C 
ENDBRANCH  14  15
ENDBRANCH  12  14
ENDBRANCH   6  10
BRANCH   8  20
ATOM     20  C7  <0> d          -0.013   1.086   0.008  0.00  0.00     0.125 C 
ATOM     21  C10 <0> d          -0.772   1.596  -1.240  0.00  0.00     0.167 C 
ATOM     22  S1  <0> d           0.577   1.816  -2.471  0.00  0.00     0.146 S 
ATOM     23  C9  <0> d           2.024   1.375  -1.420  0.00  0.00     0.142 C 
ATOM     24  O1  <0> d           0.662   3.190  -2.824  0.00  0.00    -0.228 OA
ATOM     25  O2  <0> d           0.433   0.839  -3.494  0.00  0.00    -0.228 OA
ATOM     26  C8  <0> d           1.431   1.616  -0.003  0.00  0.00     0.043 C 
ENDBRANCH   8  20
TORSDOF 4
