REMARK  4 active torsions:
REMARK  status: ('A' for Active; 'I' for Inactive)
REMARK    1  A    between atoms: C8_8  and  O2_19 
REMARK    2  A    between atoms: C10_10  and  C11_11 
REMARK    3  A    between atoms: C12_12  and  C13_13 
REMARK    4  A    between atoms: C13_13  and  N2_26 
ROOT
ATOM      1  C1  <0> d          -5.344   4.134  -1.479  0.00  0.00     0.271 C 
ATOM      2  C2  <0> d          -4.570   1.999  -0.634  0.00  0.00     0.241 C 
ATOM      3  C3  <0> d          -3.456   0.970  -0.830  0.00  0.00     0.067 C 
ATOM      4  C4  <0> d          -2.122   1.581  -0.484  0.00  0.00    -0.042 A 
ATOM      5  C5  <0> d          -1.050   0.733  -0.248  0.00  0.00     0.047 A 
ATOM      6  C6  <0> d           0.196   1.247   0.069  0.00  0.00     0.108 A 
ATOM      7  C7  <0> d           0.371   2.624   0.157  0.00  0.00     0.139 A 
ATOM      8  C8  <0> d          -0.705   3.469  -0.072  0.00  0.00     0.114 A 
ATOM      9  C9  <0> d          -1.955   2.946  -0.389  0.00  0.00     0.027 A 
ATOM     10  C10 <0> d          -3.094   3.904  -0.622  0.00  0.00     0.302 C 
ATOM     11  O3  <0> d           1.674   2.879   0.477  0.00  0.00    -0.320 OA
ATOM     12  C19 <0> d           2.194   1.636   0.986  0.00  0.00     0.352 C 
ATOM     13  O4  <0> d           1.387   0.637   0.336  0.00  0.00    -0.323 OA
ATOM     14  N1  <0> d          -4.179   3.229  -1.352  0.00  0.00    -0.056 N 
ATOM     15  H25 <0> d          -3.847   2.978  -2.291  0.00  0.00     0.281 HD
ENDROOT
BRANCH  10  16
ATOM     16  C11 <0> d          -2.615   5.041  -1.426  0.00  0.00    -0.066 C 
ATOM     17  C12 <0> d          -2.234   5.947  -2.068  0.00  0.00    -0.076 C 
BRANCH  17  18
ATOM     18  C13 <0> d          -1.756   7.083  -2.872  0.00  0.00     0.328 C 
BRANCH  18  19
ATOM     19  N2  <0> d          -1.271   6.575  -4.174  0.00  0.00    -0.057 N 
ATOM     20  C14 <0> d           0.014   5.867  -3.993  0.00  0.00     0.262 C 
ATOM     21  C15 <0> d           0.469   5.323  -5.350  0.00  0.00     0.195 C 
ATOM     22  O1  <0> d           0.585   6.405  -6.277  0.00  0.00    -0.388 OA
ATOM     23  C16 <0> d          -0.631   7.134  -6.467  0.00  0.00     0.195 C 
ATOM     24  C17 <0> d          -1.098   7.696  -5.122  0.00  0.00     0.262 C 
ATOM     25  H26 <0> d          -1.963   5.919  -4.555  0.00  0.00     0.281 HD
ENDBRANCH  18  19
ENDBRANCH  17  18
ENDBRANCH  10  16
BRANCH   8  26
ATOM     26  O2  <0> d          -0.538   4.816   0.014  0.00  0.00    -0.352 OA
ATOM     27  C18 <0> d          -0.642   5.401   1.314  0.00  0.00     0.210 C 
ENDBRANCH   8  26
TORSDOF 4
