REMARK  7 active torsions:
REMARK  status: ('A' for Active; 'I' for Inactive)
REMARK    1  A    between atoms: C2_2  and  C5_5 
REMARK    2  A    between atoms: C5_5  and  N1_6 
REMARK    3  A    between atoms: C9_10  and  C11_13 
REMARK    4  A    between atoms: C9_10  and  O2_22 
REMARK    5  A    between atoms: C11_13  and  N2_14 
REMARK    6  A    between atoms: N2_14  and  C12_15 
REMARK    7  A    between atoms: C12_15  and  C13_16 
ROOT
ATOM      1  N1  <0> d           1.266   4.735  -2.416  0.00  0.00    -0.349 N 
ATOM      2  C6  <0> d           0.363   5.312  -3.403  0.00  0.00     0.126 C 
ATOM      3  C7  <0> d          -1.088   4.963  -3.069  0.00  0.00     0.023 C 
ATOM      4  C8  <0> d          -1.190   3.450  -2.843  0.00  0.00     0.051 C 
ATOM      5  C9  <0> d          -0.421   3.099  -1.567  0.00  0.00     0.164 C 
ATOM      6  C10 <0> d           0.941   3.731  -1.600  0.00  0.00     0.256 C 
ATOM      7  O1  <0> d           1.790   3.306  -0.846  0.00  0.00    -0.270 OA
ENDROOT
BRANCH   5   8
ATOM      8  C11 <0> d          -0.273   1.579  -1.464  0.00  0.00     0.317 C 
BRANCH   8   9
ATOM      9  N2  <0> d          -1.604   0.959  -1.432  0.00  0.00     0.093 N 
ATOM     10  H20 <0> d          -2.127   1.258  -0.512  0.00  0.00     0.316 HD
BRANCH   9  11
ATOM     11  C12 <0> d          -1.503  -0.506  -1.461  0.00  0.00     0.345 C 
BRANCH  11  12
ATOM     12  C13 <0> d          -2.885  -1.106  -1.428  0.00  0.00     0.111 A 
ATOM     13  N4  <0> d          -3.570  -1.444  -0.314  0.00  0.00    -0.348 N 
ATOM     14  C15 <0> d          -4.777  -1.948  -0.718  0.00  0.00     0.108 A 
ATOM     15  C16 <0> d          -3.109  -1.294   1.069  0.00  0.00     0.157 C 
ATOM     16  C14 <0> d          -4.784  -1.909  -2.064  0.00  0.00     0.106 A 
ATOM     17  N3  <0> d          -3.616  -1.391  -2.471  0.00  0.00    -0.353 N 
ATOM     18  H29 <0> d          -3.231  -1.193  -3.482  0.00  0.00     0.166 HD
ENDBRANCH  11  12
ENDBRANCH   9  11
ENDBRANCH   8   9
ENDBRANCH   5   8
BRANCH   5  19
ATOM     19  O2  <0> d          -1.142   3.583  -0.432  0.00  0.00    -0.378 OA
ATOM     20  H28 <0> d          -0.743   3.425   0.581  0.00  0.00     0.211 HD
ENDBRANCH   5  19
BRANCH   1  21
ATOM     21  C5  <0> d           2.617   5.293  -2.312  0.00  0.00     0.134 C 
BRANCH  21  22
ATOM     22  C2  <0> d           2.627   6.412  -1.269  0.00  0.00    -0.035 C 
ATOM     23  C1  <0> d           2.238   5.841   0.096  0.00  0.00     0.016 C 
ATOM     24  C3  <0> d           4.029   7.019  -1.186  0.00  0.00     0.016 C 
ATOM     25  C4  <0> d           1.626   7.496  -1.673  0.00  0.00     0.016 C 
ENDBRANCH  21  22
ENDBRANCH   1  21
TORSDOF 7
