REMARK  5 active torsions:
REMARK  status: ('A' for Active; 'I' for Inactive)
REMARK    1  A    between atoms: C4_4  and  C7_7 
REMARK    2  A    between atoms: C10_12  and  S2_15 
REMARK    3  A    between atoms: S2_15  and  C11_16 
REMARK    4  A    between atoms: C11_16  and  C12_17 
REMARK       I    between atoms: C12_17  and  N4_19 
REMARK    5  A    between atoms: N4_19  and  C13_20 
ROOT
ATOM      1  C7  <0> d           3.695  -0.684  -0.037  0.00  0.00     0.060 A 
ATOM      2  C8  <0> d           4.530  -0.590   1.016  0.00  0.00     0.084 A 
ATOM      3  S1  <0> d           5.900  -1.613   0.501  0.00  0.00    -0.059 SA
ATOM      4  C9  <0> d           5.260  -2.095  -1.084  0.00  0.00     0.201 A 
ATOM      5  N1  <0> d           4.041  -1.457  -1.132  0.00  0.00    -0.265 N 
ATOM      6  C10 <0> d           3.526  -1.828  -2.363  0.00  0.00     0.197 A 
ATOM      7  N2  <0> d           4.398  -2.614  -2.940  0.00  0.00    -0.121 NA
ATOM      8  N3  <0> d           5.428  -2.764  -2.182  0.00  0.00    -0.121 NA
ENDROOT
BRANCH   6   9
ATOM      9  S2  <0> d           1.974  -1.331  -3.032  0.00  0.00    -0.080 SA
BRANCH   9  10
ATOM     10  C11 <0> d           1.909  -2.154  -4.647  0.00  0.00     0.187 C 
BRANCH  10  11
ATOM     11  C12 <0> d           0.613  -1.808  -5.336  0.00  0.00     0.255 C 
ATOM     12  O1  <0> d          -0.189  -1.076  -4.789  0.00  0.00    -0.270 OA
ATOM     13  N4  <0> d           0.347  -2.303  -6.543  0.00  0.00    -0.189 NA
BRANCH  13  14
ATOM     14  C13 <0> d          -0.792  -1.998  -7.148  0.00  0.00     0.172 A 
ATOM     15  S3  <0> d          -2.021  -1.012  -6.561  0.00  0.00    -0.083 SA
ATOM     16  C15 <0> d          -3.174  -1.135  -7.987  0.00  0.00     0.185 A 
ATOM     17  C14 <0> d          -2.377  -2.062  -8.893  0.00  0.00     0.233 A 
ATOM     18  N5  <0> d          -1.213  -2.426  -8.374  0.00  0.00    -0.305 N 
ATOM     19  O2  <0> d          -2.768  -2.430  -9.980  0.00  0.00    -0.272 OA
ATOM     20  H11 <0> d          -0.638  -3.018  -8.885  0.00  0.00     0.171 HD
ENDBRANCH  13  14
ENDBRANCH  10  11
ENDBRANCH   9  10
ENDBRANCH   6   9
BRANCH   1  21
ATOM     21  C4  <0> d           2.404   0.034  -0.021  0.00  0.00    -0.008 A 
ATOM     22  C3  <0> d           2.377   1.429  -0.013  0.00  0.00     0.014 A 
ATOM     23  C2  <0> d           1.168   2.094   0.002  0.00  0.00     0.001 A 
ATOM     24  C1  <0> d          -0.017   1.379   0.010  0.00  0.00     0.000 A 
ATOM     25  C6  <0> d           0.002  -0.004   0.002  0.00  0.00     0.001 A 
ATOM     26  C5  <0> d           1.204  -0.681  -0.013  0.00  0.00     0.014 A 
ENDBRANCH   1  21
TORSDOF 5
