REMARK  8 active torsions:
REMARK  status: ('A' for Active; 'I' for Inactive)
REMARK    1  A    between atoms: C2_2  and  C4_4 
REMARK    2  A    between atoms: C4_4  and  C5_5 
REMARK    3  A    between atoms: C4_4  and  N3_20 
REMARK       I    between atoms: C5_5  and  N1_7 
REMARK    4  A    between atoms: N1_7  and  C6_8 
REMARK    5  A    between atoms: C6_8  and  C7_9 
REMARK    6  A    between atoms: C7_9  and  C8_10 
REMARK    7  A    between atoms: C7_9  and  N2_17 
REMARK    8  A    between atoms: N3_20  and  C16_21 
ROOT
ATOM      1  C4  <0> d           6.707   3.963   2.623  0.00  0.00     0.178 C 
ENDROOT
BRANCH   1   2
ATOM      2  C2  <0> d           7.553   3.490   3.807  0.00  0.00     0.009 C 
ATOM      3  C1  <0> d           6.947   4.017   5.109  0.00  0.00     0.012 C 
ATOM      4  C3  <0> d           7.576   1.960   3.838  0.00  0.00     0.012 C 
ENDBRANCH   1   2
BRANCH   1   5
ATOM      5  C5  <0> d           7.381   3.567   1.335  0.00  0.00     0.240 C 
ATOM      6  O1  <0> d           7.101   2.514   0.803  0.00  0.00    -0.271 OA
ATOM      7  N1  <0> d           8.295   4.383   0.773  0.00  0.00    -0.357 N 
ATOM      8  H10 <0> d           8.497   5.370   1.216  0.00  0.00     0.162 HD
BRANCH   7   9
ATOM      9  C6  <0> d           9.019   3.957  -0.427  0.00  0.00     0.160 C 
BRANCH   9  10
ATOM     10  C7  <0> d           9.868   5.118  -0.950  0.00  0.00     0.237 C 
BRANCH  10  11
ATOM     11  C8  <0> d          10.713   4.643  -2.103  0.00  0.00    -0.023 A 
ATOM     12  C13 <0> d          11.889   3.959  -1.861  0.00  0.00     0.051 A 
ATOM     13  C12 <0> d          12.666   3.522  -2.921  0.00  0.00     0.117 A 
ATOM     14  C11 <0> d          12.263   3.771  -4.222  0.00  0.00     0.042 A 
ATOM     15  F1  <0> d          13.816   2.853  -2.685  0.00  0.00    -0.206 F 
ATOM     16  C10 <0> d          11.086   4.455  -4.461  0.00  0.00     0.004 A 
ATOM     17  C9  <0> d          10.309   4.886  -3.402  0.00  0.00     0.009 A 
ENDBRANCH  10  11
BRANCH  10  18
ATOM     18  N2  <0> d           8.987   6.203  -1.403  0.00  0.00    -0.069 N 
ATOM     19  C14 <0> d           7.772   5.667  -2.031  0.00  0.00     0.270 C 
ATOM     20  C15 <0> d           8.652   7.107  -0.294  0.00  0.00     0.270 C 
ATOM     21  H28 <0> d           9.531   6.785  -2.161  0.00  0.00     0.279 HD
ENDBRANCH  10  18
ENDBRANCH   9  10
ENDBRANCH   7   9
ENDBRANCH   1   5
BRANCH   1  22
ATOM     22  N3  <0> d           5.381   3.344   2.691  0.00  0.00    -0.360 N 
ATOM     23  H23 <0> d           5.176   2.420   2.130  0.00  0.00     0.162 HD
BRANCH  22  24
ATOM     24  C16 <0> d           4.391   3.919   3.457  0.00  0.00     0.149 A 
ATOM     25  C18 <0> d           3.057   3.304   3.531  0.00  0.00     0.034 A 
ATOM     26  C17 <0> d           2.186   4.029   4.357  0.00  0.00     0.095 A 
ATOM     27  C19 <0> d           2.552   2.146   2.921  0.00  0.00     0.017 A 
ATOM     28  S1  <0> d           3.196   5.376   4.910  0.00  0.00     0.286 S 
ATOM     29  C22 <0> d           0.896   3.641   4.572  0.00  0.00     0.026 A 
ATOM     30  N4  <0> d           4.625   5.006   4.121  0.00  0.00    -0.141 NA
ATOM     31  O2  <0> d           2.680   6.568   4.336  0.00  0.00    -0.198 OA
ATOM     32  O3  <0> d           3.415   5.209   6.305  0.00  0.00    -0.198 OA
ATOM     33  C21 <0> d           0.412   2.495   3.955  0.00  0.00     0.002 A 
ATOM     34  C20 <0> d           1.250   1.756   3.139  0.00  0.00     0.001 A 
ENDBRANCH  22  24
ENDBRANCH   1  22
TORSDOF 8
