REMARK  6 active torsions:
REMARK  status: ('A' for Active; 'I' for Inactive)
REMARK    1  A    between atoms: C4_4  and  C13_22 
REMARK    2  A    between atoms: N2_11  and  C8_13 
REMARK    3  A    between atoms: C16_25  and  O3_33 
REMARK    4  A    between atoms: C17_26  and  O2_28 
REMARK    5  A    between atoms: O2_28  and  C19_29 
REMARK    6  A    between atoms: C19_29  and  C20_30 
ROOT
ATOM      1  C1  <0> d          -0.047   1.522  -0.121  0.00  0.00     0.070 C 
ATOM      2  C2  <0> d          -0.016   0.015  -0.134  0.00  0.00     0.030 A 
ATOM      3  C3  <0> d          -1.088  -0.749   0.021  0.00  0.00     0.005 A 
ATOM      4  C4  <0> d          -2.474  -0.248   0.223  0.00  0.00     0.115 C 
ATOM      5  S1  <0> d          -3.550  -0.610  -1.177  0.00  0.00    -0.145 SA
ATOM      6  C5  <0> d          -3.753  -2.399  -1.191  0.00  0.00     0.177 C 
ATOM      7  C6  <0> d          -2.472  -3.104  -1.463  0.00  0.00     0.228 C 
ATOM      8  O1  <0> d          -2.600  -4.026  -2.240  0.00  0.00    -0.273 OA
ATOM      9  N1  <0> d          -1.266  -2.959  -1.064  0.00  0.00    -0.334 N 
ATOM     10  C7  <0> d          -0.622  -2.177  -0.052  0.00  0.00     0.243 A 
ATOM     11  N2  <0> d           0.831  -2.100  -0.277  0.00  0.00    -0.248 N 
ATOM     12  N3  <0> d           1.131  -0.731  -0.314  0.00  0.00    -0.299 N 
ATOM     13  H9  <0> d          -0.640  -3.506  -1.565  0.00  0.00     0.165 HD
ATOM     14  H10 <0> d           2.018  -0.361  -0.445  0.00  0.00     0.187 HD
ENDROOT
BRANCH   4  15
ATOM     15  C13 <0> d          -2.428   1.245   0.426  0.00  0.00    -0.037 A 
ATOM     16  C18 <0> d          -2.257   1.763   1.696  0.00  0.00     0.048 A 
ATOM     17  C17 <0> d          -2.209   3.135   1.884  0.00  0.00     0.102 A 
ATOM     18  C16 <0> d          -2.344   3.989   0.794  0.00  0.00     0.101 A 
ATOM     19  C15 <0> d          -2.520   3.463  -0.476  0.00  0.00     0.040 A 
ATOM     20  C14 <0> d          -2.562   2.093  -0.657  0.00  0.00     0.011 A 
BRANCH  17  21
ATOM     21  O2  <0> d          -2.036   3.646   3.132  0.00  0.00    -0.348 OA
BRANCH  21  22
ATOM     22  C19 <0> d          -1.904   2.710   4.204  0.00  0.00     0.179 C 
BRANCH  22  23
ATOM     23  C20 <0> d          -1.719   3.466   5.521  0.00  0.00     0.002 C 
ATOM     24  C21 <0> d          -2.986   4.265   5.834  0.00  0.00     0.011 C 
ATOM     25  C22 <0> d          -1.454   2.468   6.650  0.00  0.00     0.011 C 
ENDBRANCH  22  23
ENDBRANCH  21  22
ENDBRANCH  17  21
BRANCH  18  26
ATOM     26  O3  <0> d          -2.302   5.336   0.974  0.00  0.00    -0.353 OA
ATOM     27  C23 <0> d          -2.447   6.151  -0.191  0.00  0.00     0.210 C 
ENDBRANCH  18  26
ENDBRANCH   4  15
BRANCH  11  28
ATOM     28  C8  <0> d           1.690  -3.128  -0.420  0.00  0.00     0.157 C 
ATOM     29  C12 <0> d           3.160  -2.893  -0.646  0.00  0.00     0.251 C 
ATOM     30  C10 <0> d           3.865  -4.112  -0.045  0.00  0.00     0.161 C 
ATOM     31  N7  <0> d           3.718  -1.793   0.142  0.00  0.00    -0.262 NA
ATOM     32  N5  <0> d           3.394  -5.338  -0.250  0.00  0.00    -0.224 NA
ATOM     33  N6  <0> d           4.849  -3.620   0.646  0.00  0.00    -0.224 NA
ATOM     34  C9  <0> d           2.084  -5.433  -0.446  0.00  0.00     0.237 C 
ATOM     35  N4  <0> d           1.275  -4.381  -0.375  0.00  0.00    -0.224 NA
ATOM     36  C11 <0> d           4.704  -2.301   0.829  0.00  0.00     0.230 C 
ENDBRANCH  11  28
TORSDOF 6
