REMARK  5 active torsions:
REMARK  status: ('A' for Active; 'I' for Inactive)
REMARK    1  A    between atoms: C2_2  and  C4_4 
REMARK    2  A    between atoms: C4_4  and  C5_5 
REMARK    3  A    between atoms: C4_4  and  N1_8 
REMARK       I    between atoms: N1_8  and  C6_9 
REMARK    4  A    between atoms: C6_9  and  C7_11 
REMARK    5  A    between atoms: C7_11  and  C8_12 
ROOT
ATOM      1  N1  <0> d          -0.008  -0.140   2.444  0.00  0.00    -0.346 N 
ATOM      2  C6  <0> d           0.131  -0.861   3.574  0.00  0.00     0.222 C 
ATOM      3  O3  <0> d           0.878  -1.816   3.596  0.00  0.00    -0.273 OA
ATOM      4  H9  <0> d          -0.606   0.624   2.426  0.00  0.00     0.163 HD
ENDROOT
BRANCH   2   5
ATOM      5  C7  <0> d          -0.641  -0.479   4.811  0.00  0.00     0.139 C 
BRANCH   5   6
ATOM      6  C8  <0> d          -0.308  -1.437   5.926  0.00  0.00    -0.041 A 
ATOM      7  C15 <0> d          -0.947  -2.782   6.191  0.00  0.00     0.155 A 
ATOM      8  N2  <0> d          -0.277  -3.319   7.380  0.00  0.00    -0.385 N 
ATOM      9  C14 <0> d           0.617  -2.449   7.785  0.00  0.00     0.038 A 
ATOM     10  H18 <0> d          -0.466  -4.173   7.799  0.00  0.00     0.160 HD
ATOM     11  C9  <0> d           0.619  -1.265   6.896  0.00  0.00    -0.005 A 
ATOM     12  C13 <0> d           1.528  -2.466   8.877  0.00  0.00     0.030 A 
ATOM     13  C10 <0> d           1.559  -0.177   7.192  0.00  0.00     0.014 A 
ATOM     14  C11 <0> d           2.384  -0.294   8.257  0.00  0.00     0.001 A 
ATOM     15  C12 <0> d           2.363  -1.426   9.084  0.00  0.00     0.002 A 
ENDBRANCH   5   6
ENDBRANCH   2   5
BRANCH   1  16
ATOM     16  C4  <0> d           0.742  -0.511   1.242  0.00  0.00     0.189 C 
BRANCH  16  17
ATOM     17  C2  <0> d           0.002  -0.004   0.002  0.00  0.00     0.010 C 
ATOM     18  C1  <0> d          -0.019   1.526   0.010  0.00  0.00     0.012 C 
ATOM     19  C3  <0> d           0.718  -0.497  -1.257  0.00  0.00     0.012 C 
ENDBRANCH  16  17
BRANCH  16  20
ATOM     20  C5  <0> d           2.115   0.108   1.295  0.00  0.00     0.197 C 
ATOM     21  O1  <0> d           2.376   0.938   2.150  0.00  0.00    -0.646 OA
ATOM     22  O2  <0> d           2.964  -0.220   0.484  0.00  0.00    -0.646 OA
ENDBRANCH  16  20
ENDBRANCH   1  16
TORSDOF 5
