REMARK  5 active torsions:
REMARK  status: ('A' for Active; 'I' for Inactive)
REMARK    1  A    between atoms: C3_3  and  N1_9 
REMARK    2  A    between atoms: N1_9  and  S1_10 
REMARK    3  A    between atoms: S1_10  and  C8_13 
REMARK    4  A    between atoms: C13_18  and  N2_19 
REMARK    5  A    between atoms: N2_19  and  N3_20 
ROOT
ATOM      1  S1  <0> d          -0.727  -0.658  -3.772  0.00  0.00     0.265 S 
ATOM      2  O1  <0> d          -0.517   0.143  -4.927  0.00  0.00    -0.200 OA
ATOM      3  O2  <0> d          -0.290  -2.008  -3.692  0.00  0.00    -0.200 OA
ENDROOT
BRANCH   1   4
ATOM      4  N1  <0> d          -0.022   0.144  -2.506  0.00  0.00    -0.280 N 
ATOM      5  H7  <0> d           0.494   0.948  -2.669  0.00  0.00     0.179 HD
BRANCH   4   6
ATOM      6  C3  <0> d          -0.172  -0.339  -1.204  0.00  0.00     0.050 A 
ATOM      7  C2  <0> d          -0.283   0.549  -0.141  0.00  0.00    -0.013 A 
ATOM      8  C1  <0> d          -0.242   2.034  -0.392  0.00  0.00     0.052 C 
ATOM      9  C7  <0> d          -0.426   0.068   1.146  0.00  0.00     0.042 A 
ATOM     10  C6  <0> d          -0.470  -1.296   1.376  0.00  0.00     0.024 A 
ATOM     11 Cl1  <0> d          -0.557   1.176   2.476  0.00  0.00    -0.084 Cl
ATOM     12  C5  <0> d          -0.359  -2.182   0.320  0.00  0.00     0.004 A 
ATOM     13  C4  <0> d          -0.211  -1.707  -0.969  0.00  0.00     0.031 A 
ENDBRANCH   4   6
ENDBRANCH   1   4
BRANCH   1  14
ATOM     14  C8  <0> d          -2.464  -0.672  -3.478  0.00  0.00     0.107 A 
ATOM     15  C13 <0> d          -3.173   0.521  -3.444  0.00  0.00     0.066 A 
ATOM     16  C12 <0> d          -4.544   0.505  -3.217  0.00  0.00     0.032 A 
ATOM     17  C11 <0> d          -5.195  -0.696  -3.016  0.00  0.00     0.002 A 
ATOM     18  C10 <0> d          -4.485  -1.882  -3.045  0.00  0.00     0.002 A 
ATOM     19  C9  <0> d          -3.121  -1.870  -3.276  0.00  0.00     0.028 A 
BRANCH  15  20
ATOM     20  N2  <0> d          -2.511   1.735  -3.642  0.00  0.00    -0.322 N 
ATOM     21  H12 <0> d          -1.544   1.752  -3.724  0.00  0.00     0.180 HD
BRANCH  20  22
ATOM     22  N3  <0> d          -3.224   2.897  -3.721  0.00  0.00    -0.249 NA
ATOM     23  H13 <0> d          -3.728   3.072  -2.865  0.00  0.00     0.143 HD
ATOM     24  H14 <0> d          -2.624   3.675  -3.953  0.00  0.00     0.143 HD
ENDBRANCH  20  22
ENDBRANCH  15  20
ENDBRANCH   1  14
TORSDOF 5
