REMARK  6 active torsions:
REMARK  status: ('A' for Active; 'I' for Inactive)
REMARK    1  A    between atoms: N1_2  and  C2_3 
REMARK    2  A    between atoms: N1_2  and  C11_13 
REMARK    3  A    between atoms: C2_3  and  C3_4 
REMARK    4  A    between atoms: C3_4  and  C4_5 
REMARK    5  A    between atoms: C4_5  and  N2_6 
REMARK    6  A    between atoms: C19_21  and  O1_22 
ROOT
ATOM      1  C11 <0> d          -1.143  -1.170  -0.422  0.00  0.00     0.285 C 
ATOM      2  C12 <0> d          -0.894  -2.664  -0.416  0.00  0.00    -0.015 A 
ATOM      3  C13 <0> d          -0.631  -3.525   0.635  0.00  0.00     0.010 A 
ATOM      4  C14 <0> d          -0.433  -4.871   0.399  0.00  0.00     0.001 A 
ATOM      5  C15 <0> d          -0.497  -5.362  -0.892  0.00  0.00     0.001 A 
ATOM      6  C16 <0> d          -0.760  -4.505  -1.942  0.00  0.00     0.009 A 
ATOM      7  C17 <0> d          -0.960  -3.154  -1.708  0.00  0.00    -0.038 A 
ATOM      8  C18 <0> d          -1.261  -2.025  -2.663  0.00  0.00     0.019 C 
ATOM      9  C19 <0> d          -1.795  -0.872  -1.790  0.00  0.00     0.169 C 
ATOM     10  C20 <0> d          -2.324  -2.450  -3.674  0.00  0.00     0.044 C 
ATOM     11  C21 <0> d          -2.574  -1.303  -4.657  0.00  0.00     0.233 C 
ATOM     12  N3  <0> d          -1.324  -0.967  -5.348  0.00  0.00    -0.075 N 
ATOM     13  C22 <0> d          -0.335  -0.474  -4.382  0.00  0.00     0.233 C 
ATOM     14  C23 <0> d           0.009  -1.586  -3.388  0.00  0.00     0.044 C 
ATOM     15  H33 <0> d          -0.963  -1.790  -5.807  0.00  0.00     0.277 HD
ATOM     16  H38 <0> d          -1.504  -0.252  -6.037  0.00  0.00     0.277 HD
ENDROOT
BRANCH   1  17
ATOM     17  N1  <0> d           0.126  -0.442  -0.293  0.00  0.00     0.095 N 
ATOM     18  C1  <0> d          -0.094   1.010  -0.334  0.00  0.00     0.310 C 
BRANCH  17  19
ATOM     19  C2  <0> d           0.835  -0.833   0.932  0.00  0.00     0.274 C 
BRANCH  19  20
ATOM     20  C3  <0> d           2.250  -0.250   0.910  0.00  0.00     0.058 C 
BRANCH  20  21
ATOM     21  C4  <0> d           2.989  -0.658   2.187  0.00  0.00     0.236 C 
BRANCH  21  22
ATOM     22  N2  <0> d           4.386  -0.212   2.107  0.00  0.00    -0.071 N 
ATOM     23  C10 <0> d           4.411   1.184   2.097  0.00  0.00     0.235 C 
ATOM     24  C9  <0> d           5.841   1.735   1.919  0.00  0.00     0.028 C 
ATOM     25  C8  <0> d           6.568   1.652   3.236  0.00  0.00     0.002 C 
ATOM     26  C7  <0> d           7.374   0.345   3.381  0.00  0.00     0.002 C 
ATOM     27  C6  <0> d           6.593  -0.870   2.848  0.00  0.00     0.028 C 
ATOM     28  C5  <0> d           5.136  -0.802   3.233  0.00  0.00     0.235 C 
ATOM     29  H39 <0> d           4.784  -0.549   1.244  0.00  0.00     0.279 HD
ENDBRANCH  21  22
ENDBRANCH  20  21
ENDBRANCH  19  20
ENDBRANCH  17  19
ENDBRANCH   1  17
BRANCH   9  30
ATOM     30  O1  <0> d          -3.220  -0.923  -1.696  0.00  0.00    -0.392 OA
ATOM     31  H28 <0> d          -3.598  -0.274  -1.086  0.00  0.00     0.210 HD
ENDBRANCH   9  30
TORSDOF 6
