REMARK  4 active torsions:
REMARK  status: ('A' for Active; 'I' for Inactive)
REMARK    1  A    between atoms: C8_11  and  C9_13 
REMARK    2  A    between atoms: C9_13  and  C10_14 
REMARK    3  A    between atoms: C10_14  and  N3_15 
REMARK       I    between atoms: N3_15  and  C11_16 
REMARK    4  A    between atoms: C11_16  and  C12_18 
ROOT
ATOM      1  C9  <0> d           4.999  -2.586  -0.063  0.00  0.00     0.098 C 
ENDROOT
BRANCH   1   2
ATOM      2  C8  <0> d           3.650  -1.914  -0.045  0.00  0.00     0.108 A 
ATOM      3  N1  <0> d           2.540  -2.697  -0.038  0.00  0.00    -0.311 N 
ATOM      4  C7  <0> d           1.306  -2.142  -0.022  0.00  0.00     0.259 A 
ATOM      5  H1  <0> d           2.633  -3.663  -0.045  0.00  0.00     0.170 HD
ATOM      6  C5  <0> d           1.224  -0.674  -0.013  0.00  0.00     0.061 A 
ATOM      7  O1  <0> d           0.302  -2.832  -0.017  0.00  0.00    -0.267 OA
ATOM      8  C4  <0> d           2.432   0.058  -0.021  0.00  0.00     0.074 A 
ATOM      9  C6  <0> d           0.002  -0.004   0.002  0.00  0.00     0.019 A 
ATOM     10  C3  <0> d           2.387   1.453  -0.013  0.00  0.00     0.032 A 
ATOM     11  N2  <0> d           3.609  -0.616  -0.037  0.00  0.00    -0.234 NA
ATOM     12  C2  <0> d           1.169   2.096   0.002  0.00  0.00     0.002 A 
ATOM     13  C1  <0> d          -0.017   1.373   0.010  0.00  0.00     0.001 A 
ENDBRANCH   1   2
BRANCH   1  14
ATOM     14  C10 <0> d           6.099  -1.523  -0.069  0.00  0.00     0.130 C 
BRANCH  14  15
ATOM     15  N3  <0> d           7.410  -2.176  -0.086  0.00  0.00    -0.356 N 
ATOM     16  C11 <0> d           8.534  -1.432  -0.094  0.00  0.00     0.253 C 
ATOM     17  O2  <0> d           8.459  -0.219  -0.086  0.00  0.00    -0.268 OA
ATOM     18  H10 <0> d           7.469  -3.144  -0.092  0.00  0.00     0.162 HD
BRANCH  16  19
ATOM     19  C12 <0> d           9.857  -2.092  -0.112  0.00  0.00     0.050 A 
ATOM     20  C16 <0> d           9.956  -3.483  -0.120  0.00  0.00     0.133 A 
ATOM     21  N4  <0> d          11.134  -4.071  -0.142  0.00  0.00    -0.271 NA
ATOM     22  C15 <0> d          12.258  -3.381  -0.145  0.00  0.00     0.135 A 
ATOM     23  C14 <0> d          12.245  -1.996  -0.131  0.00  0.00     0.029 A 
ATOM     24  C13 <0> d          11.032  -1.330  -0.114  0.00  0.00     0.039 A 
ATOM     25 Br1  <0> d          13.868  -1.026  -0.135  0.00  0.00    -0.050 Br
ENDBRANCH  16  19
ENDBRANCH  14  15
ENDBRANCH   1  14
TORSDOF 4
