REMARK  3 active torsions:
REMARK  status: ('A' for Active; 'I' for Inactive)
REMARK    1  A    between atoms: C15_16  and  O5_23 
REMARK    2  A    between atoms: C16_17  and  O4_22 
REMARK    3  A    between atoms: C17_19  and  O3_20 
ROOT
ATOM      1  C1  <0> d           0.205   1.208   0.271  0.00  0.00     0.013 C 
ATOM      2  C2  <0> d           0.107  -0.308   0.454  0.00  0.00     0.019 C 
ATOM      3  C3  <0> d          -1.359  -0.733   0.455  0.00  0.00     0.040 C 
ATOM      4  C4  <0> d          -1.558  -2.177   0.792  0.00  0.00     0.138 C 
ATOM      5  C5  <0> d          -0.524  -2.881   1.647  0.00  0.00     0.044 C 
ATOM      6  C6  <0> d          -0.568  -4.319   1.148  0.00  0.00     0.051 C 
ATOM      7  C7  <0> d           0.675  -4.835   0.462  0.00  0.00     0.020 C 
ATOM      8  C8  <0> d           1.955  -4.279   1.074  0.00  0.00     0.002 C 
ATOM      9  C9  <0> d           1.904  -2.752   0.938  0.00  0.00     0.012 C 
ATOM     10  C10 <0> d           0.801  -2.239   1.840  0.00  0.00    -0.005 C 
ATOM     11  C11 <0> d           0.716  -0.707   1.795  0.00  0.00     0.073 C 
ATOM     12  C12 <0> d           2.121  -0.089   1.951  0.00  0.00     0.042 C 
ATOM     13  C13 <0> d           1.792   1.333   2.477  0.00  0.00     0.049 C 
ATOM     14  C14 <0> d           0.372   1.198   3.039  0.00  0.00     0.142 C 
ATOM     15  O1  <0> d          -0.047  -0.160   2.883  0.00  0.00    -0.360 OA
ATOM     16  C15 <0> d           0.336   1.613   4.521  0.00  0.00     0.212 C 
ATOM     17  C16 <0> d          -0.210   3.063   4.435  0.00  0.00     0.291 C 
ATOM     18  O2  <0> d          -1.163   3.004   3.351  0.00  0.00    -0.326 OA
ATOM     19  C17 <0> d          -0.591   2.160   2.334  0.00  0.00     0.299 C 
ATOM     20  C19 <0> d           1.235  -2.554   3.273  0.00  0.00     0.019 C 
ATOM     21  C20 <0> d          -1.705  -4.296   0.121  0.00  0.00     0.268 C 
ATOM     22  O6  <0> d          -2.420  -5.217  -0.199  0.00  0.00    -0.264 OA
ATOM     23  O7  <0> d          -1.719  -3.025  -0.357  0.00  0.00    -0.315 OA
ATOM     24  C21 <0> d          -0.946  -5.252   2.300  0.00  0.00     0.026 C 
ENDROOT
BRANCH  19  25
ATOM     25  O3  <0> d          -1.623   1.421   1.677  0.00  0.00    -0.363 OA
ATOM     26  C18 <0> d          -2.545   2.234   0.948  0.00  0.00     0.204 C 
ENDBRANCH  19  25
BRANCH  16  27
ATOM     27  O5  <0> d          -0.553   0.776   5.265  0.00  0.00    -0.387 OA
ATOM     28  H26 <0> d          -0.609   0.999   6.204  0.00  0.00     0.210 HD
ENDBRANCH  16  27
BRANCH  17  29
ATOM     29  O4  <0> d          -0.855   3.432   5.655  0.00  0.00    -0.368 OA
ATOM     30  H25 <0> d          -1.214   4.330   5.655  0.00  0.00     0.212 HD
ENDBRANCH  17  29
TORSDOF 3
