REMARK  4 active torsions:
REMARK  status: ('A' for Active; 'I' for Inactive)
REMARK    1  A    between atoms: C4_5  and  C7_8 
REMARK    2  A    between atoms: C7_8  and  N2_9 
REMARK    3  A    between atoms: N2_9  and  C9_11 
REMARK    4  A    between atoms: C10_12  and  C13_17 
ROOT
ATOM      1  C9  <0> d           3.295  -5.112   1.015  0.00  0.00     0.157 A 
ATOM      2  C10 <0> d           3.688  -6.334   0.442  0.00  0.00     0.139 A 
ATOM      3  N3  <0> d           4.980  -6.645   0.380  0.00  0.00    -0.253 NA
ATOM      4  C11 <0> d           5.883  -5.809   0.853  0.00  0.00     0.137 A 
ATOM      5  C12 <0> d           5.495  -4.604   1.418  0.00  0.00     0.138 A 
ATOM      6  N4  <0> d           4.216  -4.278   1.482  0.00  0.00    -0.240 NA
ENDROOT
BRANCH   1   7
ATOM      7  N2  <0> d           1.954  -4.777   1.085  0.00  0.00    -0.368 N 
ATOM      8  C8  <0> d           1.166  -5.156   2.260  0.00  0.00     0.151 C 
BRANCH   7   9
ATOM      9  C7  <0> d           1.323  -4.043  -0.015  0.00  0.00     0.128 C 
BRANCH   9  10
ATOM     10  C4  <0> d           1.449  -2.539   0.237  0.00  0.00     0.007 C 
ATOM     11  C3  <0> d           0.902  -1.771  -0.969  0.00  0.00     0.034 C 
ATOM     12  C2  <0> d           0.958  -0.270  -0.678  0.00  0.00     0.234 C 
ATOM     13  N1  <0> d           0.145   0.033   0.506  0.00  0.00    -0.075 N 
ATOM     14  C1  <0> d           0.138   1.484   0.735  0.00  0.00     0.269 C 
ATOM     15  C6  <0> d           0.706  -0.643   1.681  0.00  0.00     0.234 C 
ATOM     16  H22 <0> d          -0.800  -0.287   0.354  0.00  0.00     0.279 HD
ATOM     17  C5  <0> d           0.641  -2.159   1.481  0.00  0.00     0.034 C 
ENDBRANCH   9  10
ENDBRANCH   7   9
ENDBRANCH   1   7
BRANCH   2  18
ATOM     18  C13 <0> d           2.675  -7.266  -0.086  0.00  0.00     0.127 C 
ATOM     19  S1  <0> d           1.030  -6.795  -0.149  0.00  0.00    -0.058 SA
ATOM     20  N5  <0> d           3.043  -8.488  -0.518  0.00  0.00    -0.388 N 
ATOM     21  H20 <0> d           3.975  -8.754  -0.482  0.00  0.00     0.157 HD
ATOM     22  H21 <0> d           2.377  -9.101  -0.866  0.00  0.00     0.157 HD
ENDBRANCH   2  18
TORSDOF 4
