REMARK  3 active torsions:
REMARK  status: ('A' for Active; 'I' for Inactive)
REMARK    1  A    between atoms: N1_9  and  C18_23 
REMARK    2  A    between atoms: C8_10  and  C9_12 
REMARK    3  A    between atoms: C22_27  and  O3_29 
ROOT
ATOM      1  C1  <0> d           2.927  -1.771  -1.897  0.00  0.00     0.001 A 
ATOM      2  C2  <0> d           3.955  -0.846  -2.022  0.00  0.00     0.002 A 
ATOM      3  C3  <0> d           3.784   0.458  -1.617  0.00  0.00     0.032 A 
ATOM      4  C4  <0> d           2.559   0.859  -1.071  0.00  0.00     0.074 A 
ATOM      5  C5  <0> d           1.514  -0.087  -0.946  0.00  0.00     0.061 A 
ATOM      6  C6  <0> d           1.711  -1.401  -1.363  0.00  0.00     0.019 A 
ATOM      7  C7  <0> d           0.236   0.360  -0.370  0.00  0.00     0.266 A 
ATOM      8  O1  <0> d          -0.699  -0.408  -0.237  0.00  0.00    -0.267 OA
ATOM      9  N1  <0> d           0.140   1.657   0.006  0.00  0.00    -0.262 N 
ATOM     10  C8  <0> d           1.208   2.506  -0.153  0.00  0.00     0.139 A 
ATOM     11  N2  <0> d           2.353   2.125  -0.664  0.00  0.00    -0.230 NA
ENDROOT
BRANCH  10  12
ATOM     12  C9  <0> d           1.059   3.902   0.267  0.00  0.00     0.069 C 
ATOM     13  C10 <0> d           2.139   4.732   0.265  0.00  0.00     0.048 A 
ATOM     14  C17 <0> d           3.562   4.362   0.085  0.00  0.00     0.257 A 
ATOM     15  C11 <0> d           2.147   6.202   0.436  0.00  0.00     0.006 A 
ATOM     16  N3  <0> d           4.292   5.488   0.152  0.00  0.00    -0.322 N 
ATOM     17  O2  <0> d           3.992   3.238  -0.091  0.00  0.00    -0.267 OA
ATOM     18  C16 <0> d           3.488   6.603   0.363  0.00  0.00     0.046 A 
ATOM     19  H10 <0> d           5.382   5.605   0.063  0.00  0.00     0.169 HD
ATOM     20  C15 <0> d           3.797   7.952   0.497  0.00  0.00     0.030 A 
ATOM     21  C14 <0> d           2.793   8.876   0.705  0.00  0.00     0.002 A 
ATOM     22  C13 <0> d           1.470   8.476   0.781  0.00  0.00     0.001 A 
ATOM     23  C12 <0> d           1.142   7.141   0.650  0.00  0.00     0.015 A 
ENDBRANCH  10  12
BRANCH   9  24
ATOM     24  C18 <0> d          -1.055   2.135   0.555  0.00  0.00     0.047 A 
ATOM     25  C23 <0> d          -1.080   2.611   1.858  0.00  0.00     0.066 A 
ATOM     26  C22 <0> d          -2.266   3.085   2.397  0.00  0.00     0.067 A 
ATOM     27  C21 <0> d          -3.425   3.082   1.634  0.00  0.00     0.036 A 
ATOM     28  C20 <0> d          -3.398   2.608   0.336  0.00  0.00     0.005 A 
ATOM     29  C19 <0> d          -2.217   2.140  -0.207  0.00  0.00     0.030 A 
BRANCH  26  30
ATOM     30  O3  <0> d          -2.293   3.553   3.673  0.00  0.00    -0.361 OA
ATOM     31  H15 <0> d          -1.375   3.554   4.278  0.00  0.00     0.217 HD
ENDBRANCH  26  30
ENDBRANCH   9  24
TORSDOF 3
