REMARK  3 active torsions:
REMARK  status: ('A' for Active; 'I' for Inactive)
REMARK    1  A    between atoms: C6_6  and  N1_8 
REMARK    2  A    between atoms: C8_9  and  S1_30 
REMARK    3  A    between atoms: C10_12  and  C12_15 
ROOT
ATOM      1  N1  <0> d           0.240  -2.859   2.498  0.00  0.00    -0.286 N 
ATOM      2  C8  <0> d           1.462  -3.291   3.159  0.00  0.00     0.256 C 
ATOM      3  N2  <0> d           1.230  -4.402   4.068  0.00  0.00    -0.330 N 
ATOM      4  C9  <0> d           0.029  -4.700   4.573  0.00  0.00     0.235 C 
ATOM      5  C10 <0> d          -1.202  -3.914   4.225  0.00  0.00     0.209 C 
ATOM      6  C11 <0> d          -0.982  -3.119   2.971  0.00  0.00     0.242 C 
ATOM      7  O1  <0> d          -1.947  -2.703   2.364  0.00  0.00    -0.272 OA
ATOM      8  O2  <0> d          -0.070  -5.638   5.336  0.00  0.00    -0.272 OA
ATOM      9  H10 <0> d           1.986  -4.955   4.321  0.00  0.00     0.165 HD
ENDROOT
BRANCH   5  10
ATOM     10  C12 <0> d          -1.531  -2.958   5.373  0.00  0.00     0.292 C 
ATOM     11  N4  <0> d          -0.465  -1.952   5.500  0.00  0.00     0.095 N 
ATOM     12  C22 <0> d          -0.839  -0.891   6.448  0.00  0.00     0.275 C 
ATOM     13  H19 <0> d           0.409  -2.382   5.762  0.00  0.00     0.316 HD
ATOM     14  C21 <0> d          -1.937  -0.013   5.831  0.00  0.00     0.071 C 
ATOM     15  C14 <0> d          -3.011  -0.923   5.290  0.00  0.00    -0.019 A 
ATOM     16  C13 <0> d          -2.833  -2.248   5.084  0.00  0.00     0.051 A 
ATOM     17  C15 <0> d          -4.368  -0.608   4.902  0.00  0.00    -0.001 A 
ATOM     18  N3  <0> d          -3.985  -2.798   4.593  0.00  0.00    -0.357 N 
ATOM     19  H3  <0> d          -4.104  -3.734   4.367  0.00  0.00     0.166 HD
ATOM     20  C20 <0> d          -4.942  -1.832   4.467  0.00  0.00     0.043 A 
ATOM     21  C19 <0> d          -6.261  -1.876   4.020  0.00  0.00     0.030 A 
ATOM     22  C18 <0> d          -6.965  -0.684   4.024  0.00  0.00     0.002 A 
ATOM     23  C17 <0> d          -6.400   0.506   4.449  0.00  0.00     0.001 A 
ATOM     24  C16 <0> d          -5.103   0.581   4.895  0.00  0.00     0.014 A 
ENDBRANCH   5  10
BRANCH   1  25
ATOM     25  C6  <0> d           0.351  -2.129   1.309  0.00  0.00     0.046 A 
ATOM     26  C5  <0> d           0.380  -2.788   0.088  0.00  0.00    -0.035 A 
ATOM     27  C4  <0> d           0.489  -2.064  -1.084  0.00  0.00     0.009 A 
ATOM     28  C23 <0> d           0.292  -4.292   0.040  0.00  0.00     0.050 C 
ATOM     29  C3  <0> d           0.569  -0.685  -1.041  0.00  0.00     0.007 A 
ATOM     30  C2  <0> d           0.541  -0.025   0.174  0.00  0.00    -0.060 A 
ATOM     31  C1  <0> d           0.629   1.479   0.216  0.00  0.00     0.048 C 
ATOM     32  C7  <0> d           0.437  -0.743   1.349  0.00  0.00     0.037 A 
ENDBRANCH   1  25
BRANCH   2  33
ATOM     33  S1  <0> d           2.663  -3.804   1.900  0.00  0.00    -0.136 SA
ATOM     34  H20 <0> d           3.740  -4.179   2.612  0.00  0.00     0.105 HD
ENDBRANCH   2  33
TORSDOF 3
