REMARK  6 active torsions:
REMARK  status: ('A' for Active; 'I' for Inactive)
REMARK    1  A    between atoms: C2_2  and  C4_4 
REMARK    2  A    between atoms: C4_4  and  C5_5 
REMARK    3  A    between atoms: C5_5  and  C6_6 
REMARK    4  A    between atoms: C5_5  and  N1_11 
REMARK       I    between atoms: N1_11  and  C10_12 
REMARK    5  A    between atoms: C10_12  and  C11_14 
REMARK    6  A    between atoms: N3_16  and  C15_21 
ROOT
ATOM      1  C11 <0> d          -0.909  -0.920  -4.784  0.00  0.00     0.122 C 
ATOM      2  N2  <0> d          -0.269  -2.032  -4.593  0.00  0.00    -0.168 NA
ATOM      3  N3  <0> d           0.365  -2.693  -5.649  0.00  0.00    -0.232 N 
ATOM      4  C12 <0> d           0.662  -2.034  -6.786  0.00  0.00     0.240 C 
ATOM      5  O2  <0> d           1.215  -2.611  -7.697  0.00  0.00    -0.272 OA
ATOM      6  C13 <0> d           0.303  -0.576  -6.921  0.00  0.00     0.111 C 
ATOM      7  C14 <0> d          -0.998  -0.306  -6.156  0.00  0.00     0.076 C 
ENDROOT
BRANCH   1   8
ATOM      8  C10 <0> d          -1.560  -0.254  -3.650  0.00  0.00     0.268 C 
ATOM      9  N1  <0> d          -1.486  -0.796  -2.418  0.00  0.00    -0.347 N 
ATOM     10  H15 <0> d          -1.002  -1.625  -2.281  0.00  0.00     0.163 HD
ATOM     11  O1  <0> d          -2.166   0.787  -3.822  0.00  0.00    -0.266 OA
BRANCH   9  12
ATOM     12  C5  <0> d          -2.135  -0.131  -1.286  0.00  0.00     0.125 C 
BRANCH  12  13
ATOM     13  C4  <0> d          -1.433  -0.534   0.013  0.00  0.00     0.034 C 
BRANCH  13  14
ATOM     14  C2  <0> d           0.002  -0.004   0.002  0.00  0.00    -0.020 C 
ATOM     15  C1  <0> d          -0.019   1.526   0.010  0.00  0.00     0.009 C 
ATOM     16  C3  <0> d           0.742  -0.511   1.242  0.00  0.00     0.009 C 
ENDBRANCH  13  14
ENDBRANCH  12  13
BRANCH  12  17
ATOM     17  C6  <0> d          -3.583  -0.545  -1.223  0.00  0.00     0.005 A 
ATOM     18  S1  <0> d          -4.305  -2.153  -1.506  0.00  0.00    -0.104 SA
ATOM     19  C9  <0> d          -6.013  -1.715  -1.224  0.00  0.00     0.050 A 
ATOM     20  C8  <0> d          -5.920  -0.392  -0.944  0.00  0.00     0.008 A 
ATOM     21  C7  <0> d          -4.675   0.208  -0.944  0.00  0.00     0.017 A 
ENDBRANCH  12  17
ENDBRANCH   9  12
ENDBRANCH   1   8
BRANCH   3  22
ATOM     22  C15 <0> d           0.708  -4.111  -5.519  0.00  0.00     0.128 C 
ATOM     23  C18 <0> d           1.678  -4.309  -4.319  0.00  0.00     0.167 C 
ATOM     24  S2  <0> d           1.457  -6.110  -4.000  0.00  0.00     0.146 S 
ATOM     25  C17 <0> d          -0.184  -6.361  -4.793  0.00  0.00     0.142 C 
ATOM     26  O3  <0> d           1.331  -6.319  -2.601  0.00  0.00    -0.228 OA
ATOM     27  O4  <0> d           2.438  -6.834  -4.730  0.00  0.00    -0.228 OA
ATOM     28  C16 <0> d          -0.565  -4.931  -5.246  0.00  0.00     0.043 C 
ENDBRANCH   3  22
TORSDOF 6
