REMARK  5 active torsions:
REMARK  status: ('A' for Active; 'I' for Inactive)
REMARK    1  A    between atoms: C2_3  and  C4_8 
REMARK    2  A    between atoms: C4_8  and  C5_9 
REMARK    3  A    between atoms: C5_9  and  N4_10 
REMARK       I    between atoms: N4_10  and  C6_11 
REMARK    4  A    between atoms: C6_11  and  C7_13 
REMARK    5  A    between atoms: C7_13  and  N5_14 
ROOT
ATOM      1  N4  <0> d          -0.451   6.521  -0.626  0.00  0.00    -0.359 N 
ATOM      2  C6  <0> d          -0.720   7.770  -1.055  0.00  0.00     0.235 C 
ATOM      3  O1  <0> d          -1.333   7.937  -2.088  0.00  0.00    -0.272 OA
ATOM      4  H9  <0> d           0.039   6.387   0.200  0.00  0.00     0.162 HD
ENDROOT
BRANCH   2   5
ATOM      5  C7  <0> d          -0.258   8.958  -0.252  0.00  0.00     0.235 C 
BRANCH   5   6
ATOM      6  N5  <0> d          -0.670  10.192  -0.925  0.00  0.00    -0.305 N 
ATOM      7  C16 <0> d          -1.836  10.830  -0.718  0.00  0.00     0.259 A 
ATOM      8  C15 <0> d          -1.888  12.028  -1.570  0.00  0.00     0.045 A 
ATOM      9  O2  <0> d          -2.707  10.475   0.053  0.00  0.00    -0.267 OA
ATOM     10  C10 <0> d          -0.685  12.059  -2.303  0.00  0.00     0.006 A 
ATOM     11  C14 <0> d          -2.833  13.034  -1.757  0.00  0.00     0.018 A 
ATOM     12  C8  <0> d           0.086  10.874  -1.879  0.00  0.00     0.040 A 
ATOM     13  C11 <0> d          -0.451  13.088  -3.206  0.00  0.00     0.014 A 
ATOM     14  C9  <0> d           1.293  10.518  -2.327  0.00  0.00     0.044 C 
ATOM     15  C12 <0> d          -1.400  14.077  -3.379  0.00  0.00     0.001 A 
ATOM     16  C13 <0> d          -2.584  14.049  -2.659  0.00  0.00     0.001 A 
ENDBRANCH   5   6
ENDBRANCH   2   5
BRANCH   1  17
ATOM     17  C5  <0> d          -0.900   5.365  -1.407  0.00  0.00     0.130 C 
BRANCH  17  18
ATOM     18  C4  <0> d          -0.469   4.076  -0.704  0.00  0.00     0.100 C 
BRANCH  18  19
ATOM     19  C2  <0> d          -0.931   2.888  -1.508  0.00  0.00     0.130 A 
ATOM     20  N1  <0> d          -0.721   1.571  -1.179  0.00  0.00    -0.314 N 
ATOM     21  C1  <0> d          -0.013   1.086   0.008  0.00  0.00     0.160 C 
ATOM     22  C3  <0> d          -1.274   0.801  -2.138  0.00  0.00     0.195 A 
ATOM     23  N3  <0> d          -1.829   1.628  -3.048  0.00  0.00    -0.251 N 
ATOM     24  S1  <0> d          -1.274  -0.910  -2.189  0.00  0.00    -0.039 SA
ATOM     25  N2  <0> d          -1.590   2.941  -2.620  0.00  0.00    -0.159 NA
ATOM     26  H4  <0> d          -2.303   1.363  -3.852  0.00  0.00     0.191 HD
ENDBRANCH  18  19
ENDBRANCH  17  18
ENDBRANCH   1  17
TORSDOF 5
