REMARK  6 active torsions:
REMARK  status: ('A' for Active; 'I' for Inactive)
REMARK    1  A    between atoms: C6_6  and  C7_8 
REMARK       I    between atoms: C7_8  and  N2_10 
REMARK    2  A    between atoms: N2_10  and  C8_11 
REMARK    3  A    between atoms: C12_15  and  C13_17 
REMARK    4  A    between atoms: C14_18  and  C15_19 
REMARK    5  A    between atoms: C15_19  and  C16_20 
REMARK    6  A    between atoms: C16_20  and  O2_21 
ROOT
ATOM      1  C8  <0> d           0.166  -2.615   4.860  0.00  0.00     0.131 A 
ATOM      2  C9  <0> d           0.296  -4.000   4.893  0.00  0.00     0.051 A 
ATOM      3  C10 <0> d           0.415  -4.641   6.115  0.00  0.00     0.007 A 
ATOM      4  C11 <0> d           0.401  -3.876   7.270  0.00  0.00     0.041 A 
ATOM      5  C12 <0> d           0.269  -2.492   7.168  0.00  0.00     0.112 A 
ATOM      6  N3  <0> d           0.161  -1.910   5.978  0.00  0.00    -0.222 NA
ENDROOT
BRANCH   1   7
ATOM      7  N2  <0> d           0.047  -1.964   3.634  0.00  0.00    -0.306 N 
ATOM      8  C7  <0> d           0.024  -0.618   3.586  0.00  0.00     0.275 C 
ATOM      9  O1  <0> d           0.015   0.027   4.616  0.00  0.00    -0.266 OA
ATOM     10  H7  <0> d          -0.020  -2.480   2.816  0.00  0.00     0.170 HD
BRANCH   8  11
ATOM     11  C6  <0> d           0.010   0.076   2.277  0.00  0.00     0.125 A 
ATOM     12  C5  <0> d          -0.013   1.468   2.234  0.00  0.00     0.037 A 
ATOM     13  C4  <0> d          -0.025   2.104   1.002  0.00  0.00     0.004 A 
ATOM     14  C3  <0> d          -0.013   1.324  -0.144  0.00  0.00     0.027 A 
ATOM     15  C2  <0> d           0.010  -0.057  -0.026  0.00  0.00     0.031 A 
ATOM     16  C1  <0> d           0.022  -0.909  -1.269  0.00  0.00     0.070 C 
ATOM     17  N1  <0> d           0.016  -0.634   1.156  0.00  0.00    -0.248 NA
ENDBRANCH   8  11
ENDBRANCH   1   7
BRANCH   5  18
ATOM     18  C13 <0> d           0.253  -1.691   8.354  0.00  0.00    -0.047 C 
ATOM     19  C14 <0> d           0.239  -1.034   9.327  0.00  0.00    -0.098 C 
BRANCH  19  20
ATOM     20  C15 <0> d           0.223  -0.211  10.547  0.00  0.00     0.120 C 
BRANCH  20  21
ATOM     21  C16 <0> d           0.069   1.263  10.165  0.00  0.00     0.176 C 
BRANCH  21  22
ATOM     22  O2  <0> d           0.053   2.063  11.350  0.00  0.00    -0.400 OA
ATOM     23  H15 <0> d          -0.043   3.010  11.183  0.00  0.00     0.209 HD
ENDBRANCH  21  22
ENDBRANCH  20  21
ENDBRANCH  19  20
ENDBRANCH   5  18
TORSDOF 6
