REMARK  7 active torsions:
REMARK  status: ('A' for Active; 'I' for Inactive)
REMARK    1  A    between atoms: C2_2  and  C3_3 
REMARK    2  A    between atoms: C5_5  and  S1_18 
REMARK    3  A    between atoms: C7_7  and  C14_16 
REMARK    4  A    between atoms: C8_8  and  N1_9 
REMARK       I    between atoms: N1_9  and  C9_10 
REMARK    5  A    between atoms: C9_10  and  C10_12 
REMARK    6  A    between atoms: C10_12  and  C11_13 
REMARK    7  A    between atoms: S1_18  and  N2_21 
ROOT
ATOM      1  C3  <0> d           0.707   0.589  -1.484  0.00  0.00    -0.030 A 
ATOM      2  C4  <0> d           0.411  -0.661  -0.977  0.00  0.00     0.034 A 
ATOM      3  C5  <0> d           1.084  -1.776  -1.444  0.00  0.00     0.080 A 
ATOM      4  C6  <0> d           2.054  -1.642  -2.420  0.00  0.00     0.034 A 
ATOM      5  C7  <0> d           2.354  -0.395  -2.932  0.00  0.00    -0.030 A 
ATOM      6  C8  <0> d           1.677   0.725  -2.468  0.00  0.00     0.047 A 
ENDROOT
BRANCH   6   7
ATOM      7  N1  <0> d           1.974   1.990  -2.989  0.00  0.00    -0.326 N 
ATOM      8  C9  <0> d           3.112   2.616  -2.629  0.00  0.00     0.222 C 
ATOM      9  O1  <0> d           3.928   2.042  -1.939  0.00  0.00    -0.273 OA
ATOM     10  H8  <0> d           1.361   2.416  -3.608  0.00  0.00     0.169 HD
BRANCH   8  11
ATOM     11  C10 <0> d           3.371   4.029  -3.084  0.00  0.00     0.107 C 
BRANCH  11  12
ATOM     12  C11 <0> d           4.722   4.500  -2.542  0.00  0.00    -0.014 C 
ATOM     13  C12 <0> d           5.841   3.663  -3.164  0.00  0.00     0.010 C 
ATOM     14  C13 <0> d           4.929   5.973  -2.898  0.00  0.00     0.010 C 
ENDBRANCH  11  12
ENDBRANCH   8  11
ENDBRANCH   6   7
BRANCH   1  15
ATOM     15  C2  <0> d          -0.026   1.802  -0.974  0.00  0.00     0.036 C 
ATOM     16  C1  <0> d          -1.212   2.106  -1.892  0.00  0.00     0.010 C 
ENDBRANCH   1  15
BRANCH   5  17
ATOM     17  C14 <0> d           3.412  -0.250  -3.995  0.00  0.00     0.036 C 
ATOM     18  C15 <0> d           4.072  -1.608  -4.246  0.00  0.00     0.010 C 
ENDBRANCH   5  17
BRANCH   3  19
ATOM     19  S1  <0> d           0.705  -3.368  -0.793  0.00  0.00     0.256 S 
ATOM     20  O2  <0> d           1.854  -4.177  -1.004  0.00  0.00    -0.201 OA
ATOM     21  O3  <0> d           0.147  -3.158   0.497  0.00  0.00    -0.201 OA
BRANCH  19  22
ATOM     22  N2  <0> d          -0.501  -4.006  -1.732  0.00  0.00    -0.324 N 
ATOM     23  H23 <0> d          -0.854  -3.498  -2.479  0.00  0.00     0.169 HD
ATOM     24  H24 <0> d          -0.854  -4.888  -1.535  0.00  0.00     0.169 HD
ENDBRANCH  19  22
ENDBRANCH   3  19
TORSDOF 7
