REMARK  3 active torsions:
REMARK  status: ('A' for Active; 'I' for Inactive)
REMARK    1  A    between atoms: C2_2  and  S1_3 
REMARK    2  A    between atoms: S1_3  and  C3_4 
REMARK    3  A    between atoms: C5_9  and  C13_19 
ROOT
ATOM      1  C3  <0> d           0.818  -2.359   1.317  0.00  0.00     0.226 A 
ATOM      2  N1  <0> d           0.242  -3.033   0.311  0.00  0.00    -0.035 NA
ATOM      3  C4  <0> d           0.377  -4.315   0.511  0.00  0.00     0.726 A 
ATOM      4  N2  <0> d           1.060  -4.492   1.669  0.00  0.00    -0.082 N 
ATOM      5  N3  <0> d           1.334  -3.220   2.168  0.00  0.00    -0.128 NA
ATOM      6  C5  <0> d           1.403  -5.803   2.205  0.00  0.00     0.207 C 
ATOM      7  C6  <0> d           0.613  -6.877   1.492  0.00  0.00     0.041 C 
ATOM      8  C7  <0> d          -0.048  -6.636   0.339  0.00  0.00     0.039 C 
ATOM      9  N4  <0> d          -0.055  -5.392  -0.245  0.00  0.00    -0.191 N 
ATOM     10  C8  <0> d          -0.809  -7.736  -0.363  0.00  0.00     0.063 C 
ATOM     11  C9  <0> d          -1.357  -8.722   0.670  0.00  0.00    -0.006 C 
ATOM     12  C10 <0> d          -0.178  -9.290   1.468  0.00  0.00     0.088 C 
ATOM     13  C11 <0> d           0.588  -8.153   2.083  0.00  0.00     0.160 C 
ATOM     14  O1  <0> d           1.201  -8.341   3.116  0.00  0.00    -0.293 OA
ATOM     15  C12 <0> d          -2.094  -9.858  -0.042  0.00  0.00     0.011 C 
ATOM     16  H8  <0> d          -0.354  -5.272  -1.160  0.00  0.00     0.184 HD
ENDROOT
BRANCH   6  17
ATOM     17  C13 <0> d           2.876  -6.054   2.006  0.00  0.00     0.013 A 
ATOM     18  S2  <0> d           3.811  -6.118   0.486  0.00  0.00    -0.104 SA
ATOM     19  C16 <0> d           5.416  -6.453   1.192  0.00  0.00     0.050 A 
ATOM     20  C15 <0> d           5.136  -6.500   2.517  0.00  0.00     0.008 A 
ATOM     21  C14 <0> d           3.834  -6.295   2.934  0.00  0.00     0.017 A 
ENDBRANCH   6  17
BRANCH   1  22
ATOM     22  S1  <0> d           0.879  -0.605   1.472  0.00  0.00    -0.088 SA
BRANCH  22  23
ATOM     23  C2  <0> d           0.002  -0.004   0.002  0.00  0.00     0.078 C 
ATOM     24  C1  <0> d          -0.019   1.526   0.010  0.00  0.00     0.016 C 
ENDBRANCH  22  23
ENDBRANCH   1  22
TORSDOF 3
