REMARK  6 active torsions:
REMARK  status: ('A' for Active; 'I' for Inactive)
REMARK    1  A    between atoms: C2_2  and  N1_3 
REMARK    2  A    between atoms: C4_5  and  C13_17 
REMARK       I    between atoms: C13_17  and  N2_19 
REMARK    3  A    between atoms: N2_19  and  C14_20 
REMARK    4  A    between atoms: C14_20  and  C15_21 
REMARK    5  A    between atoms: C14_20  and  C18_24 
REMARK       I    between atoms: C18_24  and  N3_26 
REMARK    6  A    between atoms: N3_26  and  C19_27 
ROOT
ATOM      1  C13 <0> d           1.656   2.803   2.993  0.00  0.00     0.257 C 
ATOM      2  O4  <0> d           0.760   3.485   3.451  0.00  0.00    -0.267 OA
ATOM      3  N2  <0> d           1.386   1.579   2.496  0.00  0.00    -0.343 N 
ATOM      4  H13 <0> d           2.101   1.035   2.131  0.00  0.00     0.163 HD
ENDROOT
BRANCH   1   5
ATOM      5  C4  <0> d           3.037   3.312   2.983  0.00  0.00     0.098 A 
ATOM      6  C3  <0> d           4.062   2.547   2.467  0.00  0.00     0.112 A 
ATOM      7  N1  <0> d           5.330   2.977   2.441  0.00  0.00    -0.355 N 
ATOM      8  C7  <0> d           5.710   4.212   2.926  0.00  0.00     0.051 A 
ATOM      9  C6  <0> d           4.752   5.082   3.476  0.00  0.00     0.045 A 
ATOM     10  C8  <0> d           7.042   4.608   2.877  0.00  0.00     0.070 A 
ATOM     11  C5  <0> d           3.345   4.648   3.517  0.00  0.00     0.201 A 
ATOM     12  C11 <0> d           5.135   6.332   3.966  0.00  0.00     0.057 A 
ATOM     13  O1  <0> d           2.473   5.364   3.978  0.00  0.00    -0.286 OA
ATOM     14  C10 <0> d           6.459   6.712   3.910  0.00  0.00     0.106 A 
ATOM     15  C9  <0> d           7.415   5.847   3.365  0.00  0.00     0.107 A 
ATOM     16  O2  <0> d           7.087   7.856   4.313  0.00  0.00    -0.323 OA
ATOM     17  O3  <0> d           8.635   6.456   3.430  0.00  0.00    -0.323 OA
ATOM     18  C12 <0> d           8.485   7.521   4.387  0.00  0.00     0.352 C 
BRANCH   7  19
ATOM     19  C2  <0> d           6.357   2.100   1.874  0.00  0.00     0.124 C 
ATOM     20  C1  <0> d           7.025   1.304   2.997  0.00  0.00     0.027 C 
ENDBRANCH   7  19
ENDBRANCH   1   5
BRANCH   3  21
ATOM     21  C14 <0> d           0.011   1.072   2.506  0.00  0.00     0.180 C 
BRANCH  21  22
ATOM     22  C15 <0> d          -0.729   1.579   1.267  0.00  0.00     0.009 C 
ATOM     23  C16 <0> d          -0.013   1.086   0.008  0.00  0.00     0.012 C 
ATOM     24  C17 <0> d          -0.750   3.109   1.275  0.00  0.00     0.012 C 
ENDBRANCH  21  22
BRANCH  21  25
ATOM     25  C18 <0> d           0.032  -0.434   2.498  0.00  0.00     0.246 C 
ATOM     26  O5  <0> d           1.090  -1.026   2.485  0.00  0.00    -0.271 OA
ATOM     27  N3  <0> d          -1.126  -1.124   2.505  0.00  0.00    -0.304 N 
ATOM     28  H20 <0> d          -1.973  -0.651   2.516  0.00  0.00     0.171 HD
BRANCH  27  29
ATOM     29  C19 <0> d          -1.107  -2.514   2.498  0.00  0.00     0.172 A 
ATOM     30  S1  <0> d          -2.443  -3.623   2.505  0.00  0.00    -0.062 SA
ATOM     31  C21 <0> d          -1.491  -5.135   2.487  0.00  0.00     0.072 A 
ATOM     32  C20 <0> d          -0.230  -4.638   2.478  0.00  0.00     0.126 A 
ATOM     33  N4  <0> d          -0.070  -3.329   2.478  0.00  0.00    -0.236 NA
ENDBRANCH  27  29
ENDBRANCH  21  25
ENDBRANCH   3  21
TORSDOF 6
