REMARK  3 active torsions:
REMARK  status: ('A' for Active; 'I' for Inactive)
REMARK    1  A    between atoms: C2_2  and  N1_3 
REMARK    2  A    between atoms: N2_5  and  C8_14 
REMARK    3  A    between atoms: C6_9  and  C7_11 
REMARK       I    between atoms: C7_11  and  N3_13 
ROOT
ATOM      1  N1  <0> d           0.688  -0.476  -1.203  0.00  0.00    -0.267 NA
ATOM      2  C3  <0> d           1.811  -1.129  -1.101  0.00  0.00     0.167 C 
ATOM      3  N2  <0> d           2.486  -1.583  -2.221  0.00  0.00    -0.297 N 
ATOM      4  C4  <0> d           3.444  -2.498  -2.193  0.00  0.00     0.227 C 
ATOM      5  O1  <0> d           3.838  -2.879  -3.275  0.00  0.00    -0.273 OA
ATOM      6  C5  <0> d           4.102  -3.119  -1.010  0.00  0.00     0.128 C 
ATOM      7  C6  <0> d           3.189  -3.153   0.217  0.00  0.00     0.155 C 
ATOM      8  S1  <0> d           2.542  -1.464   0.479  0.00  0.00    -0.077 SA
ENDROOT
BRANCH   7   9
ATOM      9  C7  <0> d           3.974  -3.592   1.425  0.00  0.00     0.230 C 
ATOM     10  O2  <0> d           5.136  -3.263   1.546  0.00  0.00    -0.272 OA
ATOM     11  N3  <0> d           3.387  -4.348   2.373  0.00  0.00    -0.369 N 
ATOM     12  H9  <0> d           2.458  -4.611   2.277  0.00  0.00     0.159 HD
ATOM     13  H10 <0> d           3.893  -4.631   3.151  0.00  0.00     0.159 HD
ENDBRANCH   7   9
BRANCH   3  14
ATOM     14  C8  <0> d           2.117  -1.017  -3.521  0.00  0.00     0.130 C 
ATOM     15  C9  <0> d           2.974   0.219  -3.801  0.00  0.00     0.027 C 
ENDBRANCH   3  14
BRANCH   1  16
ATOM     16  C2  <0> d           0.002  -0.004   0.002  0.00  0.00     0.147 C 
ATOM     17  C1  <0> d          -0.019   1.526   0.010  0.00  0.00     0.028 C 
ENDBRANCH   1  16
TORSDOF 3
