REMARK  5 active torsions:
REMARK  status: ('A' for Active; 'I' for Inactive)
REMARK    1  A    between atoms: O1_2  and  C2_3 
REMARK    2  A    between atoms: C4_5  and  C10_14 
REMARK    3  A    between atoms: C7_8  and  O2_9 
REMARK    4  A    between atoms: O2_9  and  C8_10 
REMARK    5  A    between atoms: C8_10  and  C9_11 
REMARK       I    between atoms: C9_11  and  N1_13 
ROOT
ATOM      1  C2  <0> d          -1.201  -0.638   0.010  0.00  0.00     0.102 A 
ATOM      2  C3  <0> d          -2.374   0.099   0.019  0.00  0.00     0.049 A 
ATOM      3  C4  <0> d          -3.596  -0.546   0.027  0.00  0.00    -0.020 A 
ATOM      4  C5  <0> d          -3.652  -1.928   0.026  0.00  0.00     0.012 A 
ATOM      5  C6  <0> d          -2.485  -2.669   0.017  0.00  0.00     0.040 A 
ATOM      6  C7  <0> d          -1.257  -2.028   0.003  0.00  0.00     0.102 A 
ENDROOT
BRANCH   3   7
ATOM      7  C10 <0> d          -4.871   0.257   0.037  0.00  0.00     0.280 C 
ATOM      8  N3  <0> d          -5.867  -0.382  -0.837  0.00  0.00     0.095 N 
ATOM      9  C20 <0> d          -7.087   0.413  -1.003  0.00  0.00     0.275 C 
ATOM     10  H21 <0> d          -5.465  -0.619  -1.731  0.00  0.00     0.316 HD
ATOM     11  C19 <0> d          -7.829   0.535   0.340  0.00  0.00     0.067 C 
ATOM     12  C12 <0> d          -6.800   0.983   1.350  0.00  0.00    -0.041 A 
ATOM     13  C11 <0> d          -5.438   0.307   1.458  0.00  0.00     0.149 A 
ATOM     14  C13 <0> d          -6.785   1.996   2.206  0.00  0.00    -0.005 A 
ATOM     15  N2  <0> d          -4.637   1.138   2.355  0.00  0.00    -0.378 N 
ATOM     16  C18 <0> d          -5.421   2.096   2.810  0.00  0.00     0.039 A 
ATOM     17  H22 <0> d          -3.700   1.004   2.567  0.00  0.00     0.160 HD
ATOM     18  C17 <0> d          -5.152   3.130   3.753  0.00  0.00     0.030 A 
ATOM     19  C16 <0> d          -6.169   3.973   4.064  0.00  0.00     0.002 A 
ATOM     20  C15 <0> d          -7.455   3.893   3.522  0.00  0.00     0.001 A 
ATOM     21  C14 <0> d          -7.826   2.954   2.611  0.00  0.00     0.014 A 
ENDBRANCH   3   7
BRANCH   1  22
ATOM     22  O1  <0> d           0.002  -0.004   0.002  0.00  0.00    -0.353 OA
ATOM     23  C1  <0> d          -0.017   1.425   0.010  0.00  0.00     0.210 C 
ENDBRANCH   1  22
BRANCH   6  24
ATOM     24  O2  <0> d          -0.108  -2.756  -0.012  0.00  0.00    -0.339 OA
BRANCH  24  25
ATOM     25  C8  <0> d          -0.242  -4.179  -0.018  0.00  0.00     0.278 C 
BRANCH  25  26
ATOM     26  C9  <0> d           1.125  -4.812  -0.034  0.00  0.00     0.239 C 
ATOM     27  O3  <0> d           2.117  -4.114  -0.040  0.00  0.00    -0.271 OA
ATOM     28  N1  <0> d           1.247  -6.154  -0.043  0.00  0.00    -0.368 N 
ATOM     29  H11 <0> d           0.454  -6.713  -0.038  0.00  0.00     0.159 HD
ATOM     30  H12 <0> d           2.127  -6.562  -0.053  0.00  0.00     0.159 HD
ENDBRANCH  25  26
ENDBRANCH  24  25
ENDBRANCH   6  24
TORSDOF 5
