REMARK  4 active torsions:
REMARK  status: ('A' for Active; 'I' for Inactive)
REMARK    1  A    between atoms: C2_2  and  C3_3 
REMARK    2  A    between atoms: C7_7  and  C9_9 
REMARK    3  A    between atoms: C9_9  and  O1_11 
REMARK    4  A    between atoms: C13_15  and  N1_16 
REMARK       I    between atoms: N1_16  and  C14_17 
ROOT
ATOM      1  C3  <0> d           0.707  -0.490  -1.238  0.00  0.00    -0.057 A 
ATOM      2  C4  <0> d          -0.010  -0.718  -2.396  0.00  0.00     0.019 A 
ATOM      3  C5  <0> d           0.632  -1.164  -3.539  0.00  0.00    -0.001 A 
ATOM      4  C6  <0> d           1.999  -1.379  -3.522  0.00  0.00     0.086 A 
ATOM      5  C7  <0> d           2.718  -1.151  -2.353  0.00  0.00     0.004 A 
ATOM      6  C8  <0> d           2.073  -0.702  -1.218  0.00  0.00     0.019 A 
ATOM      7  O2  <0> d           2.671  -1.805  -4.623  0.00  0.00    -0.350 OA
ATOM      8  C11 <0> d           1.912  -2.384  -5.686  0.00  0.00     0.178 C 
ATOM      9  C12 <0> d           0.736  -1.452  -6.004  0.00  0.00     0.057 C 
ATOM     10  C13 <0> d          -0.186  -1.406  -4.783  0.00  0.00     0.122 C 
ENDROOT
BRANCH  10  11
ATOM     11  N1  <0> d          -1.158  -0.322  -4.946  0.00  0.00    -0.353 N 
ATOM     12  C14 <0> d          -2.294  -0.535  -5.639  0.00  0.00     0.214 C 
ATOM     13  O3  <0> d          -2.512  -1.624  -6.127  0.00  0.00    -0.274 OA
ATOM     14  C15 <0> d          -3.294   0.580  -5.807  0.00  0.00     0.117 C 
ATOM     15  H18 <0> d          -0.984   0.548  -4.555  0.00  0.00     0.163 HD
ENDBRANCH  10  11
BRANCH   1  16
ATOM     16  C2  <0> d           0.002  -0.004   0.002  0.00  0.00     0.034 C 
ATOM     17  C1  <0> d          -0.019   1.526   0.010  0.00  0.00     0.010 C 
ENDBRANCH   1  16
BRANCH   5  18
ATOM     18  C9  <0> d           4.206  -1.388  -2.328  0.00  0.00     0.150 C 
ATOM     19  C10 <0> d           4.482  -2.865  -2.036  0.00  0.00     0.044 C 
BRANCH  18  20
ATOM     20  O1  <0> d           4.799  -0.582  -1.308  0.00  0.00    -0.391 OA
ATOM     21  H13 <0> d           4.466  -0.765  -0.418  0.00  0.00     0.210 HD
ENDBRANCH  18  20
ENDBRANCH   5  18
TORSDOF 4
