REMARK  6 active torsions:
REMARK  status: ('A' for Active; 'I' for Inactive)
REMARK    1  A    between atoms: C2_3  and  C15_23 
REMARK    2  A    between atoms: C3_6  and  S1_7 
REMARK    3  A    between atoms: S1_7  and  C4_8 
REMARK    4  A    between atoms: C4_8  and  C5_9 
REMARK       I    between atoms: C5_9  and  N4_11 
REMARK    5  A    between atoms: N4_11  and  N5_12 
REMARK    6  A    between atoms: C6_13  and  C7_14 
ROOT
ATOM      1  C4  <0> d          -1.339  -2.309   1.784  0.00  0.00     0.181 C 
ENDROOT
BRANCH   1   2
ATOM      2  S1  <0> d          -0.266  -1.033   2.500  0.00  0.00    -0.108 SA
BRANCH   2   3
ATOM      3  C3  <0> d           0.812  -0.544   1.126  0.00  0.00     0.375 C 
ATOM      4  N1  <0> d          -0.001  -0.017   0.006  0.00  0.00     0.136 N 
ATOM      5  C1  <0> d          -0.032   1.452   0.023  0.00  0.00     0.316 C 
ATOM      6  C2  <0> d           0.691  -0.521  -1.210  0.00  0.00     0.345 C 
ATOM      7  N2  <0> d           1.137  -1.877  -0.798  0.00  0.00    -0.223 NA
ATOM      8  N3  <0> d           1.533  -1.722   0.604  0.00  0.00    -0.218 NA
ATOM      9  H6  <0> d           0.388  -2.548  -0.890  0.00  0.00     0.143 HD
ATOM     10  H7  <0> d           1.308  -2.549   1.137  0.00  0.00     0.143 HD
BRANCH   6  11
ATOM     11  C15 <0> d          -0.264  -0.600  -2.374  0.00  0.00    -0.010 A 
ATOM     12  C20 <0> d          -1.444  -1.311  -2.253  0.00  0.00     0.011 A 
ATOM     13  C19 <0> d          -2.321  -1.379  -3.318  0.00  0.00     0.001 A 
ATOM     14  C18 <0> d          -2.016  -0.745  -4.508  0.00  0.00     0.000 A 
ATOM     15  C17 <0> d          -0.834  -0.038  -4.630  0.00  0.00     0.001 A 
ATOM     16  C16 <0> d           0.042   0.034  -3.563  0.00  0.00     0.011 A 
ENDBRANCH   6  11
ENDBRANCH   2   3
ENDBRANCH   1   2
BRANCH   1  17
ATOM     17  C5  <0> d          -2.296  -2.808   2.835  0.00  0.00     0.247 C 
ATOM     18  O1  <0> d          -2.259  -2.348   3.957  0.00  0.00    -0.271 OA
ATOM     19  N4  <0> d          -3.194  -3.765   2.529  0.00  0.00    -0.247 N 
ATOM     20  H10 <0> d          -3.224  -4.133   1.632  0.00  0.00     0.192 HD
BRANCH  19  21
ATOM     21  N5  <0> d          -4.085  -4.229   3.506  0.00  0.00    -0.184 NA
ATOM     22  C6  <0> d          -4.957  -5.159   3.208  0.00  0.00     0.148 C 
BRANCH  22  23
ATOM     23  C7  <0> d          -5.848  -5.623   4.186  0.00  0.00    -0.009 A 
ATOM     24  C14 <0> d          -5.944  -5.168   5.626  0.00  0.00     0.161 A 
ATOM     25  N6  <0> d          -7.029  -5.951   6.226  0.00  0.00    -0.385 N 
ATOM     26  C13 <0> d          -7.526  -6.769   5.323  0.00  0.00     0.039 A 
ATOM     27  H23 <0> d          -7.330  -5.880   7.146  0.00  0.00     0.160 HD
ATOM     28  C8  <0> d          -6.826  -6.604   4.037  0.00  0.00    -0.000 A 
ATOM     29  C12 <0> d          -8.572  -7.727   5.397  0.00  0.00     0.030 A 
ATOM     30  C9  <0> d          -7.220  -7.399   2.938  0.00  0.00     0.014 A 
ATOM     31  C10 <0> d          -8.229  -8.294   3.084  0.00  0.00     0.001 A 
ATOM     32  C11 <0> d          -8.897  -8.455   4.302  0.00  0.00     0.002 A 
ENDBRANCH  22  23
ENDBRANCH  19  21
ENDBRANCH   1  17
TORSDOF 6
