REMARK  7 active torsions:
REMARK  status: ('A' for Active; 'I' for Inactive)
REMARK    1  A    between atoms: C7_11  and  C8_13 
REMARK    2  A    between atoms: C8_13  and  S2_14 
REMARK    3  A    between atoms: S2_14  and  C9_15 
REMARK    4  A    between atoms: C9_15  and  C11_17 
REMARK       I    between atoms: C11_17  and  N3_19 
REMARK    5  A    between atoms: N3_19  and  C12_20 
REMARK    6  A    between atoms: C15_23  and  N4_26 
REMARK       I    between atoms: N4_26  and  C18_27 
REMARK    7  A    between atoms: C18_27  and  C19_29 
ROOT
ATOM      1  C9  <0> d           2.612  -4.025  -0.329  0.00  0.00     0.136 C 
ATOM      2  C10 <0> d           2.489  -4.674   1.051  0.00  0.00     0.031 C 
ENDROOT
BRANCH   1   3
ATOM      3  S2  <0> d           4.207  -4.473  -1.067  0.00  0.00    -0.147 SA
BRANCH   3   4
ATOM      4  C8  <0> d           4.092  -6.267  -1.306  0.00  0.00     0.153 C 
BRANCH   4   5
ATOM      5  C7  <0> d           5.370  -6.775  -1.922  0.00  0.00     0.117 A 
ATOM      6  N1  <0> d           5.503  -8.101  -2.184  0.00  0.00    -0.310 N 
ATOM      7  C6  <0> d           6.625  -8.596  -2.739  0.00  0.00     0.260 A 
ATOM      8  H1  <0> d           4.773  -8.703  -1.970  0.00  0.00     0.170 HD
ATOM      9  C5  <0> d           7.701  -7.699  -3.045  0.00  0.00     0.075 A 
ATOM     10  O1  <0> d           6.727  -9.788  -2.972  0.00  0.00    -0.267 OA
ATOM     11  C2  <0> d           8.997  -7.984  -3.632  0.00  0.00    -0.031 A 
ATOM     12  C4  <0> d           7.473  -6.347  -2.733  0.00  0.00     0.116 A 
ATOM     13  C1  <0> d           9.369  -9.393  -4.013  0.00  0.00     0.050 C 
ATOM     14  C3  <0> d           9.861  -6.976  -3.832  0.00  0.00    -0.012 A 
ATOM     15  S1  <0> d           8.976  -5.548  -3.234  0.00  0.00    -0.074 SA
ATOM     16  C22 <0> d          11.247  -7.036  -4.421  0.00  0.00     0.057 C 
ATOM     17  N2  <0> d           6.332  -5.933  -2.190  0.00  0.00    -0.226 NA
ENDBRANCH   4   5
ENDBRANCH   3   4
ENDBRANCH   1   3
BRANCH   1  18
ATOM     18  C11 <0> d           2.526  -2.527  -0.189  0.00  0.00     0.235 C 
ATOM     19  O2  <0> d           3.537  -1.858  -0.199  0.00  0.00    -0.272 OA
ATOM     20  N3  <0> d           1.325  -1.931  -0.053  0.00  0.00    -0.326 N 
ATOM     21  H11 <0> d           0.522  -2.470   0.029  0.00  0.00     0.169 HD
BRANCH  20  22
ATOM     22  C12 <0> d           1.235  -0.533  -0.030  0.00  0.00     0.034 A 
ATOM     23  C17 <0> d           0.267   0.088   0.748  0.00  0.00     0.032 A 
ATOM     24  C16 <0> d           0.179   1.466   0.771  0.00  0.00     0.032 A 
ATOM     25  C15 <0> d           1.059   2.230   0.016  0.00  0.00     0.034 A 
ATOM     26  C14 <0> d           2.027   1.609  -0.763  0.00  0.00     0.032 A 
ATOM     27  C13 <0> d           2.115   0.231  -0.785  0.00  0.00     0.032 A 
BRANCH  25  28
ATOM     28  N4  <0> d           0.970   3.628   0.039  0.00  0.00    -0.327 N 
ATOM     29  C18 <0> d           1.227   4.338  -1.077  0.00  0.00     0.225 C 
ATOM     30  O3  <0> d           1.616   3.775  -2.078  0.00  0.00    -0.273 OA
ATOM     31  H16 <0> d           0.723   4.084   0.859  0.00  0.00     0.169 HD
BRANCH  29  32
ATOM     32  C19 <0> d           1.032   5.832  -1.081  0.00  0.00     0.070 C 
ATOM     33  C20 <0> d           1.935   6.468  -0.022  0.00  0.00     0.019 C 
ATOM     34  C21 <0> d           1.392   6.390  -2.459  0.00  0.00     0.019 C 
ENDBRANCH  29  32
ENDBRANCH  25  28
ENDBRANCH  20  22
ENDBRANCH   1  18
TORSDOF 7
