REMARK  3 active torsions:
REMARK  status: ('A' for Active; 'I' for Inactive)
REMARK    1  A    between atoms: C4_4  and  C7_7 
REMARK    2  A    between atoms: C9_9  and  C10_12 
REMARK       I    between atoms: C10_12  and  N3_14 
REMARK    3  A    between atoms: N3_14  and  C11_15 
ROOT
ATOM      1  C7  <0> d           3.699  -0.689  -0.037  0.00  0.00     0.087 A 
ATOM      2  C8  <0> d           3.832  -2.029  -0.051  0.00  0.00     0.046 A 
ATOM      3  C9  <0> d           5.335  -2.245  -0.065  0.00  0.00     0.247 A 
ATOM      4  N1  <0> d           5.871  -0.874  -0.056  0.00  0.00    -0.173 NA
ATOM      5  N2  <0> d           4.919  -0.090  -0.047  0.00  0.00    -0.154 NA
ENDROOT
BRANCH   3   6
ATOM      6  C10 <0> d           5.775  -3.000   1.163  0.00  0.00     0.248 C 
ATOM      7  O1  <0> d           6.258  -2.403   2.101  0.00  0.00    -0.271 OA
ATOM      8  N3  <0> d           5.632  -4.339   1.217  0.00  0.00    -0.350 N 
ATOM      9  H9  <0> d           5.246  -4.817   0.466  0.00  0.00     0.163 HD
BRANCH   8  10
ATOM     10  C11 <0> d           6.060  -5.074   2.410  0.00  0.00     0.122 C 
ATOM     11  C14 <0> d           7.520  -5.378   2.305  0.00  0.00     0.011 C 
ATOM     12  C13 <0> d           7.976  -6.547   2.667  0.00  0.00     0.107 C 
ATOM     13  S1  <0> d           6.554  -7.483   3.200  0.00  0.00     0.167 S 
ATOM     14  C12 <0> d           5.237  -6.384   2.528  0.00  0.00     0.174 C 
ATOM     15  O2  <0> d           6.574  -7.447   4.620  0.00  0.00    -0.223 OA
ATOM     16  O3  <0> d           6.607  -8.712   2.488  0.00  0.00    -0.223 OA
ENDBRANCH   8  10
ENDBRANCH   3   6
BRANCH   1  17
ATOM     17  C4  <0> d           2.402   0.033  -0.021  0.00  0.00    -0.006 A 
ATOM     18  C3  <0> d           2.377   1.426  -0.013  0.00  0.00     0.014 A 
ATOM     19  C2  <0> d           1.169   2.092   0.002  0.00  0.00     0.001 A 
ATOM     20  C1  <0> d          -0.017   1.379   0.010  0.00  0.00     0.000 A 
ATOM     21  C6  <0> d           0.002  -0.004   0.002  0.00  0.00     0.001 A 
ATOM     22  C5  <0> d           1.205  -0.680  -0.013  0.00  0.00     0.014 A 
ENDBRANCH   1  17
TORSDOF 3
