REMARK  3 active torsions:
REMARK  status: ('A' for Active; 'I' for Inactive)
REMARK    1  A    between atoms: C2_2  and  C5_5 
REMARK    2  A    between atoms: C8_8  and  O1_21 
REMARK    3  A    between atoms: C9_9  and  N1_11 
ROOT
ATOM      1  C5  <0> d           1.177  -0.494  -0.689  0.00  0.00    -0.005 C 
ATOM      2  C6  <0> d           0.109   0.006  -1.664  0.00  0.00     0.008 C 
ATOM      3  C7  <0> d           0.432  -0.491  -3.074  0.00  0.00     0.034 C 
ATOM      4  C8  <0> d           1.802   0.040  -3.501  0.00  0.00     0.149 C 
ATOM      5  C9  <0> d           2.870  -0.461  -2.526  0.00  0.00     0.217 C 
ATOM      6  C10 <0> d           2.547   0.037  -1.116  0.00  0.00     0.041 C 
ENDROOT
BRANCH   5   7
ATOM      7  N1  <0> d           2.890  -1.930  -2.534  0.00  0.00    -0.062 N 
ATOM      8  C18 <0> d           3.473  -2.400  -3.806  0.00  0.00     0.260 C 
ATOM      9  C17 <0> d           2.786  -3.685  -4.207  0.00  0.00     0.105 C 
ATOM     10  N2  <0> d           3.096  -4.832  -3.408  0.00  0.00    -0.406 N 
ATOM     11  C16 <0> d           3.096  -4.142  -5.646  0.00  0.00     0.028 C 
ATOM     12  C13 <0> d           2.957  -4.742  -1.978  0.00  0.00     0.119 C 
ATOM     13  C14 <0> d           2.642  -6.023  -4.117  0.00  0.00     0.117 C 
ATOM     14  C12 <0> d           4.111  -3.859  -1.459  0.00  0.00     0.047 C 
ATOM     15  C11 <0> d           3.669  -2.406  -1.391  0.00  0.00     0.237 C 
ATOM     16  C15 <0> d           2.644  -5.630  -5.618  0.00  0.00     0.021 C 
ATOM     17  H35 <0> d           1.944  -2.275  -2.457  0.00  0.00     0.280 HD
ENDBRANCH   5   7
BRANCH   4  18
ATOM     18  O1  <0> d           2.103  -0.425  -4.818  0.00  0.00    -0.393 OA
ATOM     19  H34 <0> d           1.467  -0.145  -5.490  0.00  0.00     0.210 HD
ENDBRANCH   4  18
BRANCH   1  20
ATOM     20  C2  <0> d           0.854   0.004   0.721  0.00  0.00    -0.048 C 
ATOM     21  C1  <0> d           0.834   1.533   0.730  0.00  0.00     0.015 C 
ATOM     22  C3  <0> d           1.922  -0.497   1.696  0.00  0.00     0.015 C 
ATOM     23  C4  <0> d          -0.516  -0.527   1.148  0.00  0.00     0.015 C 
ENDBRANCH   1  20
TORSDOF 3
