REMARK  3 active torsions:
REMARK  status: ('A' for Active; 'I' for Inactive)
REMARK    1  A    between atoms: N1_4  and  C8_12 
REMARK    2  A    between atoms: C6_7  and  N4_11 
REMARK    3  A    between atoms: C8_12  and  C10_14 
ROOT
ATOM      1  C1  <0> d          -0.763   1.643  -0.824  0.00  0.00     0.051 C 
ATOM      2  C2  <0> d          -0.490   0.182  -0.576  0.00  0.00    -0.022 A 
ATOM      3  C3  <0> d          -0.387  -0.782  -1.506  0.00  0.00     0.017 A 
ATOM      4  N1  <0> d          -0.134  -1.986  -0.901  0.00  0.00    -0.326 N 
ATOM      5  C4  <0> d          -0.068  -1.824   0.455  0.00  0.00     0.146 A 
ATOM      6  C5  <0> d          -0.281  -0.458   0.721  0.00  0.00     0.063 A 
ATOM      7  C6  <0> d          -0.257  -0.020   2.054  0.00  0.00     0.137 A 
ATOM      8  N2  <0> d          -0.029  -0.917   3.009  0.00  0.00    -0.224 NA
ATOM      9  C7  <0> d           0.170  -2.189   2.715  0.00  0.00     0.237 A 
ATOM     10  N3  <0> d           0.147  -2.646   1.481  0.00  0.00    -0.223 NA
ATOM     11  C16 <0> d          -0.528  -0.571  -2.992  0.00  0.00     0.069 C 
ENDROOT
BRANCH   4  12
ATOM     12  C8  <0> d           0.039  -3.259  -1.605  0.00  0.00     0.123 C 
ATOM     13  C9  <0> d           1.352  -3.910  -1.165  0.00  0.00     0.038 C 
BRANCH  12  14
ATOM     14  C10 <0> d          -1.111  -4.176  -1.275  0.00  0.00     0.003 A 
ATOM     15  C15 <0> d          -2.022  -4.526  -2.257  0.00  0.00     0.124 A 
ATOM     16  C14 <0> d          -3.075  -5.372  -1.954  0.00  0.00     0.043 A 
ATOM     17  F1  <0> d          -1.879  -4.046  -3.512  0.00  0.00    -0.205 F 
ATOM     18  C13 <0> d          -3.222  -5.857  -0.668  0.00  0.00     0.003 A 
ATOM     19  C12 <0> d          -2.316  -5.502   0.313  0.00  0.00     0.001 A 
ATOM     20  C11 <0> d          -1.261  -4.662   0.010  0.00  0.00     0.012 A 
ENDBRANCH  12  14
ENDBRANCH   4  12
BRANCH   7  21
ATOM     21  N4  <0> d          -0.464   1.311   2.366  0.00  0.00    -0.383 N 
ATOM     22  H6  <0> d          -0.629   1.955   1.660  0.00  0.00     0.157 HD
ATOM     23  H7  <0> d          -0.445   1.601   3.292  0.00  0.00     0.157 HD
ENDBRANCH   7  21
TORSDOF 3
