REMARK  3 active torsions:
REMARK  status: ('A' for Active; 'I' for Inactive)
REMARK    1  A    between atoms: C4_4  and  N1_9 
REMARK       I    between atoms: N1_9  and  C9_10 
REMARK    2  A    between atoms: C9_10  and  C10_12 
REMARK    3  A    between atoms: C19_21  and  C20_22 
ROOT
ATOM      1  C10 <0> d           2.269   0.410   0.240  0.00  0.00     0.106 C 
ATOM      2  C11 <0> d           3.180   1.604   0.597  0.00  0.00     0.066 C 
ATOM      3  C12 <0> d           2.876   2.670  -0.445  0.00  0.00    -0.042 A 
ATOM      4  C13 <0> d           2.445   3.934  -0.164  0.00  0.00     0.008 A 
ATOM      5  C14 <0> d           2.202   4.808  -1.216  0.00  0.00     0.001 A 
ATOM      6  C15 <0> d           2.394   4.401  -2.523  0.00  0.00     0.001 A 
ATOM      7  C16 <0> d           2.833   3.113  -2.801  0.00  0.00     0.008 A 
ATOM      8  C17 <0> d           3.070   2.259  -1.762  0.00  0.00    -0.042 A 
ATOM      9  C18 <0> d           3.551   0.824  -1.909  0.00  0.00     0.068 C 
ATOM     10  C19 <0> d           2.483  -0.040  -1.204  0.00  0.00     0.114 C 
ATOM     11  C21 <0> d           4.797   0.710  -1.045  0.00  0.00    -0.042 A 
ATOM     12  C22 <0> d           4.595   1.140   0.285  0.00  0.00    -0.042 A 
ATOM     13  C23 <0> d           5.621   1.108   1.186  0.00  0.00     0.008 A 
ATOM     14  C24 <0> d           6.866   0.658   0.765  0.00  0.00     0.001 A 
ATOM     15  C25 <0> d           7.059   0.252  -0.542  0.00  0.00     0.001 A 
ATOM     16  C26 <0> d           6.011   0.286  -1.452  0.00  0.00     0.008 A 
ENDROOT
BRANCH   1  17
ATOM     17  C9  <0> d           0.830   0.816   0.422  0.00  0.00     0.224 C 
ATOM     18  N1  <0> d          -0.075  -0.085   0.853  0.00  0.00    -0.356 N 
ATOM     19  H17 <0> d           0.200  -0.995   1.046  0.00  0.00     0.162 HD
ATOM     20  O1  <0> d           0.485   1.954   0.180  0.00  0.00    -0.273 OA
BRANCH  18  21
ATOM     21  C4  <0> d          -1.479   0.309   1.025  0.00  0.00     0.089 C 
ATOM     22  C3  <0> d          -2.369  -0.927   0.895  0.00  0.00     0.063 C 
ATOM     23  C2  <0> d          -3.835  -0.549   1.091  0.00  0.00     0.121 C 
ATOM     24  C1  <0> d          -4.352   0.164  -0.164  0.00  0.00     0.046 C 
ATOM     25  C27 <0> d          -4.638  -1.861   1.234  0.00  0.00     0.046 C 
ATOM     26  N2  <0> d          -4.120   0.237   2.321  0.00  0.00    -0.059 N 
ATOM     27  C6  <0> d          -3.127   1.298   2.638  0.00  0.00     0.121 C 
ATOM     28  H31 <0> d          -4.154  -0.414   3.114  0.00  0.00     0.279 HD
ATOM     29  H32 <0> d          -5.038   0.684   2.206  0.00  0.00     0.279 HD
ATOM     30  C5  <0> d          -1.669   0.900   2.422  0.00  0.00     0.063 C 
ATOM     31  C7  <0> d          -3.424   2.592   1.869  0.00  0.00     0.046 C 
ATOM     32  C8  <0> d          -3.307   1.607   4.140  0.00  0.00     0.046 C 
ENDBRANCH  18  21
ENDBRANCH   1  17
BRANCH  10  33
ATOM     33  C20 <0> d           1.181   0.075  -1.954  0.00  0.00     0.178 C 
ATOM     34  O2  <0> d           0.894   1.109  -2.511  0.00  0.00    -0.648 OA
ATOM     35  O3  <0> d           0.340  -0.970  -2.003  0.00  0.00    -0.648 OA
ENDBRANCH  10  33
TORSDOF 3
