REMARK  4 active torsions:
REMARK  status: ('A' for Active; 'I' for Inactive)
REMARK    1  A    between atoms: C2_2  and  C3_3 
REMARK    2  A    between atoms: C2_2  and  N1_10 
REMARK    3  A    between atoms: N1_10  and  C9_11 
REMARK    4  A    between atoms: C9_11  and  C10_12 
ROOT
ATOM      1  N1  <0> d           0.713  -0.491   1.192  0.00  0.00    -0.063 N 
ATOM      2  H9  <0> d           0.290  -0.099   2.020  0.00  0.00     0.278 HD
ATOM      3  H19 <0> d           0.655  -1.497   1.230  0.00  0.00     0.278 HD
ENDROOT
BRANCH   1   4
ATOM      4  C2  <0> d           0.002  -0.004   0.002  0.00  0.00     0.216 C 
ATOM      5  C1  <0> d          -0.019   1.526   0.010  0.00  0.00     0.045 C 
BRANCH   4   6
ATOM      6  C3  <0> d          -1.412  -0.526   0.013  0.00  0.00    -0.011 A 
ATOM      7  C8  <0> d          -2.108  -0.661  -1.175  0.00  0.00     0.019 A 
ATOM      8  C7  <0> d          -3.404  -1.144  -1.165  0.00  0.00     0.019 A 
ATOM      9 Br1  <0> d          -1.286  -0.192  -2.812  0.00  0.00    -0.051 Br
ATOM     10  C6  <0> d          -4.006  -1.482   0.033  0.00  0.00     0.001 A 
ATOM     11  C5  <0> d          -3.312  -1.342   1.220  0.00  0.00     0.001 A 
ATOM     12  C4  <0> d          -2.015  -0.864   1.210  0.00  0.00     0.011 A 
ENDBRANCH   4   6
ENDBRANCH   1   4
BRANCH   1  13
ATOM     13  C9  <0> d           2.122  -0.083   1.122  0.00  0.00     0.278 C 
BRANCH  13  14
ATOM     14  C10 <0> d           2.851  -0.582   2.343  0.00  0.00     0.051 A 
ATOM     15  C13 <0> d           2.838   0.169   3.543  0.00  0.00     0.260 A 
ATOM     16  N3  <0> d           3.492  -0.301   4.624  0.00  0.00    -0.270 N 
ATOM     17  O2  <0> d           2.237   1.227   3.600  0.00  0.00    -0.267 OA
ATOM     18  C12 <0> d           4.161  -1.467   4.559  0.00  0.00     0.330 A 
ATOM     19  C14 <0> d           3.480   0.465   5.874  0.00  0.00     0.164 C 
ATOM     20  N2  <0> d           4.186  -2.187   3.423  0.00  0.00    -0.313 N 
ATOM     21  O1  <0> d           4.751  -1.876   5.541  0.00  0.00    -0.246 OA
ATOM     22  C11 <0> d           3.530  -1.748   2.305  0.00  0.00     0.109 A 
ATOM     23  C15 <0> d           4.923  -3.453   3.382  0.00  0.00     0.160 C 
ENDBRANCH  13  14
ENDBRANCH   1  13
TORSDOF 4
