REMARK  5 active torsions:
REMARK  status: ('A' for Active; 'I' for Inactive)
REMARK    1  A    between atoms: C7_7  and  N1_8 
REMARK    2  A    between atoms: N1_8  and  C8_9 
REMARK    3  A    between atoms: C9_11  and  C11_14 
REMARK    4  A    between atoms: C11_14  and  C12_15 
REMARK    5  A    between atoms: C12_15  and  N3_16 
ROOT
ATOM      1  C8  <0> d           1.173   1.687  -0.001  0.00  0.00     0.171 A 
ATOM      2  N2  <0> d           2.414   1.245   0.073  0.00  0.00    -0.228 NA
ATOM      3  C9  <0> d           3.438   2.077   0.051  0.00  0.00     0.045 A 
ATOM      4  C10 <0> d           3.189   3.405  -0.051  0.00  0.00     0.080 A 
ATOM      5  S1  <0> d           1.404   3.404  -0.120  0.00  0.00    -0.062 SA
ENDROOT
BRANCH   1   6
ATOM      6  N1  <0> d          -0.011   0.966   0.007  0.00  0.00    -0.335 N 
ATOM      7  H7  <0> d           0.014  -0.133  -0.032  0.00  0.00     0.168 HD
BRANCH   6   8
ATOM      8  C7  <0> d          -1.237   1.635   0.066  0.00  0.00     0.040 A 
ATOM      9  C2  <0> d          -2.386   1.027  -0.423  0.00  0.00    -0.034 A 
ATOM     10  C1  <0> d          -2.312  -0.355  -1.019  0.00  0.00     0.050 C 
ATOM     11  C3  <0> d          -3.596   1.690  -0.364  0.00  0.00     0.028 A 
ATOM     12  C4  <0> d          -3.664   2.960   0.182  0.00  0.00     0.011 A 
ATOM     13  C5  <0> d          -2.521   3.568   0.670  0.00  0.00     0.021 A 
ATOM     14 Br1  <0> d          -5.322   3.865   0.262  0.00  0.00    -0.051 Br
ATOM     15  C6  <0> d          -1.310   2.908   0.619  0.00  0.00     0.031 A 
ENDBRANCH   6   8
ENDBRANCH   1   6
BRANCH   3  16
ATOM     16  C11 <0> d           4.852   1.562   0.136  0.00  0.00     0.087 C 
BRANCH  16  17
ATOM     17  C12 <0> d           5.003   0.694   1.387  0.00  0.00     0.235 C 
BRANCH  17  18
ATOM     18  N3  <0> d           6.381   0.192   1.471  0.00  0.00    -0.079 N 
ATOM     19  H13 <0> d           6.490  -0.432   2.370  0.00  0.00     0.274 HD
ATOM     20  H14 <0> d           7.078   1.041   1.527  0.00  0.00     0.274 HD
ATOM     21  H15 <0> d           6.607  -0.409   0.578  0.00  0.00     0.274 HD
ENDBRANCH  17  18
ENDBRANCH  16  17
ENDBRANCH   3  16
TORSDOF 5
