REMARK  4 active torsions:
REMARK  status: ('A' for Active; 'I' for Inactive)
REMARK    1  A    between atoms: C2_2  and  C3_3 
REMARK    2  A    between atoms: C2_2  and  N3_11 
REMARK       I    between atoms: C3_3  and  N1_5 
REMARK    3  A    between atoms: N1_5  and  C4_6 
REMARK       I    between atoms: N3_11  and  C7_12 
REMARK       I    between atoms: C7_12  and  N4_14 
REMARK       I    between atoms: N5_17  and  C12_20 
REMARK    4  A    between atoms: C12_20  and  C13_22 
ROOT
ATOM      1  N3  <0> d          -1.306  -0.306  -2.405  0.00  0.00    -0.330 N 
ATOM      2  C7  <0> d           0.006  -0.608  -2.358  0.00  0.00     0.319 C 
ATOM      3  O2  <0> d           0.642  -0.403  -1.343  0.00  0.00    -0.247 OA
ATOM      4  N4  <0> d           0.614  -1.138  -3.439  0.00  0.00    -0.331 N 
ATOM      5  C8  <0> d           2.014  -1.580  -3.367  0.00  0.00     0.147 C 
ATOM      6  C9  <0> d           2.087  -3.047  -3.808  0.00  0.00     0.146 C 
ATOM      7  N5  <0> d           1.362  -3.193  -5.077  0.00  0.00    -0.347 N 
ATOM      8  C10 <0> d          -0.038  -2.751  -5.149  0.00  0.00     0.146 C 
ATOM      9  C11 <0> d          -0.113  -1.289  -4.707  0.00  0.00     0.147 C 
ATOM     10  C12 <0> d           1.970  -3.723  -6.157  0.00  0.00     0.246 C 
ATOM     11  O3  <0> d           3.126  -4.084  -6.087  0.00  0.00    -0.271 OA
ATOM     12  H9  <0> d          -1.797  -0.401  -3.236  0.00  0.00     0.165 HD
ENDROOT
BRANCH   1  13
ATOM     13  C2  <0> d          -1.992   0.165  -1.199  0.00  0.00     0.174 C 
ATOM     14  C1  <0> d          -2.448  -1.037  -0.369  0.00  0.00     0.042 C 
BRANCH  13  15
ATOM     15  C3  <0> d          -3.192   0.987  -1.592  0.00  0.00     0.246 C 
ATOM     16  O1  <0> d          -3.449   1.162  -2.764  0.00  0.00    -0.271 OA
ATOM     17  N1  <0> d          -3.980   1.528  -0.641  0.00  0.00    -0.304 N 
ATOM     18  H6  <0> d          -3.775   1.387   0.296  0.00  0.00     0.171 HD
BRANCH  17  19
ATOM     19  C4  <0> d          -5.087   2.286  -1.004  0.00  0.00     0.172 A 
ATOM     20  S1  <0> d          -6.203   3.052  -0.005  0.00  0.00    -0.062 SA
ATOM     21  C6  <0> d          -7.233   3.760  -1.281  0.00  0.00     0.072 A 
ATOM     22  C5  <0> d          -6.598   3.315  -2.393  0.00  0.00     0.126 A 
ATOM     23  N2  <0> d          -5.519   2.575  -2.213  0.00  0.00    -0.236 NA
ENDBRANCH  17  19
ENDBRANCH  13  15
ENDBRANCH   1  13
BRANCH  10  24
ATOM     24  C13 <0> d           1.214  -3.866  -7.453  0.00  0.00     0.198 A 
ATOM     25  N6  <0> d           2.084  -4.441  -8.485  0.00  0.00    -0.373 N 
ATOM     26  C20 <0> d           2.188  -3.579  -9.470  0.00  0.00     0.039 A 
ATOM     27  H23 <0> d           2.510  -5.312  -8.446  0.00  0.00     0.161 HD
ATOM     28  C15 <0> d           1.397  -2.364  -9.173  0.00  0.00    -0.011 A 
ATOM     29  C19 <0> d           2.899  -3.630 -10.700  0.00  0.00     0.030 A 
ATOM     30  C14 <0> d           0.799  -2.506  -7.968  0.00  0.00     0.021 A 
ATOM     31  C16 <0> d           1.390  -1.282 -10.165  0.00  0.00     0.013 A 
ATOM     32  C17 <0> d           2.102  -1.432 -11.305  0.00  0.00     0.001 A 
ATOM     33  C18 <0> d           2.844  -2.593 -11.563  0.00  0.00     0.002 A 
ENDBRANCH  10  24
TORSDOF 4
