REMARK  7 active torsions:
REMARK  status: ('A' for Active; 'I' for Inactive)
REMARK    1  A    between atoms: C2_2  and  N1_3 
REMARK    2  A    between atoms: C4_5  and  N3_8 
REMARK    3  A    between atoms: N3_8  and  C6_9 
REMARK    4  A    between atoms: N4_11  and  N5_12 
REMARK       I    between atoms: N5_12  and  C7_13 
REMARK    5  A    between atoms: C7_13  and  C8_15 
REMARK    6  A    between atoms: C11_18  and  C12_20 
REMARK    7  A    between atoms: C12_20  and  N6_21 
ROOT
ATOM      1  N5  <0> d          -1.216   3.766   0.058  0.00  0.00    -0.262 N 
ATOM      2  C7  <0> d          -2.392   4.423   0.082  0.00  0.00     0.293 C 
ATOM      3  O1  <0> d          -3.438   3.801   0.081  0.00  0.00    -0.264 OA
ATOM      4  H9  <0> d          -0.383   4.262   0.058  0.00  0.00     0.190 HD
ENDROOT
BRANCH   1   5
ATOM      5  N4  <0> d          -1.197   2.365   0.033  0.00  0.00    -0.273 N 
ATOM      6  C6  <0> d          -0.021   1.708   0.009  0.00  0.00     0.191 C 
ATOM      7  S1  <0> d           0.002  -0.004  -0.022  0.00  0.00    -0.039 SA
ATOM      8  H8  <0> d          -2.031   1.869   0.032  0.00  0.00     0.189 HD
BRANCH   6   9
ATOM      9  N3  <0> d           1.137   2.397   0.004  0.00  0.00    -0.329 N 
ATOM     10  H7  <0> d           1.125   3.365  -0.062  0.00  0.00     0.168 HD
BRANCH   9  11
ATOM     11  C4  <0> d           2.364   1.714   0.095  0.00  0.00     0.077 A 
ATOM     12  C3  <0> d           3.564   2.162  -0.354  0.00  0.00     0.055 A 
ATOM     13  N1  <0> d           4.489   1.208  -0.073  0.00  0.00    -0.273 N 
ATOM     14  C18 <0> d           3.823   3.479  -1.039  0.00  0.00     0.072 C 
ATOM     15  N2  <0> d           3.833   0.147   0.565  0.00  0.00    -0.182 NA
ATOM     16  C5  <0> d           2.565   0.451   0.671  0.00  0.00     0.170 A 
BRANCH  13  17
ATOM     17  C2  <0> d           5.919   1.275  -0.384  0.00  0.00     0.147 C 
ATOM     18  C1  <0> d           6.666   1.916   0.788  0.00  0.00     0.028 C 
ENDBRANCH  13  17
ENDBRANCH   9  11
ENDBRANCH   6   9
ENDBRANCH   1   5
BRANCH   2  19
ATOM     19  C8  <0> d          -2.412   5.890   0.108  0.00  0.00     0.144 A 
ATOM     20  O2  <0> d          -1.332   6.697   0.117  0.00  0.00    -0.308 OA
ATOM     21  C11 <0> d          -1.732   7.975   0.140  0.00  0.00     0.073 A 
ATOM     22  C10 <0> d          -3.083   8.008   0.153  0.00  0.00     0.037 A 
ATOM     23  C9  <0> d          -3.528   6.677   0.133  0.00  0.00     0.045 A 
BRANCH  21  24
ATOM     24  C12 <0> d          -0.825   9.179   0.153  0.00  0.00     0.215 C 
BRANCH  24  25
ATOM     25  N6  <0> d          -0.517   9.543   1.538  0.00  0.00    -0.268 N 
ATOM     26  N7  <0> d          -1.246  10.434   2.337  0.00  0.00    -0.177 NA
ATOM     27  C15 <0> d          -0.667  10.499   3.509  0.00  0.00     0.053 A 
ATOM     28  C14 <0> d           0.451   9.660   3.491  0.00  0.00     0.055 A 
ATOM     29  C16 <0> d          -1.124  11.338   4.674  0.00  0.00     0.072 C 
ATOM     30  C13 <0> d           0.521   9.084   2.268  0.00  0.00     0.029 A 
ATOM     31  C17 <0> d           1.569   8.106   1.805  0.00  0.00     0.070 C 
ENDBRANCH  24  25
ENDBRANCH  21  24
ENDBRANCH   2  19
TORSDOF 7
