REMARK  7 active torsions:
REMARK  status: ('A' for Active; 'I' for Inactive)
REMARK    1  A    between atoms: C6_6  and  C8_8 
REMARK    2  A    between atoms: C8_8  and  S1_9 
REMARK    3  A    between atoms: S1_9  and  C9_10 
REMARK    4  A    between atoms: C10_13  and  N5_16 
REMARK    5  A    between atoms: N3_14  and  N4_15 
REMARK    6  A    between atoms: N5_16  and  N6_17 
REMARK    7  A    between atoms: C11_18  and  C12_19 
ROOT
ATOM      1  C9  <0> d           1.622  -4.015   4.517  0.00  0.00     0.222 A 
ATOM      2  N1  <0> d           0.499  -4.371   5.095  0.00  0.00    -0.106 NA
ATOM      3  N2  <0> d           0.818  -5.055   6.275  0.00  0.00     0.047 NA
ATOM      4  C10 <0> d           2.124  -5.095   6.380  0.00  0.00     0.758 A 
ATOM      5  N3  <0> d           2.655  -4.458   5.292  0.00  0.00    -0.080 N 
ENDROOT
BRANCH   4   6
ATOM      6  N5  <0> d           2.842  -5.685   7.410  0.00  0.00    -0.105 N 
ATOM      7  H12 <0> d           3.812  -5.663   7.400  0.00  0.00     0.208 HD
BRANCH   6   8
ATOM      8  N6  <0> d           2.167  -6.313   8.465  0.00  0.00    -0.172 NA
ATOM      9  C11 <0> d           2.838  -6.865   9.429  0.00  0.00     0.150 C 
BRANCH   9  10
ATOM     10  C12 <0> d           2.127  -7.525  10.539  0.00  0.00    -0.016 A 
ATOM     11  C17 <0> d           2.847  -8.121  11.578  0.00  0.00     0.032 A 
ATOM     12  C16 <0> d           2.174  -8.732  12.616  0.00  0.00     0.011 A 
ATOM     13  C15 <0> d           0.790  -8.767  12.623  0.00  0.00     0.019 A 
ATOM     14 Br1  <0> d           3.145  -9.532  14.028  0.00  0.00    -0.051 Br
ATOM     15  C14 <0> d           0.072  -8.184  11.594  0.00  0.00     0.002 A 
ATOM     16  C13 <0> d           0.731  -7.564  10.553  0.00  0.00     0.013 A 
ENDBRANCH   9  10
ENDBRANCH   6   8
ENDBRANCH   4   6
BRANCH   5  17
ATOM     17  N4  <0> d           3.985  -4.292   5.029  0.00  0.00    -0.226 NA
ATOM     18  H10 <0> d           4.329  -3.434   5.435  0.00  0.00     0.144 HD
ATOM     19  H11 <0> d           4.519  -5.085   5.352  0.00  0.00     0.144 HD
ENDBRANCH   5  17
BRANCH   1  20
ATOM     20  S1  <0> d           1.770  -3.127   3.002  0.00  0.00    -0.084 SA
BRANCH  20  21
ATOM     21  C8  <0> d           0.054  -2.845   2.489  0.00  0.00     0.121 C 
BRANCH  21  22
ATOM     22  C6  <0> d           0.037  -2.084   1.188  0.00  0.00    -0.048 A 
ATOM     23  C5  <0> d           0.040  -2.768  -0.013  0.00  0.00     0.008 A 
ATOM     24  C4  <0> d           0.025  -2.071  -1.207  0.00  0.00     0.001 A 
ATOM     25  C3  <0> d           0.006  -0.689  -1.199  0.00  0.00     0.007 A 
ATOM     26  C2  <0> d           0.002  -0.004   0.002  0.00  0.00    -0.061 A 
ATOM     27  C1  <0> d          -0.018   1.503   0.010  0.00  0.00     0.048 C 
ATOM     28  C7  <0> d           0.023  -0.702   1.195  0.00  0.00     0.014 A 
ENDBRANCH  21  22
ENDBRANCH  20  21
ENDBRANCH   1  20
TORSDOF 7
