REMARK  3 active torsions:
REMARK  status: ('A' for Active; 'I' for Inactive)
REMARK    1  A    between atoms: C9_10  and  N1_11 
REMARK       I    between atoms: N1_11  and  C10_12 
REMARK       I    between atoms: C10_12  and  N2_14 
REMARK    2  A    between atoms: N2_14  and  C12_16 
REMARK    3  A    between atoms: C12_16  and  C13_17 
ROOT
ATOM      1  N1  <0> d          -2.505  -3.298  -0.964  0.00  0.00    -0.334 N 
ATOM      2  C10 <0> d          -3.667  -2.732  -0.582  0.00  0.00     0.318 C 
ATOM      3  O2  <0> d          -3.796  -2.314   0.552  0.00  0.00    -0.247 OA
ATOM      4  N2  <0> d          -4.686  -2.630  -1.458  0.00  0.00    -0.334 N 
ATOM      5  C11 <0> d          -4.531  -3.134  -2.825  0.00  0.00     0.154 C 
ATOM      6  H10 <0> d          -2.401  -3.631  -1.869  0.00  0.00     0.165 HD
ENDROOT
BRANCH   1   7
ATOM      7  C9  <0> d          -1.397  -3.409  -0.012  0.00  0.00     0.122 C 
ATOM      8  C4  <0> d          -0.602  -2.129  -0.007  0.00  0.00    -0.003 A 
ATOM      9  C3  <0> d          -1.081  -0.806   0.003  0.00  0.00     0.044 A 
ATOM     10  C5  <0> d           0.745  -2.064  -0.011  0.00  0.00     0.062 A 
ATOM     11  C2  <0> d           0.002  -0.004   0.002  0.00  0.00     0.050 A 
ATOM     12  C1  <0> d          -0.018   1.503   0.010  0.00  0.00     0.076 C 
ATOM     13  O1  <0> d           1.104  -0.775  -0.013  0.00  0.00    -0.319 OA
ATOM     14  C6  <0> d           1.646  -3.276  -0.019  0.00  0.00     0.074 C 
ATOM     15  C7  <0> d           0.818  -4.497   0.398  0.00  0.00    -0.040 C 
ATOM     16  C8  <0> d          -0.466  -4.554  -0.433  0.00  0.00     0.039 C 
ATOM     17  C17 <0> d           0.461  -4.389   1.882  0.00  0.00     0.015 C 
ATOM     18  C18 <0> d           1.634  -5.770   0.162  0.00  0.00     0.015 C 
ENDBRANCH   1   7
BRANCH   4  19
ATOM     19  C12 <0> d          -5.950  -2.016  -1.043  0.00  0.00     0.168 C 
BRANCH  19  20
ATOM     20  C13 <0> d          -5.901  -0.534  -1.314  0.00  0.00    -0.004 A 
ATOM     21  C15 <0> d          -6.285   0.079  -2.458  0.00  0.00     0.122 A 
ATOM     22  N4  <0> d          -6.087   1.405  -2.300  0.00  0.00    -0.285 N 
ATOM     23  N3  <0> d          -5.555   1.612  -1.021  0.00  0.00    -0.185 NA
ATOM     24  C16 <0> d          -6.372   2.443  -3.293  0.00  0.00     0.179 C 
ATOM     25  C14 <0> d          -5.443   0.449  -0.431  0.00  0.00     0.149 A 
ENDBRANCH  19  20
ENDBRANCH   4  19
TORSDOF 3
