REMARK  6 active torsions:
REMARK  status: ('A' for Active; 'I' for Inactive)
REMARK    1  A    between atoms: C2_2  and  S1_3 
REMARK    2  A    between atoms: S1_3  and  C3_4 
REMARK    3  A    between atoms: C4_5  and  C8_10 
REMARK       I    between atoms: C8_10  and  N2_12 
REMARK    4  A    between atoms: C10_14  and  C17_22 
REMARK       I    between atoms: C17_22  and  N4_24 
REMARK    5  A    between atoms: N4_24  and  C18_25 
REMARK    6  A    between atoms: C18_25  and  C19_26 
ROOT
ATOM      1  C8  <0> d           2.269  -2.359   3.606  0.00  0.00     0.256 C 
ATOM      2  O1  <0> d           2.467  -1.168   3.752  0.00  0.00    -0.267 OA
ATOM      3  N2  <0> d           2.675  -3.230   4.551  0.00  0.00    -0.346 N 
ATOM      4  C9  <0> d           2.620  -4.710   4.505  0.00  0.00     0.141 C 
ATOM      5  C10 <0> d           3.943  -5.170   5.158  0.00  0.00     0.106 C 
ATOM      6  C11 <0> d           4.369  -3.994   6.053  0.00  0.00    -0.007 C 
ATOM      7  C12 <0> d           3.284  -2.924   5.868  0.00  0.00     0.136 C 
ATOM      8  C13 <0> d           5.721  -3.450   5.603  0.00  0.00     0.039 C 
ATOM      9  C14 <0> d           6.149  -2.319   6.544  0.00  0.00     0.233 C 
ATOM     10  N3  <0> d           6.237  -2.830   7.917  0.00  0.00    -0.075 N 
ATOM     11  C15 <0> d           4.912  -3.266   8.375  0.00  0.00     0.233 C 
ATOM     12  C16 <0> d           4.432  -4.436   7.512  0.00  0.00     0.039 C 
ATOM     13  H19 <0> d           6.875  -3.611   7.944  0.00  0.00     0.277 HD
ATOM     14  H36 <0> d           6.578  -2.100   8.525  0.00  0.00     0.277 HD
ENDROOT
BRANCH   5  15
ATOM     15  C17 <0> d           4.986  -5.432   4.101  0.00  0.00     0.224 C 
ATOM     16  O2  <0> d           4.966  -4.807   3.062  0.00  0.00    -0.273 OA
ATOM     17  N4  <0> d           5.940  -6.360   4.312  0.00  0.00    -0.358 N 
ATOM     18  H24 <0> d           5.956  -6.859   5.143  0.00  0.00     0.162 HD
BRANCH  17  19
ATOM     19  C18 <0> d           6.954  -6.614   3.285  0.00  0.00     0.156 C 
BRANCH  19  20
ATOM     20  C19 <0> d           7.910  -7.705   3.772  0.00  0.00     0.167 C 
ATOM     21  O3  <0> d           8.552  -7.276   4.975  0.00  0.00    -0.381 OA
ATOM     22  C22 <0> d           9.494  -8.219   5.494  0.00  0.00     0.198 C 
ATOM     23  C21 <0> d          10.570  -8.489   4.439  0.00  0.00     0.298 C 
ATOM     24  N5  <0> d           9.931  -8.963   3.203  0.00  0.00     0.088 N 
ATOM     25  C20 <0> d           8.970  -7.971   2.700  0.00  0.00     0.305 C 
ATOM     26  C23 <0> d          10.935  -9.289   2.182  0.00  0.00     0.310 C 
ENDBRANCH  19  20
ENDBRANCH  17  19
ENDBRANCH   5  15
BRANCH   1  27
ATOM     27  C4  <0> d           1.585  -2.850   2.397  0.00  0.00     0.067 A 
ATOM     28  C3  <0> d           1.791  -2.225   1.153  0.00  0.00     0.108 A 
ATOM     29  N1  <0> d           1.170  -2.668   0.071  0.00  0.00    -0.253 NA
ATOM     30  C7  <0> d           0.353  -3.703   0.113  0.00  0.00     0.118 A 
ATOM     31  C6  <0> d           0.100  -4.368   1.300  0.00  0.00     0.020 A 
ATOM     32  C5  <0> d           0.718  -3.946   2.464  0.00  0.00     0.021 A 
BRANCH  28  33
ATOM     33  S1  <0> d           2.877  -0.842   1.037  0.00  0.00    -0.110 SA
BRANCH  33  34
ATOM     34  C2  <0> d           2.817  -0.384  -0.717  0.00  0.00     0.076 C 
ATOM     35  C1  <0> d           3.728   0.821  -0.961  0.00  0.00     0.016 C 
ENDBRANCH  33  34
ENDBRANCH  28  33
ENDBRANCH   1  27
TORSDOF 6
