REMARK  3 active torsions:
REMARK  status: ('A' for Active; 'I' for Inactive)
REMARK    1  A    between atoms: N1_10  and  C10_13 
REMARK    2  A    between atoms: C10_13  and  C11_14 
REMARK    3  A    between atoms: C11_14  and  C12_15 
ROOT
ATOM      1  C1  <0> d          -0.018   1.503   0.010  0.00  0.00     0.070 C 
ATOM      2  C2  <0> d           0.002  -0.004   0.002  0.00  0.00     0.032 A 
ATOM      3  C3  <0> d           0.006  -0.686  -1.205  0.00  0.00     0.028 A 
ATOM      4  C4  <0> d           0.024  -2.062  -1.225  0.00  0.00     0.019 A 
ATOM      5  C5  <0> d           0.040  -2.766   0.003  0.00  0.00     0.030 A 
ATOM      6  C6  <0> d           0.060  -4.225   0.204  0.00  0.00     0.093 A 
ATOM      7  C7  <0> d           0.072  -4.658   1.527  0.00  0.00     0.105 A 
ATOM      8  C8  <0> d           0.091  -6.024   1.844  0.00  0.00     0.268 A 
ATOM      9  O1  <0> d           0.101  -6.399   3.004  0.00  0.00    -0.266 OA
ATOM     10  N1  <0> d           0.097  -6.914   0.823  0.00  0.00    -0.307 N 
ATOM     11  C9  <0> d           0.085  -6.457  -0.455  0.00  0.00     0.213 A 
ATOM     12  N2  <0> d           0.068  -5.196  -0.754  0.00  0.00    -0.241 NA
ATOM     13  S1  <0> d           0.056  -3.171   2.491  0.00  0.00    -0.062 SA
ATOM     14  C15 <0> d           0.035  -1.982   1.172  0.00  0.00     0.111 A 
ATOM     15  N5  <0> d           0.022  -0.666   1.143  0.00  0.00    -0.246 NA
ENDROOT
BRANCH  10  16
ATOM     16  C10 <0> d           0.117  -8.353   1.096  0.00  0.00     0.139 C 
BRANCH  16  17
ATOM     17  C11 <0> d          -1.318  -8.873   1.198  0.00  0.00     0.079 C 
BRANCH  17  18
ATOM     18  C12 <0> d          -1.297 -10.354   1.478  0.00  0.00     0.027 A 
ATOM     19  N4  <0> d          -1.378 -10.928   2.688  0.00  0.00    -0.355 N 
ATOM     20  C14 <0> d          -1.332 -12.225   2.552  0.00  0.00     0.180 A 
ATOM     21  H14 <0> d          -1.460 -10.454   3.530  0.00  0.00     0.166 HD
ATOM     22  N3  <0> d          -1.210 -12.519   1.239  0.00  0.00    -0.360 N 
ATOM     23  C13 <0> d          -1.188 -11.332   0.559  0.00  0.00     0.114 A 
ATOM     24  H1  <0> d          -1.150 -13.406   0.851  0.00  0.00     0.166 HD
ENDBRANCH  17  18
ENDBRANCH  16  17
ENDBRANCH  10  16
TORSDOF 3
