REMARK  7 active torsions:
REMARK  status: ('A' for Active; 'I' for Inactive)
REMARK    1  A    between atoms: C6_6  and  O1_9 
REMARK    2  A    between atoms: O1_9  and  C9_10 
REMARK    3  A    between atoms: C9_10  and  C11_12 
REMARK       I    between atoms: C11_12  and  N1_14 
REMARK    4  A    between atoms: N1_14  and  N2_15 
REMARK       I    between atoms: N2_15  and  C12_16 
REMARK       I    between atoms: C12_16  and  N3_18 
REMARK    5  A    between atoms: N3_18  and  C13_19 
REMARK    6  A    between atoms: C13_19  and  C14_20 
REMARK    7  A    between atoms: C17_23  and  N5_26 
ROOT
ATOM      1  N2  <0> d          -1.804  -6.533   4.670  0.00  0.00    -0.249 N 
ATOM      2  C12 <0> d          -2.017  -7.857   4.803  0.00  0.00     0.335 C 
ATOM      3  O3  <0> d          -2.654  -8.278   5.750  0.00  0.00    -0.246 OA
ATOM      4  N3  <0> d          -1.524  -8.714   3.888  0.00  0.00    -0.337 N 
ATOM      5  H15 <0> d          -2.159  -5.916   5.329  0.00  0.00     0.192 HD
ATOM      6  H16 <0> d          -1.016  -8.378   3.133  0.00  0.00     0.164 HD
ENDROOT
BRANCH   1   7
ATOM      7  N1  <0> d          -1.071  -6.047   3.580  0.00  0.00    -0.264 N 
ATOM      8  C11 <0> d          -0.858  -4.723   3.446  0.00  0.00     0.265 C 
ATOM      9  O2  <0> d          -1.302  -3.952   4.271  0.00  0.00    -0.269 OA
ATOM     10  H14 <0> d          -0.716  -6.664   2.921  0.00  0.00     0.190 HD
BRANCH   8  11
ATOM     11  C9  <0> d          -0.070  -4.201   2.274  0.00  0.00     0.218 C 
ATOM     12  C10 <0> d           1.338  -4.801   2.298  0.00  0.00     0.050 C 
BRANCH  11  13
ATOM     13  O1  <0> d           0.018  -2.777   2.354  0.00  0.00    -0.336 OA
BRANCH  13  14
ATOM     14  C6  <0> d           0.207  -2.103   1.189  0.00  0.00     0.076 A 
ATOM     15  C5  <0> d           0.414  -2.801   0.009  0.00  0.00     0.037 A 
ATOM     16  C4  <0> d           0.606  -2.114  -1.174  0.00  0.00     0.003 A 
ATOM     17  C3  <0> d           0.590  -0.732  -1.182  0.00  0.00     0.007 A 
ATOM     18  C2  <0> d           0.384  -0.033  -0.007  0.00  0.00    -0.053 A 
ATOM     19  C1  <0> d           0.367   1.474  -0.019  0.00  0.00     0.049 C 
ATOM     20  C7  <0> d           0.198  -0.716   1.180  0.00  0.00    -0.023 A 
ATOM     21  C8  <0> d          -0.021   0.046   2.462  0.00  0.00     0.052 C 
ENDBRANCH  13  14
ENDBRANCH  11  13
ENDBRANCH   8  11
ENDBRANCH   1   7
BRANCH   4  22
ATOM     22  C13 <0> d          -1.755 -10.154   4.032  0.00  0.00     0.164 C 
BRANCH  22  23
ATOM     23  C14 <0> d          -1.105 -10.885   2.886  0.00  0.00    -0.025 A 
ATOM     24  C18 <0> d           0.201 -11.320   2.989  0.00  0.00     0.098 A 
ATOM     25  N4  <0> d           0.779 -11.967   1.993  0.00  0.00    -0.352 N 
ATOM     26  C17 <0> d           0.139 -12.212   0.860  0.00  0.00     0.102 A 
ATOM     27  H28 <0> d           1.696 -12.266   2.093  0.00  0.00     0.166 HD
ATOM     28  C16 <0> d          -1.178 -11.796   0.686  0.00  0.00     0.049 A 
ATOM     29  C15 <0> d          -1.811 -11.121   1.714  0.00  0.00     0.014 A 
BRANCH  26  30
ATOM     30  N5  <0> d           0.788 -12.891  -0.164  0.00  0.00    -0.376 N 
ATOM     31  C19 <0> d           0.128 -13.065  -1.460  0.00  0.00     0.150 C 
ATOM     32  C20 <0> d           2.132 -13.432   0.052  0.00  0.00     0.150 C 
ENDBRANCH  26  30
ENDBRANCH  22  23
ENDBRANCH   4  22
TORSDOF 7
