REMARK  6 active torsions:
REMARK  status: ('A' for Active; 'I' for Inactive)
REMARK    1  A    between atoms: C2_2  and  N1_3 
REMARK       I    between atoms: N1_3  and  C3_4 
REMARK    2  A    between atoms: C3_4  and  C4_6 
REMARK    3  A    between atoms: C4_6  and  N2_8 
REMARK    4  A    between atoms: N2_8  and  C6_9 
REMARK    5  A    between atoms: C6_9  and  C16_19 
REMARK    6  A    between atoms: C11_14  and  C12_15 
ROOT
ATOM      1  C6  <0> d           1.478  -6.411  -3.981  0.00  0.00     0.217 C 
ATOM      2  C7  <0> d           1.121  -5.867  -5.366  0.00  0.00     0.055 C 
ATOM      3  C8  <0> d          -0.382  -6.027  -5.605  0.00  0.00    -0.016 C 
ATOM      4  C9  <0> d          -0.755  -7.508  -5.528  0.00  0.00     0.005 C 
ATOM      5  C10 <0> d          -0.399  -8.053  -4.143  0.00  0.00     0.008 C 
ATOM      6  C11 <0> d           1.104  -7.893  -3.904  0.00  0.00     0.036 C 
ATOM      7  C15 <0> d          -1.154  -5.250  -4.537  0.00  0.00     0.010 C 
ENDROOT
BRANCH   1   8
ATOM      8  N2  <0> d           0.736  -5.665  -2.956  0.00  0.00    -0.043 N 
ATOM      9  H13 <0> d           0.865  -6.108  -2.058  0.00  0.00     0.279 HD
ATOM     10  H30 <0> d          -0.245  -5.658  -3.189  0.00  0.00     0.279 HD
BRANCH   8  11
ATOM     11  C4  <0> d           1.236  -4.285  -2.897  0.00  0.00     0.274 C 
ATOM     12  C5  <0> d           0.060  -3.324  -2.716  0.00  0.00     0.050 C 
BRANCH  11  13
ATOM     13  C3  <0> d           2.184  -4.143  -1.734  0.00  0.00     0.248 C 
ATOM     14  N1  <0> d           2.769  -2.956  -1.482  0.00  0.00    -0.360 N 
ATOM     15  H9  <0> d           2.581  -2.192  -2.050  0.00  0.00     0.162 HD
ATOM     16  O1  <0> d           2.419  -5.098  -1.023  0.00  0.00    -0.271 OA
BRANCH  14  17
ATOM     17  C2  <0> d           3.690  -2.818  -0.351  0.00  0.00     0.118 C 
ATOM     18  C1  <0> d           4.211  -1.380  -0.290  0.00  0.00     0.026 C 
ENDBRANCH  14  17
ENDBRANCH  11  13
ENDBRANCH   8  11
ENDBRANCH   1   8
BRANCH   1  19
ATOM     19  C16 <0> d           2.958  -6.254  -3.745  0.00  0.00     0.211 C 
ATOM     20  O2  <0> d           3.361  -5.456  -2.916  0.00  0.00    -0.646 OA
ATOM     21  O3  <0> d           3.751  -6.924  -4.384  0.00  0.00    -0.646 OA
ENDBRANCH   1  19
BRANCH   6  22
ATOM     22  C12 <0> d           1.460  -8.438  -2.519  0.00  0.00    -0.016 C 
ATOM     23  C13 <0> d           0.934  -9.867  -2.382  0.00  0.00     0.010 C 
ATOM     24  C14 <0> d           2.981  -8.435  -2.346  0.00  0.00     0.010 C 
ENDBRANCH   6  22
TORSDOF 6
