REMARK  3 active torsions:
REMARK  status: ('A' for Active; 'I' for Inactive)
REMARK    1  A    between atoms: C5_8  and  N4_11 
REMARK    2  A    between atoms: N4_11  and  C8_12 
REMARK    3  A    between atoms: C8_12  and  C9_13 
ROOT
ATOM      1  N4  <0> d           0.282  -1.396   4.744  0.00  0.00    -0.065 N 
ATOM      2  H11 <0> d           0.757  -0.543   4.997  0.00  0.00     0.278 HD
ATOM      3  H23 <0> d          -0.705  -1.299   4.931  0.00  0.00     0.278 HD
ENDROOT
BRANCH   1   4
ATOM      4  C5  <0> d           0.485  -1.664   3.314  0.00  0.00     0.205 C 
ATOM      5  C4  <0> d           0.035  -0.447   2.498  0.00  0.00     0.164 C 
ATOM      6  N3  <0> d           0.023  -0.810   1.081  0.00  0.00    -0.319 N 
ATOM      7  C2  <0> d           0.002  -0.004   0.002  0.00  0.00     0.126 A 
ATOM      8  C3  <0> d           0.031  -2.082   0.606  0.00  0.00     0.130 A 
ATOM      9  C1  <0> d          -0.018   1.503   0.010  0.00  0.00     0.093 C 
ATOM     10  N1  <0> d           0.008  -0.776  -1.054  0.00  0.00    -0.135 NA
ATOM     11  N2  <0> d           0.026  -2.012  -0.690  0.00  0.00    -0.135 NA
ATOM     12  C7  <0> d           0.048  -3.310   1.481  0.00  0.00     0.082 C 
ATOM     13  C6  <0> d          -0.336  -2.890   2.904  0.00  0.00     0.042 C 
ENDBRANCH   1   4
BRANCH   1  14
ATOM     14  C8  <0> d           0.822  -2.511   5.533  0.00  0.00     0.274 C 
BRANCH  14  15
ATOM     15  C9  <0> d           0.614  -2.236   7.000  0.00  0.00     0.004 A 
ATOM     16  C14 <0> d          -0.620  -2.469   7.582  0.00  0.00     0.110 A 
ATOM     17  C13 <0> d          -0.809  -2.220   8.935  0.00  0.00     0.102 A 
ATOM     18  O1  <0> d          -1.655  -2.949   6.834  0.00  0.00    -0.348 OA
ATOM     19  C12 <0> d           0.233  -1.728   9.701  0.00  0.00     0.040 A 
ATOM     20  O2  <0> d          -2.028  -2.458   9.501  0.00  0.00    -0.348 OA
ATOM     21  C11 <0> d           1.464  -1.490   9.115  0.00  0.00     0.003 A 
ATOM     22  C10 <0> d           1.653  -1.744   7.769  0.00  0.00     0.012 A 
ATOM     23  C17 <0> d          -2.425  -3.818   9.593  0.00  0.00     0.178 C 
ATOM     24  C16 <0> d          -3.060  -4.287   8.294  0.00  0.00     0.053 C 
ATOM     25  C15 <0> d          -2.078  -4.281   7.133  0.00  0.00     0.178 C 
ENDBRANCH  14  15
ENDBRANCH   1  14
TORSDOF 3
