REMARK  5 active torsions:
REMARK  status: ('A' for Active; 'I' for Inactive)
REMARK    1  A    between atoms: C4_8  and  C5_10 
REMARK    2  A    between atoms: C5_10  and  N5_11 
REMARK    3  A    between atoms: N5_11  and  S2_12 
REMARK    4  A    between atoms: S2_12  and  C6_15 
REMARK    5  A    between atoms: C9_18  and  N6_21 
ROOT
ATOM      1  S2  <0> d          -0.299  -0.323   6.931  0.00  0.00     0.259 S 
ATOM      2  O1  <0> d          -0.215   1.070   7.200  0.00  0.00    -0.201 OA
ATOM      3  O2  <0> d          -1.481  -1.075   7.171  0.00  0.00    -0.201 OA
ENDROOT
BRANCH   1   4
ATOM      4  N5  <0> d           0.070  -0.519   5.329  0.00  0.00    -0.309 N 
ATOM      5  H6  <0> d           0.269   0.254   4.779  0.00  0.00     0.172 HD
BRANCH   4   6
ATOM      6  C5  <0> d           0.095  -1.861   4.742  0.00  0.00     0.201 C 
BRANCH   6   7
ATOM      7  C4  <0> d           0.086  -1.753   3.239  0.00  0.00     0.117 A 
ATOM      8  N4  <0> d           0.062  -0.685   2.498  0.00  0.00    -0.159 NA
ATOM      9  N3  <0> d           0.058  -0.766   1.112  0.00  0.00    -0.191 N 
ATOM     10  C2  <0> d           0.037   0.060   0.007  0.00  0.00     0.148 A 
ATOM     11  C3  <0> d           0.078  -2.029   0.572  0.00  0.00     0.218 A 
ATOM     12  C1  <0> d           0.007   1.567   0.029  0.00  0.00     0.095 C 
ATOM     13  N1  <0> d           0.054  -0.690  -1.059  0.00  0.00    -0.133 NA
ATOM     14  N2  <0> d           0.078  -1.933  -0.723  0.00  0.00    -0.120 NA
ATOM     15  S1  <0> d           0.097  -3.058   2.019  0.00  0.00    -0.030 SA
ENDBRANCH   6   7
ENDBRANCH   4   6
ENDBRANCH   1   4
BRANCH   1  16
ATOM     16  C6  <0> d           0.985  -1.094   7.859  0.00  0.00     0.079 A 
ATOM     17  C11 <0> d           2.097  -0.363   8.237  0.00  0.00     0.027 A 
ATOM     18  C10 <0> d           3.103  -0.963   8.969  0.00  0.00     0.031 A 
ATOM     19  C9  <0> d           3.002  -2.304   9.317  0.00  0.00     0.037 A 
ATOM     20  C8  <0> d           1.886  -3.036   8.932  0.00  0.00     0.031 A 
ATOM     21  C7  <0> d           0.881  -2.429   8.204  0.00  0.00     0.027 A 
BRANCH  19  22
ATOM     22  N6  <0> d           4.021  -2.916  10.055  0.00  0.00    -0.318 N 
ATOM     23  C15 <0> d           3.964  -4.171  10.532  0.00  0.00     0.224 C 
ATOM     24  C14 <0> d           5.234  -4.500  11.284  0.00  0.00     0.105 C 
ATOM     25  O3  <0> d           3.030  -4.930  10.379  0.00  0.00    -0.273 OA
ATOM     26  C13 <0> d           5.881  -3.122  11.554  0.00  0.00     0.029 C 
ATOM     27  C12 <0> d           5.288  -2.267  10.413  0.00  0.00     0.133 C 
ENDBRANCH  19  22
ENDBRANCH   1  16
TORSDOF 5
