REMARK  2 active torsions:
REMARK  status: ('A' for Active; 'I' for Inactive)
REMARK    1  A    between atoms: C7_9  and  S2_14 
REMARK    2  A    between atoms: S2_14  and  N2_17 
ROOT
ATOM      1  C1  <0> d           7.991  -7.338  -6.926  0.00  0.00     0.022 C 
ATOM      2  C2  <0> d           7.596  -5.879  -6.686  0.00  0.00     0.057 C 
ATOM      3  C3  <0> d           8.409  -5.304  -5.513  0.00  0.00     0.118 C 
ATOM      4  C4  <0> d           7.852  -5.782  -4.205  0.00  0.00     0.223 C 
ATOM      5  O1  <0> d           8.264  -6.816  -3.725  0.00  0.00    -0.273 OA
ATOM      6  N1  <0> d           6.908  -5.088  -3.557  0.00  0.00    -0.326 N 
ATOM      7  C5  <0> d           6.258  -4.016  -4.188  0.00  0.00     0.053 A 
ATOM      8  C6  <0> d           6.168  -2.781  -3.569  0.00  0.00     0.056 A 
ATOM      9  C7  <0> d           5.522  -1.738  -4.209  0.00  0.00     0.082 A 
ATOM     10  C8  <0> d           4.976  -1.921  -5.466  0.00  0.00     0.027 A 
ATOM     11  C9  <0> d           5.065  -3.151  -6.093  0.00  0.00     0.022 A 
ATOM     12  C10 <0> d           5.706  -4.200  -5.454  0.00  0.00     0.027 A 
ATOM     13  S1  <0> d           5.833  -5.781  -6.227  0.00  0.00    -0.123 SA
ATOM     14  H7  <0> d           6.672  -5.327  -2.647  0.00  0.00     0.169 HD
ENDROOT
BRANCH   9  15
ATOM     15  S2  <0> d           5.400  -0.167  -3.421  0.00  0.00     0.260 S 
ATOM     16  O2  <0> d           5.233   0.794  -4.455  0.00  0.00    -0.200 OA
ATOM     17  O3  <0> d           6.465  -0.100  -2.483  0.00  0.00    -0.200 OA
BRANCH  15  18
ATOM     18  N2  <0> d           3.995  -0.167  -2.544  0.00  0.00    -0.306 N 
ATOM     19  C15 <0> d           2.736   0.287  -3.148  0.00  0.00     0.140 C 
ATOM     20  C14 <0> d           2.127   1.377  -2.259  0.00  0.00     0.089 C 
ATOM     21  C13 <0> d           1.988   0.846  -0.831  0.00  0.00     0.167 C 
ATOM     22  C12 <0> d           3.365   0.477  -0.276  0.00  0.00     0.089 C 
ATOM     23  O5  <0> d           1.142  -0.310  -0.827  0.00  0.00    -0.353 OA
ATOM     24  O4  <0> d           1.395   1.858  -0.001  0.00  0.00    -0.353 OA
ATOM     25  C11 <0> d           3.986  -0.620  -1.146  0.00  0.00     0.140 C 
ATOM     26  C17 <0> d           0.002  -0.004   0.002  0.00  0.00     0.197 C 
ATOM     27  C16 <0> d          -0.019   1.545   0.011  0.00  0.00     0.197 C 
ENDBRANCH  15  18
ENDBRANCH   9  15
TORSDOF 2
