REMARK  5 active torsions:
REMARK  status: ('A' for Active; 'I' for Inactive)
REMARK    1  A    between atoms: C4_4  and  N1_9 
REMARK    2  A    between atoms: N1_9  and  S1_11 
REMARK    3  A    between atoms: S1_11  and  C9_14 
REMARK    4  A    between atoms: C9_14  and  C10_15 
REMARK    5  A    between atoms: C10_15  and  N2_16 
ROOT
ATOM      1  N1  <0> d          -0.751   1.822   1.438  0.00  0.00    -0.280 N 
ATOM      2  C8  <0> d          -1.741   0.921   2.033  0.00  0.00     0.169 C 
ENDROOT
BRANCH   1   3
ATOM      3  C4  <0> d          -0.398   3.004   2.094  0.00  0.00     0.044 A 
ATOM      4  C3  <0> d           0.122   2.957   3.381  0.00  0.00     0.038 A 
ATOM      5  C2  <0> d           0.470   4.127   4.027  0.00  0.00    -0.042 A 
ATOM      6  C1  <0> d           1.033   4.077   5.424  0.00  0.00     0.049 C 
ATOM      7  C7  <0> d           0.301   5.345   3.393  0.00  0.00     0.017 A 
ATOM      8  C6  <0> d          -0.217   5.395   2.111  0.00  0.00     0.022 A 
ATOM      9 Br1  <0> d           0.778   6.945   4.281  0.00  0.00    -0.051 Br
ATOM     10  C5  <0> d          -0.561   4.228   1.458  0.00  0.00     0.031 A 
ENDBRANCH   1   3
BRANCH   1  11
ATOM     11  S1  <0> d          -0.049   1.438  -0.012  0.00  0.00     0.234 S 
ATOM     12  O1  <0> d           0.007   0.019  -0.024  0.00  0.00    -0.205 OA
ATOM     13  O2  <0> d           1.142   2.212  -0.054  0.00  0.00    -0.205 OA
BRANCH  11  14
ATOM     14  C9  <0> d          -1.220   2.027  -1.266  0.00  0.00     0.191 C 
BRANCH  14  15
ATOM     15  C10 <0> d          -0.669   1.723  -2.661  0.00  0.00     0.246 C 
BRANCH  15  16
ATOM     16  N2  <0> d          -1.618   2.200  -3.677  0.00  0.00    -0.078 N 
ATOM     17  H14 <0> d          -1.222   1.981  -4.679  0.00  0.00     0.274 HD
ATOM     18  H15 <0> d          -1.758   3.285  -3.567  0.00  0.00     0.274 HD
ATOM     19  H16 <0> d          -2.583   1.690  -3.545  0.00  0.00     0.274 HD
ENDBRANCH  15  16
ENDBRANCH  14  15
ENDBRANCH  11  14
ENDBRANCH   1  11
TORSDOF 5
