REMARK  7 active torsions:
REMARK  status: ('A' for Active; 'I' for Inactive)
REMARK    1  A    between atoms: N1_2  and  C3_4 
REMARK    2  A    between atoms: C4_5  and  C8_10 
REMARK    3  A    between atoms: C8_10  and  N3_11 
REMARK       I    between atoms: N3_11  and  C9_12 
REMARK    4  A    between atoms: C9_12  and  C10_14 
REMARK       I    between atoms: C10_14  and  N4_16 
REMARK    5  A    between atoms: N4_16  and  C11_17 
REMARK    6  A    between atoms: C15_21  and  C17_23 
REMARK    7  A    between atoms: C17_23  and  O4_25 
ROOT
ATOM      1  N3  <0> d          -1.586  -2.888   0.526  0.00  0.00    -0.349 N 
ATOM      2  C9  <0> d          -1.917  -3.528   1.666  0.00  0.00     0.309 C 
ATOM      3  O1  <0> d          -1.056  -4.065   2.332  0.00  0.00    -0.262 OA
ATOM      4  H12 <0> d          -2.274  -2.459  -0.006  0.00  0.00     0.163 HD
ENDROOT
BRANCH   2   5
ATOM      5  C10 <0> d          -3.343  -3.575   2.108  0.00  0.00     0.313 C 
ATOM      6  O2  <0> d          -4.203  -3.038   1.442  0.00  0.00    -0.262 OA
ATOM      7  N4  <0> d          -3.673  -4.215   3.248  0.00  0.00    -0.319 N 
ATOM      8  H13 <0> d          -2.998  -4.703   3.744  0.00  0.00     0.169 HD
BRANCH   7   9
ATOM      9  C11 <0> d          -4.990  -4.176   3.714  0.00  0.00     0.036 A 
ATOM     10  C16 <0> d          -5.242  -4.137   5.077  0.00  0.00     0.049 A 
ATOM     11  C15 <0> d          -6.558  -4.092   5.538  0.00  0.00     0.063 A 
ATOM     12  C14 <0> d          -7.614  -4.099   4.622  0.00  0.00     0.050 A 
ATOM     13  C13 <0> d          -7.352  -4.143   3.266  0.00  0.00     0.027 A 
ATOM     14 Cl1  <0> d          -9.255  -4.050   5.189  0.00  0.00    -0.083 Cl
ATOM     15  C12 <0> d          -6.048  -4.182   2.811  0.00  0.00     0.031 A 
BRANCH  11  16
ATOM     16  C17 <0> d          -6.835  -4.045   6.988  0.00  0.00     0.294 C 
ATOM     17  O3  <0> d          -7.981  -4.011   7.387  0.00  0.00    -0.259 OA
BRANCH  16  18
ATOM     18  O4  <0> d          -5.815  -4.039   7.868  0.00  0.00    -0.322 OA
ATOM     19  C18 <0> d          -6.155  -3.992   9.255  0.00  0.00     0.213 C 
ENDBRANCH  16  18
ENDBRANCH  11  16
ENDBRANCH   7   9
ENDBRANCH   2   5
BRANCH   1  20
ATOM     20  C8  <0> d          -0.188  -2.841   0.092  0.00  0.00     0.165 C 
BRANCH  20  21
ATOM     21  C4  <0> d          -0.089  -2.072  -1.200  0.00  0.00     0.004 A 
ATOM     22  C3  <0> d          -0.093  -0.681  -1.196  0.00  0.00     0.110 A 
ATOM     23  N2  <0> d          -0.011  -0.003  -2.330  0.00  0.00    -0.352 N 
ATOM     24  C7  <0> d           0.088  -0.614  -3.495  0.00  0.00     0.089 A 
ATOM     25  H20 <0> d          -0.019   0.967  -2.303  0.00  0.00     0.166 HD
ATOM     26  C6  <0> d           0.097  -1.992  -3.574  0.00  0.00     0.018 A 
ATOM     27  C5  <0> d           0.007  -2.740  -2.408  0.00  0.00     0.014 A 
BRANCH  22  28
ATOM     28  N1  <0> d          -0.189   0.003   0.011  0.00  0.00    -0.376 N 
ATOM     29  C1  <0> d          -1.504   0.274   0.596  0.00  0.00     0.150 C 
ATOM     30  C2  <0> d           1.025   0.454   0.696  0.00  0.00     0.150 C 
ENDBRANCH  22  28
ENDBRANCH  20  21
ENDBRANCH   1  20
TORSDOF 7
