REMARK  7 active torsions:
REMARK  status: ('A' for Active; 'I' for Inactive)
REMARK    1  A    between atoms: C7_7  and  C16_19 
REMARK    2  A    between atoms: C8_8  and  N2_12 
REMARK    3  A    between atoms: C13_15  and  O1_18 
REMARK    4  A    between atoms: C16_19  and  N3_20 
REMARK    5  A    between atoms: N3_20  and  C17_21 
REMARK    6  A    between atoms: C17_21  and  C18_22 
REMARK    7  A    between atoms: C18_22  and  C19_23 
ROOT
ATOM      1  C1  <0> d          -0.175   1.367  -0.544  0.00  0.00     0.048 C 
ATOM      2  C2  <0> d          -0.013  -0.129  -0.460  0.00  0.00    -0.060 A 
ATOM      3  C3  <0> d           0.214  -0.860  -1.624  0.00  0.00     0.007 A 
ATOM      4  C4  <0> d           0.365  -2.213  -1.581  0.00  0.00     0.014 A 
ATOM      5  C5  <0> d           0.290  -2.881  -0.349  0.00  0.00    -0.007 A 
ATOM      6  C6  <0> d           0.442  -4.280  -0.265  0.00  0.00     0.026 A 
ATOM      7  C7  <0> d           0.358  -4.866   0.962  0.00  0.00     0.014 A 
ATOM      8  C8  <0> d           0.128  -4.077   2.099  0.00  0.00     0.134 A 
ATOM      9  N1  <0> d          -0.013  -2.770   2.014  0.00  0.00    -0.230 NA
ATOM     10  C9  <0> d           0.059  -2.140   0.836  0.00  0.00     0.070 A 
ATOM     11  C10 <0> d          -0.086  -0.745   0.752  0.00  0.00     0.039 A 
ENDROOT
BRANCH   7  12
ATOM     12  C16 <0> d           0.514  -6.359   1.098  0.00  0.00     0.274 C 
BRANCH  12  13
ATOM     13  N3  <0> d          -0.812  -6.979   1.225  0.00  0.00    -0.071 N 
ATOM     14  H20 <0> d          -1.280  -6.609   2.038  0.00  0.00     0.277 HD
ATOM     15  H34 <0> d          -1.358  -6.777   0.401  0.00  0.00     0.277 HD
BRANCH  13  16
ATOM     16  C17 <0> d          -0.660  -8.433   1.367  0.00  0.00     0.237 C 
BRANCH  16  17
ATOM     17  C18 <0> d          -2.040  -9.080   1.499  0.00  0.00     0.061 C 
BRANCH  17  18
ATOM     18  C19 <0> d          -1.885 -10.572   1.645  0.00  0.00    -0.082 C 
ATOM     19  C24 <0> d          -1.759 -11.392   0.395  0.00  0.00     0.034 C 
ATOM     20  C23 <0> d          -1.189 -12.774   0.728  0.00  0.00     0.005 C 
ATOM     21  C22 <0> d          -1.998 -13.360   1.893  0.00  0.00     0.004 C 
ATOM     22  C21 <0> d          -1.715 -12.527   3.145  0.00  0.00     0.027 C 
ATOM     23  C20 <0> d          -1.873 -11.066   2.841  0.00  0.00    -0.024 C 
ENDBRANCH  17  18
ENDBRANCH  16  17
ENDBRANCH  13  16
ENDBRANCH  12  13
ENDBRANCH   7  12
BRANCH   8  24
ATOM     24  N2  <0> d           0.045  -4.687   3.341  0.00  0.00    -0.365 N 
ATOM     25  C15 <0> d           1.260  -4.978   4.115  0.00  0.00     0.127 C 
ATOM     26  C14 <0> d           1.106  -4.362   5.514  0.00  0.00     0.051 C 
ATOM     27  C13 <0> d          -0.184  -4.879   6.154  0.00  0.00     0.121 C 
ATOM     28  C12 <0> d          -1.383  -4.450   5.306  0.00  0.00     0.051 C 
ATOM     29  C11 <0> d          -1.259  -5.061   3.906  0.00  0.00     0.127 C 
BRANCH  27  30
ATOM     30  O1  <0> d          -0.314  -4.337   7.470  0.00  0.00    -0.395 OA
ATOM     31  H17 <0> d           0.413  -4.569   8.064  0.00  0.00     0.210 HD
ENDBRANCH  27  30
ENDBRANCH   8  24
TORSDOF 7
