REMARK  6 active torsions:
REMARK  status: ('A' for Active; 'I' for Inactive)
REMARK    1  A    between atoms: C2_2  and  C3_3 
REMARK    2  A    between atoms: C3_3  and  C5_5 
REMARK    3  A    between atoms: C3_3  and  N3_18 
REMARK    4  A    between atoms: C5_5  and  N1_6 
REMARK       I    between atoms: N1_6  and  C6_7 
REMARK       I    between atoms: C6_7  and  N2_9 
REMARK    5  A    between atoms: N2_9  and  C7_10 
REMARK    6  A    between atoms: C7_10  and  C8_11 
ROOT
ATOM      1  N1  <0> d          -0.517   1.391   2.427  0.00  0.00    -0.341 N 
ATOM      2  C6  <0> d          -1.372   1.929   3.319  0.00  0.00     0.316 C 
ATOM      3  O1  <0> d          -1.874   1.230   4.178  0.00  0.00    -0.247 OA
ATOM      4  N2  <0> d          -1.672   3.242   3.258  0.00  0.00    -0.343 N 
ATOM      5  H12 <0> d          -0.117   1.949   1.741  0.00  0.00     0.164 HD
ATOM      6  H13 <0> d          -1.272   3.799   2.572  0.00  0.00     0.164 HD
ENDROOT
BRANCH   1   7
ATOM      7  C5  <0> d          -0.191  -0.036   2.493  0.00  0.00     0.165 C 
BRANCH   7   8
ATOM      8  C3  <0> d           0.696  -0.412   1.304  0.00  0.00     0.172 C 
ATOM      9  C4  <0> d           1.094  -1.885   1.411  0.00  0.00     0.051 C 
BRANCH   8  10
ATOM     10  C2  <0> d          -0.075  -0.186   0.002  0.00  0.00     0.038 C 
ATOM     11  C1  <0> d          -1.397  -0.954   0.051  0.00  0.00     0.007 C 
ENDBRANCH   8  10
BRANCH   8  12
ATOM     12  N3  <0> d           1.903   0.424   1.310  0.00  0.00     0.103 N 
ATOM     13  C15 <0> d           2.671   0.233   2.549  0.00  0.00     0.299 C 
ATOM     14  C14 <0> d           3.886   1.164   2.540  0.00  0.00     0.198 C 
ATOM     15  O4  <0> d           4.670   0.905   1.372  0.00  0.00    -0.388 OA
ATOM     16  C13 <0> d           3.954   1.082   0.147  0.00  0.00     0.198 C 
ATOM     17  C12 <0> d           2.740   0.150   0.132  0.00  0.00     0.299 C 
ENDBRANCH   8  12
ENDBRANCH   7   8
ENDBRANCH   1   7
BRANCH   4  18
ATOM     18  C7  <0> d          -2.602   3.826   4.227  0.00  0.00     0.130 C 
BRANCH  18  19
ATOM     19  C8  <0> d          -2.767   5.320   3.938  0.00  0.00     0.018 C 
ATOM     20  C11 <0> d          -3.630   5.965   5.049  0.00  0.00     0.146 C 
ATOM     21  S1  <0> d          -4.510   7.306   4.151  0.00  0.00     0.144 S 
ATOM     22  C10 <0> d          -3.886   6.991   2.446  0.00  0.00     0.141 C 
ATOM     23  O2  <0> d          -5.907   7.046   4.187  0.00  0.00    -0.228 OA
ATOM     24  O3  <0> d          -4.021   8.563   4.597  0.00  0.00    -0.228 OA
ATOM     25  C9  <0> d          -3.450   5.503   2.573  0.00  0.00     0.022 C 
ENDBRANCH  18  19
ENDBRANCH   4  18
TORSDOF 6
