REMARK  7 active torsions:
REMARK  status: ('A' for Active; 'I' for Inactive)
REMARK    1  A    between atoms: C2_2  and  C3_3 
REMARK    2  A    between atoms: C3_3  and  C10_14 
REMARK    3  A    between atoms: N1_6  and  C6_10 
REMARK    4  A    between atoms: C6_10  and  C7_11 
REMARK       I    between atoms: N3_17  and  C15_20 
REMARK    5  A    between atoms: C15_20  and  C16_22 
REMARK    6  A    between atoms: C16_22  and  C17_23 
REMARK    7  A    between atoms: C17_23  and  C18_24 
ROOT
ATOM      1  C10 <0> d           0.823  -2.039   1.231  0.00  0.00     0.026 C 
ATOM      2  C11 <0> d          -0.591  -2.624   1.220  0.00  0.00     0.027 C 
ATOM      3  C12 <0> d          -0.505  -4.153   1.175  0.00  0.00     0.126 C 
ATOM      4  N3  <0> d           0.330  -4.614   2.292  0.00  0.00    -0.352 N 
ATOM      5  C13 <0> d           1.677  -4.046   2.448  0.00  0.00     0.126 C 
ATOM      6  C14 <0> d           1.567  -2.518   2.479  0.00  0.00     0.027 C 
ATOM      7  C15 <0> d          -0.129  -5.539   3.157  0.00  0.00     0.219 C 
ATOM      8  O3  <0> d          -1.242  -6.000   3.018  0.00  0.00    -0.273 OA
ENDROOT
BRANCH   7   9
ATOM      9  C16 <0> d           0.740  -6.001   4.298  0.00  0.00     0.106 C 
BRANCH   9  10
ATOM     10  C17 <0> d          -0.014  -7.046   5.123  0.00  0.00     0.056 C 
BRANCH  10  11
ATOM     11  C18 <0> d           0.869  -7.515   6.282  0.00  0.00     0.182 A 
ATOM     12  N5  <0> d           0.164  -8.533   7.072  0.00  0.00    -0.367 N 
ATOM     13  C24 <0> d           0.873  -9.626   7.019  0.00  0.00     0.059 A 
ATOM     14  H32 <0> d          -0.674  -8.413   7.546  0.00  0.00     0.161 HD
ATOM     15  C19 <0> d           2.086  -9.388   6.190  0.00  0.00     0.056 A 
ATOM     16  C23 <0> d           0.690 -10.961   7.599  0.00  0.00     0.073 A 
ATOM     17  N4  <0> d           2.081  -8.159   5.762  0.00  0.00    -0.367 N 
ATOM     18  C20 <0> d           3.023 -10.506   6.006  0.00  0.00     0.034 A 
ATOM     19  H31 <0> d           2.756  -7.744   5.202  0.00  0.00     0.161 HD
ATOM     20  C21 <0> d           2.761 -11.695   6.583  0.00  0.00     0.044 A 
ATOM     21  C22 <0> d           1.613 -11.921   7.369  0.00  0.00     0.118 A 
ATOM     22  F1  <0> d           1.427 -13.144   7.911  0.00  0.00    -0.206 F 
ENDBRANCH  10  11
ENDBRANCH   9  10
ENDBRANCH   7   9
BRANCH   1  23
ATOM     23  C3  <0> d           0.742  -0.511   1.242  0.00  0.00     0.119 A 
ATOM     24  N2  <0> d           0.082  -0.036   2.470  0.00  0.00    -0.324 N 
ATOM     25  C5  <0> d           0.982   0.723   3.121  0.00  0.00     0.326 A 
ATOM     26  H7  <0> d          -0.825  -0.231   2.753  0.00  0.00     0.165 HD
ATOM     27  N1  <0> d           2.149   0.803   2.472  0.00  0.00    -0.264 N 
ATOM     28  O2  <0> d           0.760   1.274   4.181  0.00  0.00    -0.247 OA
ATOM     29  C4  <0> d           2.127   0.099   1.323  0.00  0.00     0.257 A 
ATOM     30  O1  <0> d           3.028  -0.020   0.520  0.00  0.00    -0.270 OA
BRANCH  23  31
ATOM     31  C2  <0> d           0.002  -0.004   0.002  0.00  0.00     0.037 C 
ATOM     32  C1  <0> d          -0.019   1.526   0.010  0.00  0.00     0.008 C 
ENDBRANCH  23  31
BRANCH  27  33
ATOM     33  C6  <0> d           3.307   1.562   2.951  0.00  0.00     0.169 C 
BRANCH  33  34
ATOM     34  C7  <0> d           3.240   2.970   2.420  0.00  0.00    -0.075 C 
ATOM     35  C8  <0> d           2.710   3.921   3.150  0.00  0.00     0.015 C 
ATOM     36  C9  <0> d           3.781   3.286   1.050  0.00  0.00     0.044 C 
ENDBRANCH  33  34
ENDBRANCH  27  33
ENDBRANCH   1  23
TORSDOF 7
