REMARK  4 active torsions:
REMARK  status: ('A' for Active; 'I' for Inactive)
REMARK    1  A    between atoms: O1_2  and  C2_3 
REMARK    2  A    between atoms: C7_8  and  N1_9 
REMARK       I    between atoms: N1_9  and  C8_10 
REMARK    3  A    between atoms: C8_10  and  C9_12 
REMARK    4  A    between atoms: C13_16  and  N2_18 
ROOT
ATOM      1  C9  <0> d           1.158   3.175  -0.008  0.00  0.00     0.034 A 
ATOM      2  C10 <0> d           1.174   1.779  -0.023  0.00  0.00     0.017 A 
ATOM      3  C11 <0> d          -0.012   1.075  -0.026  0.00  0.00     0.003 A 
ATOM      4  C12 <0> d          -1.220   1.748  -0.021  0.00  0.00     0.031 A 
ATOM      5  C13 <0> d          -1.248   3.137  -0.001  0.00  0.00     0.054 A 
ATOM      6  C14 <0> d          -0.061   3.853   0.003  0.00  0.00     0.048 A 
ENDROOT
BRANCH   1   7
ATOM      7  C8  <0> d           2.428   3.932  -0.004  0.00  0.00     0.256 C 
ATOM      8  N1  <0> d           3.604   3.275  -0.014  0.00  0.00    -0.321 N 
ATOM      9  H8  <0> d           3.620   2.307   0.057  0.00  0.00     0.169 HD
ATOM     10  O2  <0> d           2.411   5.148   0.009  0.00  0.00    -0.267 OA
BRANCH   8  11
ATOM     11  C7  <0> d           4.804   3.988  -0.127  0.00  0.00     0.068 A 
ATOM     12  C2  <0> d           5.990   3.440   0.357  0.00  0.00     0.095 A 
ATOM     13  C3  <0> d           7.174   4.151   0.242  0.00  0.00     0.039 A 
ATOM     14  C4  <0> d           7.177   5.399  -0.351  0.00  0.00     0.003 A 
ATOM     15  C5  <0> d           6.000   5.943  -0.832  0.00  0.00     0.002 A 
ATOM     16  C6  <0> d           4.816   5.239  -0.726  0.00  0.00     0.032 A 
BRANCH  12  17
ATOM     17  O1  <0> d           5.986   2.212   0.940  0.00  0.00    -0.354 OA
ATOM     18  C1  <0> d           7.239   1.714   1.413  0.00  0.00     0.210 C 
ENDBRANCH  12  17
ENDBRANCH   8  11
ENDBRANCH   1   7
BRANCH   5  19
ATOM     19  N2  <0> d          -2.473   3.812   0.010  0.00  0.00    -0.209 N 
ATOM     20  S1  <0> d          -3.930   3.219  -0.564  0.00  0.00     0.240 S 
ATOM     21  C17 <0> d          -4.911   4.776  -0.581  0.00  0.00     0.173 C 
ATOM     22  O4  <0> d          -3.668   2.771  -1.887  0.00  0.00    -0.205 OA
ATOM     23  O5  <0> d          -4.405   2.331   0.438  0.00  0.00    -0.205 OA
ATOM     24  C16 <0> d          -4.084   5.596   0.444  0.00  0.00     0.121 C 
ATOM     25  C15 <0> d          -2.690   5.047   0.487  0.00  0.00     0.238 C 
ATOM     26  O3  <0> d          -1.777   5.706   0.939  0.00  0.00    -0.272 OA
ENDBRANCH   5  19
TORSDOF 4
