REMARK  3 active torsions:
REMARK  status: ('A' for Active; 'I' for Inactive)
REMARK    1  A    between atoms: C7_7  and  N1_8 
REMARK       I    between atoms: N1_8  and  C8_9 
REMARK    2  A    between atoms: C8_9  and  C9_11 
REMARK    3  A    between atoms: C11_13  and  C17_22 
ROOT
ATOM      1  C9  <0> d          -1.337   2.152  -0.571  0.00  0.00     0.050 A 
ATOM      2  C10 <0> d          -1.329   3.250   0.287  0.00  0.00     0.045 A 
ATOM      3  C11 <0> d          -2.457   4.051   0.377  0.00  0.00     0.041 A 
ATOM      4  N2  <0> d          -3.538   3.803  -0.330  0.00  0.00    -0.233 NA
ATOM      5  C12 <0> d          -3.611   2.776  -1.164  0.00  0.00     0.159 A 
ATOM      6  C13 <0> d          -2.509   1.911  -1.322  0.00  0.00     0.053 A 
ATOM      7  C14 <0> d          -2.885   0.926  -2.260  0.00  0.00     0.066 A 
ATOM      8  N3  <0> d          -4.104   1.168  -2.650  0.00  0.00    -0.175 NA
ATOM      9  N4  <0> d          -4.593   2.305  -1.996  0.00  0.00    -0.256 N 
ATOM     10  C15 <0> d          -5.924   2.892  -2.172  0.00  0.00     0.182 C 
ATOM     11  C16 <0> d          -2.019  -0.212  -2.735  0.00  0.00     0.073 C 
ENDROOT
BRANCH   1  12
ATOM     12  C8  <0> d          -0.156   1.273  -0.696  0.00  0.00     0.257 C 
ATOM     13  N1  <0> d           1.044   1.797  -1.016  0.00  0.00    -0.322 N 
ATOM     14  H7  <0> d           1.132   2.869  -1.245  0.00  0.00     0.169 HD
ATOM     15  O1  <0> d          -0.267   0.076  -0.516  0.00  0.00    -0.267 OA
BRANCH  13  16
ATOM     16  C7  <0> d           2.177   0.978  -1.055  0.00  0.00     0.046 A 
ATOM     17  C2  <0> d           2.510   0.197   0.044  0.00  0.00    -0.035 A 
ATOM     18  C1  <0> d           1.651   0.232   1.282  0.00  0.00     0.050 C 
ATOM     19  C3  <0> d           3.626  -0.614   0.000  0.00  0.00     0.009 A 
ATOM     20  C4  <0> d           4.418  -0.642  -1.133  0.00  0.00     0.001 A 
ATOM     21  C5  <0> d           4.093   0.138  -2.227  0.00  0.00     0.009 A 
ATOM     22  C6  <0> d           2.975   0.948  -2.191  0.00  0.00    -0.035 A 
ATOM     23  C20 <0> d           2.621   1.798  -3.385  0.00  0.00     0.050 C 
ENDBRANCH  13  16
ENDBRANCH   1  12
BRANCH   3  24
ATOM     24  C17 <0> d          -2.444   5.237   1.307  0.00  0.00     0.029 C 
ATOM     25  C18 <0> d          -2.826   4.783   2.717  0.00  0.00     0.016 C 
ATOM     26  C19 <0> d          -1.043   5.851   1.331  0.00  0.00     0.016 C 
ENDBRANCH   3  24
TORSDOF 3
