REMARK  2 active torsions:
REMARK  status: ('A' for Active; 'I' for Inactive)
REMARK    1  A    between atoms: C8_8  and  N1_15 
REMARK    2  A    between atoms: N1_15  and  C12_16 
ROOT
ATOM      1  C1  <0> d           0.125   1.671   0.216  0.00  0.00     0.048 C 
ATOM      2  C2  <0> d           0.194   0.167   0.146  0.00  0.00    -0.061 A 
ATOM      3  C3  <0> d           0.308  -0.465  -1.079  0.00  0.00     0.015 A 
ATOM      4  C4  <0> d           0.361  -1.842  -1.128  0.00  0.00    -0.039 A 
ATOM      5  C5  <0> d           0.309  -2.594   0.037  0.00  0.00     0.073 A 
ATOM      6  C6  <0> d           0.212  -1.972   1.260  0.00  0.00    -0.005 A 
ATOM      7  C7  <0> d           0.150  -0.580   1.302  0.00  0.00     0.017 A 
ATOM      8  C8  <0> d           0.196  -2.685   2.580  0.00  0.00     0.222 C 
ATOM      9  C9  <0> d          -0.301  -4.117   2.499  0.00  0.00     0.058 C 
ATOM     10  C10 <0> d           0.639  -4.927   1.594  0.00  0.00     0.112 C 
ATOM     11  S1  <0> d           0.361  -4.353  -0.109  0.00  0.00     0.180 S 
ATOM     12  O1  <0> d          -0.940  -4.722  -0.546  0.00  0.00    -0.222 OA
ATOM     13  O2  <0> d           1.503  -4.620  -0.911  0.00  0.00    -0.222 OA
ATOM     14  C11 <0> d           2.094  -4.680   1.999  0.00  0.00     0.026 C 
ATOM     15  C15 <0> d           0.477  -2.538  -2.460  0.00  0.00     0.050 C 
ENDROOT
BRANCH   8  16
ATOM     16  N1  <0> d          -0.671  -1.942   3.503  0.00  0.00    -0.062 N 
ATOM     17  H13 <0> d          -0.352  -0.988   3.570  0.00  0.00     0.278 HD
ATOM     18  H22 <0> d          -1.620  -1.956   3.159  0.00  0.00     0.278 HD
BRANCH  16  19
ATOM     19  C12 <0> d          -0.623  -2.569   4.831  0.00  0.00     0.186 A 
ATOM     20  C14 <0> d          -1.375  -1.873   5.968  0.00  0.00     0.035 A 
ATOM     21  C13 <0> d          -1.920  -3.174   5.374  0.00  0.00     0.035 A 
ENDBRANCH  16  19
ENDBRANCH   8  16
TORSDOF 2
