REMARK  7 active torsions:
REMARK  status: ('A' for Active; 'I' for Inactive)
REMARK    1  A    between atoms: C3_3  and  O2_11 
REMARK    2  A    between atoms: C6_6  and  C7_7 
REMARK    3  A    between atoms: C8_8  and  C9_9 
REMARK    4  A    between atoms: C9_9  and  O1_10 
REMARK    5  A    between atoms: O2_11  and  C10_12 
REMARK    6  A    between atoms: C10_12  and  C11_13 
REMARK    7  A    between atoms: C11_13  and  N1_14 
ROOT
ATOM      1  O2  <0> d           3.547   2.114  -0.022  0.00  0.00    -0.350 OA
ENDROOT
BRANCH   1   2
ATOM      2  C3  <0> d           2.380   1.417  -0.013  0.00  0.00     0.068 A 
ATOM      3  C2  <0> d           1.169   2.095   0.002  0.00  0.00     0.038 A 
ATOM      4  C1  <0> d          -0.017   1.392   0.010  0.00  0.00     0.023 A 
ATOM      5  C6  <0> d           0.002  -0.004   0.002  0.00  0.00     0.018 A 
ATOM      6  C5  <0> d           1.222  -0.682  -0.013  0.00  0.00     0.023 A 
ATOM      7  C4  <0> d           2.403   0.029  -0.021  0.00  0.00     0.038 A 
BRANCH   5   8
ATOM      8  C7  <0> d          -1.227  -0.739   0.010  0.00  0.00    -0.065 C 
ATOM      9  C8  <0> d          -2.235  -1.341   0.017  0.00  0.00    -0.075 C 
BRANCH   9  10
ATOM     10  C9  <0> d          -3.498  -2.096   0.026  0.00  0.00     0.258 C 
BRANCH  10  11
ATOM     11  O1  <0> d          -3.216  -3.497   0.015  0.00  0.00    -0.389 OA
ATOM     12  H8  <0> d          -4.004  -4.057   0.020  0.00  0.00     0.210 HD
ENDBRANCH  10  11
ENDBRANCH   9  10
ENDBRANCH   5   8
ENDBRANCH   1   2
BRANCH   1  13
ATOM     13  C10 <0> d           4.756   1.354  -0.038  0.00  0.00     0.196 C 
BRANCH  13  14
ATOM     14  C11 <0> d           5.956   2.304  -0.045  0.00  0.00     0.160 C 
BRANCH  14  15
ATOM     15  N1  <0> d           5.989   3.059   1.210  0.00  0.00    -0.308 N 
ATOM     16  C15 <0> d           6.666   2.570   2.264  0.00  0.00     0.329 A 
ATOM     17  N2  <0> d           6.717   3.244   3.428  0.00  0.00    -0.275 N 
ATOM     18  O4  <0> d           7.245   1.505   2.163  0.00  0.00    -0.246 OA
ATOM     19  C14 <0> d           6.076   4.423   3.558  0.00  0.00     0.250 A 
ATOM     20  H1  <0> d           7.213   2.879   4.177  0.00  0.00     0.173 HD
ATOM     21  C13 <0> d           5.355   4.947   2.458  0.00  0.00     0.092 A 
ATOM     22  O3  <0> d           6.118   5.032   4.612  0.00  0.00    -0.268 OA
ATOM     23  C12 <0> d           5.325   4.252   1.301  0.00  0.00     0.101 A 
ENDBRANCH  14  15
ENDBRANCH  13  14
ENDBRANCH   1  13
TORSDOF 7
