REMARK  6 active torsions:
REMARK  status: ('A' for Active; 'I' for Inactive)
REMARK    1  A    between atoms: C2_2  and  O1_3 
REMARK    2  A    between atoms: O1_3  and  C3_4 
REMARK    3  A    between atoms: C7_8  and  C9_11 
REMARK    4  A    between atoms: C8_9  and  O2_10 
REMARK    5  A    between atoms: C9_11  and  N1_12 
REMARK    6  A    between atoms: N1_12  and  C10_13 
ROOT
ATOM      1  C3  <0> d          -1.498  -1.849   0.006  0.00  0.00     0.102 A 
ATOM      2  C4  <0> d          -0.389  -2.680  -0.003  0.00  0.00     0.040 A 
ATOM      3  C5  <0> d          -0.553  -4.052  -0.008  0.00  0.00     0.003 A 
ATOM      4  C6  <0> d          -1.823  -4.600  -0.005  0.00  0.00     0.012 A 
ATOM      5  C7  <0> d          -2.934  -3.777   0.004  0.00  0.00    -0.005 A 
ATOM      6  C8  <0> d          -2.776  -2.400   0.016  0.00  0.00     0.106 A 
ENDROOT
BRANCH   5   7
ATOM      7  C9  <0> d          -4.316  -4.377   0.007  0.00  0.00     0.161 C 
BRANCH   7   8
ATOM      8  N1  <0> d          -4.866  -4.345  -1.351  0.00  0.00    -0.384 N 
ATOM      9  H12 <0> d          -4.342  -3.973  -2.077  0.00  0.00     0.160 HD
BRANCH   8  10
ATOM     10  C10 <0> d          -6.145  -4.850  -1.599  0.00  0.00     0.050 A 
ATOM     11  C15 <0> d          -6.668  -4.821  -2.886  0.00  0.00     0.061 A 
ATOM     12  C14 <0> d          -7.931  -5.327  -3.129  0.00  0.00     0.044 A 
ATOM     13 Cl1  <0> d          -5.732  -4.156  -4.189  0.00  0.00    -0.082 Cl
ATOM     14  C13 <0> d          -8.678  -5.851  -2.090  0.00  0.00     0.008 A 
ATOM     15  C12 <0> d          -8.163  -5.876  -0.807  0.00  0.00     0.020 A 
ATOM     16  I1  <0> d         -10.596  -6.609  -2.462  0.00  0.00    -0.045 I 
ATOM     17  C11 <0> d          -6.899  -5.378  -0.559  0.00  0.00     0.032 A 
ENDBRANCH   8  10
ENDBRANCH   7   8
ENDBRANCH   5   7
BRANCH   6  18
ATOM     18  O2  <0> d          -3.868  -1.589   0.030  0.00  0.00    -0.357 OA
ATOM     19  H9  <0> d          -4.192  -1.350  -0.849  0.00  0.00     0.217 HD
ENDBRANCH   6  18
BRANCH   1  20
ATOM     20  O1  <0> d          -1.339  -0.499   0.012  0.00  0.00    -0.349 OA
BRANCH  20  21
ATOM     21  C2  <0> d           0.002  -0.004   0.002  0.00  0.00     0.171 C 
ATOM     22  C1  <0> d          -0.019   1.526   0.010  0.00  0.00     0.034 C 
ENDBRANCH  20  21
ENDBRANCH   1  20
TORSDOF 6
