REMARK  7 active torsions:
REMARK  status: ('A' for Active; 'I' for Inactive)
REMARK    1  A    between atoms: C3_3  and  C9_11 
REMARK    2  A    between atoms: C4_5  and  C5_6 
REMARK    3  A    between atoms: C6_7  and  C7_8 
REMARK    4  A    between atoms: C7_8  and  C8_9 
REMARK    5  A    between atoms: C8_9  and  O1_10 
REMARK       I    between atoms: C9_11  and  N1_13 
REMARK    6  A    between atoms: N1_13  and  C10_14 
REMARK    7  A    between atoms: N2_17  and  C14_19 
ROOT
ATOM      1  C9  <0> d           3.734   1.809  -0.024  0.00  0.00     0.259 C 
ATOM      2  O2  <0> d           3.960   3.005  -0.020  0.00  0.00    -0.267 OA
ATOM      3  N1  <0> d           4.756   0.930  -0.039  0.00  0.00    -0.350 N 
ATOM      4  H9  <0> d           4.575  -0.023  -0.042  0.00  0.00     0.163 HD
ENDROOT
BRANCH   1   5
ATOM      5  C3  <0> d           2.352   1.325  -0.013  0.00  0.00     0.073 A 
ATOM      6  C2  <0> d           1.172   2.056   0.002  0.00  0.00     0.026 A 
ATOM      7  C1  <0> d          -0.017   1.384   0.010  0.00  0.00     0.029 A 
ATOM      8  C4  <0> d           0.002  -0.004   0.002  0.00  0.00     0.059 A 
ATOM      9  S1  <0> d           1.752  -0.356  -0.017  0.00  0.00    -0.076 SA
BRANCH   8  10
ATOM     10  C5  <0> d          -1.100  -0.919   0.008  0.00  0.00    -0.059 C 
ATOM     11  C6  <0> d          -2.003  -1.669   0.012  0.00  0.00    -0.099 C 
BRANCH  11  12
ATOM     12  C7  <0> d          -3.136  -2.609   0.018  0.00  0.00     0.120 C 
BRANCH  12  13
ATOM     13  C8  <0> d          -2.607  -4.045   0.005  0.00  0.00     0.176 C 
BRANCH  13  14
ATOM     14  O1  <0> d          -3.706  -4.957   0.011  0.00  0.00    -0.400 OA
ATOM     15  H8  <0> d          -3.445  -5.888   0.003  0.00  0.00     0.209 HD
ENDBRANCH  13  14
ENDBRANCH  12  13
ENDBRANCH  11  12
ENDBRANCH   8  10
ENDBRANCH   1   5
BRANCH   3  16
ATOM     16  C10 <0> d           6.138   1.415  -0.050  0.00  0.00     0.112 C 
ATOM     17  C13 <0> d           7.086   0.339   0.514  0.00  0.00     0.260 C 
ATOM     18  N2  <0> d           8.018  -0.029  -0.576  0.00  0.00    -0.065 N 
ATOM     19  C12 <0> d           8.079   1.153  -1.474  0.00  0.00     0.237 C 
ATOM     20  H21 <0> d           7.668  -0.830  -1.079  0.00  0.00     0.280 HD
ATOM     21  C11 <0> d           6.612   1.652  -1.502  0.00  0.00     0.054 C 
BRANCH  18  22
ATOM     22  C14 <0> d           9.350  -0.316  -0.026  0.00  0.00     0.188 A 
ATOM     23  C16 <0> d           9.474  -1.486   0.951  0.00  0.00     0.035 A 
ATOM     24  C15 <0> d          10.032  -1.612  -0.468  0.00  0.00     0.035 A 
ENDBRANCH  18  22
ENDBRANCH   3  16
TORSDOF 7
