REMARK  2 active torsions:
REMARK  status: ('A' for Active; 'I' for Inactive)
REMARK    1  A    between atoms: C5_6  and  N2_10 
REMARK       I    between atoms: N2_10  and  C8_11 
REMARK    2  A    between atoms: C8_11  and  C9_13 
ROOT
ATOM      1  C1  <0> d          -0.019   1.541   0.011  0.00  0.00     0.010 C 
ATOM      2  C2  <0> d           1.486   1.876  -0.002  0.00  0.00     0.042 C 
ATOM      3  C3  <0> d           2.177   0.671   0.633  0.00  0.00    -0.021 A 
ATOM      4  C4  <0> d           1.324  -0.370   0.621  0.00  0.00    -0.007 A 
ATOM      5  S1  <0> d           2.229  -1.698   1.374  0.00  0.00    -0.075 SA
ATOM      6  C5  <0> d           3.676  -0.915   1.697  0.00  0.00     0.098 A 
ATOM      7  C6  <0> d           3.477   0.369   1.229  0.00  0.00     0.085 A 
ATOM      8  C7  <0> d           4.502   1.365   1.324  0.00  0.00     0.103 C 
ATOM      9  N1  <0> d           5.315   2.154   1.399  0.00  0.00    -0.191 NA
ATOM     10  C14 <0> d           0.002  -0.004   0.002  0.00  0.00     0.047 C 
ENDROOT
BRANCH   6  11
ATOM     11  N2  <0> d           4.814  -1.437   2.297  0.00  0.00    -0.320 N 
ATOM     12  C8  <0> d           4.834  -2.724   2.697  0.00  0.00     0.228 C 
ATOM     13  O1  <0> d           3.859  -3.426   2.532  0.00  0.00    -0.273 OA
ATOM     14  H6  <0> d           5.594  -0.876   2.430  0.00  0.00     0.169 HD
BRANCH  12  15
ATOM     15  C9  <0> d           6.069  -3.292   3.349  0.00  0.00     0.104 C 
ATOM     16  C13 <0> d           5.830  -4.760   3.705  0.00  0.00     0.246 C 
ATOM     17  N3  <0> d           7.030  -5.314   4.344  0.00  0.00    -0.074 N 
ATOM     18  C12 <0> d           7.293  -4.612   5.605  0.00  0.00     0.232 C 
ATOM     19  H13 <0> d           7.820  -5.202   3.726  0.00  0.00     0.277 HD
ATOM     20  H18 <0> d           6.888  -6.296   4.529  0.00  0.00     0.277 HD
ATOM     21  C11 <0> d           7.589  -3.138   5.321  0.00  0.00     0.028 C 
ATOM     22  C10 <0> d           6.380  -2.505   4.626  0.00  0.00     0.017 C 
ENDBRANCH  12  15
ENDBRANCH   6  11
TORSDOF 2
