REMARK  4 active torsions:
REMARK  status: ('A' for Active; 'I' for Inactive)
REMARK    1  A    between atoms: C3_3  and  C16_21 
REMARK    2  A    between atoms: C7_7  and  N1_8 
REMARK       I    between atoms: N1_8  and  C8_9 
REMARK    3  A    between atoms: C8_9  and  C9_11 
REMARK    4  A    between atoms: C14_16  and  O2_17 
REMARK       I    between atoms: C16_21  and  N2_23 
ROOT
ATOM      1  N1  <0> d           0.165   0.029   2.453  0.00  0.00    -0.322 N 
ATOM      2  C8  <0> d          -0.235  -0.579   3.587  0.00  0.00     0.259 C 
ATOM      3  O1  <0> d          -0.732  -1.688   3.539  0.00  0.00    -0.267 OA
ATOM      4  H7  <0> d           0.491   0.943   2.482  0.00  0.00     0.169 HD
ENDROOT
BRANCH   1   5
ATOM      5  C7  <0> d           0.110  -0.655   1.234  0.00  0.00     0.042 A 
ATOM      6  C2  <0> d           0.095   0.051   0.042  0.00  0.00    -0.019 A 
ATOM      7  C1  <0> d           0.138   1.558   0.055  0.00  0.00     0.052 C 
ATOM      8  C3  <0> d           0.047  -0.637  -1.171  0.00  0.00     0.040 A 
ATOM      9  C4  <0> d           0.007  -2.032  -1.175  0.00  0.00     0.018 A 
ATOM     10  C5  <0> d           0.017  -2.726   0.018  0.00  0.00     0.003 A 
ATOM     11  C6  <0> d           0.065  -2.045   1.219  0.00  0.00     0.030 A 
BRANCH   8  12
ATOM     12  C16 <0> d           0.036   0.110  -2.447  0.00  0.00     0.251 C 
ATOM     13  O3  <0> d           0.197   1.315  -2.448  0.00  0.00    -0.268 OA
ATOM     14  N2  <0> d          -0.152  -0.546  -3.609  0.00  0.00    -0.361 N 
ATOM     15  C17 <0> d          -0.163   0.194  -4.874  0.00  0.00     0.149 C 
ATOM     16  H13 <0> d          -0.281  -1.507  -3.609  0.00  0.00     0.162 HD
ENDBRANCH   8  12
ENDBRANCH   1   5
BRANCH   2  17
ATOM     17  C9  <0> d          -0.071   0.099   4.886  0.00  0.00     0.067 A 
ATOM     18  C14 <0> d          -0.485  -0.530   6.067  0.00  0.00     0.085 A 
ATOM     19  C13 <0> d          -0.321   0.114   7.284  0.00  0.00     0.057 A 
ATOM     20  C12 <0> d           0.238   1.376   7.329  0.00  0.00     0.030 A 
ATOM     21  C11 <0> d           0.645   2.005   6.162  0.00  0.00     0.051 A 
ATOM     22  I1  <0> d           0.474   2.345   9.172  0.00  0.00    -0.043 I 
ATOM     23  C10 <0> d           0.494   1.376   4.944  0.00  0.00     0.045 A 
ATOM     24 Cl1  <0> d           1.347   3.591   6.234  0.00  0.00    -0.083 Cl
BRANCH  18  25
ATOM     25  O2  <0> d          -1.040  -1.768   6.021  0.00  0.00    -0.355 OA
ATOM     26  C15 <0> d          -1.439  -2.347   7.265  0.00  0.00     0.210 C 
ENDBRANCH  18  25
ENDBRANCH   2  17
TORSDOF 4
