REMARK  7 active torsions:
REMARK  status: ('A' for Active; 'I' for Inactive)
REMARK    1  A    between atoms: O1_2  and  C2_3 
REMARK    2  A    between atoms: C5_6  and  C9_11 
REMARK    3  A    between atoms: C7_8  and  O2_9 
REMARK    4  A    between atoms: C9_11  and  C10_12 
REMARK    5  A    between atoms: C10_12  and  C11_13 
REMARK    6  A    between atoms: C10_12  and  N4_19 
REMARK       I    between atoms: N4_19  and  C13_20 
REMARK    7  A    between atoms: C13_20  and  C14_22 
ROOT
ATOM      1  C10 <0> d           3.108  -1.699  -5.152  0.00  0.00     0.059 C 
ENDROOT
BRANCH   1   2
ATOM      2  C9  <0> d           2.416  -1.960  -4.040  0.00  0.00     0.040 C 
BRANCH   2   3
ATOM      3  C5  <0> d           2.533  -1.065  -2.872  0.00  0.00    -0.031 A 
ATOM      4  C4  <0> d           2.531   0.321  -3.049  0.00  0.00     0.014 A 
ATOM      5  C3  <0> d           2.640   1.155  -1.956  0.00  0.00     0.040 A 
ATOM      6  C2  <0> d           2.750   0.623  -0.681  0.00  0.00     0.101 A 
ATOM      7  C7  <0> d           2.757  -0.758  -0.497  0.00  0.00     0.102 A 
ATOM      8  C6  <0> d           2.644  -1.601  -1.588  0.00  0.00     0.051 A 
BRANCH   6   9
ATOM      9  O1  <0> d           2.857   1.450   0.394  0.00  0.00    -0.353 OA
ATOM     10  C1  <0> d           2.842   2.855   0.134  0.00  0.00     0.210 C 
ENDBRANCH   6   9
BRANCH   7  11
ATOM     11  O2  <0> d           2.871  -1.277   0.755  0.00  0.00    -0.353 OA
ATOM     12  C8  <0> d           2.872  -2.701   0.869  0.00  0.00     0.210 C 
ENDBRANCH   7  11
ENDBRANCH   2   3
ENDBRANCH   1   2
BRANCH   1  13
ATOM     13  C11 <0> d           4.157  -0.617  -5.152  0.00  0.00     0.279 A 
ATOM     14  N3  <0> d           4.026   0.229  -6.348  0.00  0.00    -0.183 NA
ATOM     15  N2  <0> d           5.073   0.134  -6.998  0.00  0.00    -0.256 N 
ATOM     16  C12 <0> d           5.992  -0.692  -6.427  0.00  0.00     0.190 A 
ATOM     17  H19 <0> d           5.226   0.604  -7.833  0.00  0.00     0.191 HD
ATOM     18  N1  <0> d           5.505  -1.202  -5.275  0.00  0.00    -0.337 N 
ATOM     19  S1  <0> d           7.540  -1.034  -7.074  0.00  0.00    -0.039 SA
ATOM     20  H18 <0> d           5.944  -1.816  -4.665  0.00  0.00     0.164 HD
ENDBRANCH   1  13
BRANCH   1  21
ATOM     21  N4  <0> d           2.862  -2.425  -6.308  0.00  0.00    -0.323 N 
ATOM     22  C13 <0> d           2.235  -1.843  -7.349  0.00  0.00     0.256 C 
ATOM     23  O3  <0> d           1.949  -0.662  -7.303  0.00  0.00    -0.267 OA
ATOM     24  H12 <0> d           3.141  -3.353  -6.367  0.00  0.00     0.169 HD
BRANCH  22  25
ATOM     25  C14 <0> d           1.894  -2.639  -8.546  0.00  0.00     0.032 A 
ATOM     26  C19 <0> d           1.244  -2.039  -9.626  0.00  0.00     0.017 A 
ATOM     27  C18 <0> d           0.934  -2.787 -10.743  0.00  0.00     0.001 A 
ATOM     28  C17 <0> d           1.255  -4.132 -10.790  0.00  0.00     0.000 A 
ATOM     29  C16 <0> d           1.894  -4.735  -9.721  0.00  0.00     0.001 A 
ATOM     30  C15 <0> d           2.215  -3.997  -8.600  0.00  0.00     0.017 A 
ENDBRANCH  22  25
ENDBRANCH   1  21
TORSDOF 7
