REMARK  5 active torsions:
REMARK  status: ('A' for Active; 'I' for Inactive)
REMARK    1  A    between atoms: C2_2  and  N1_9 
REMARK    2  A    between atoms: N1_9  and  N2_10 
REMARK       I    between atoms: N2_10  and  C6_11 
REMARK       I    between atoms: C6_11  and  N3_13 
REMARK    3  A    between atoms: N3_13  and  C7_14 
REMARK    4  A    between atoms: C7_14  and  C8_15 
REMARK    5  A    between atoms: C8_15  and  N4_21 
ROOT
ATOM      1  N2  <0> d          -1.947   0.057  -0.675  0.00  0.00    -0.273 N 
ATOM      2  C6  <0> d          -3.244  -0.263  -0.860  0.00  0.00     0.330 C 
ATOM      3  O3  <0> d          -3.850   0.184  -1.814  0.00  0.00    -0.246 OA
ATOM      4  N3  <0> d          -3.868  -1.078   0.013  0.00  0.00    -0.340 N 
ATOM      5  H11 <0> d          -1.498   0.644  -1.303  0.00  0.00     0.185 HD
ATOM      6  H12 <0> d          -3.384  -1.435   0.774  0.00  0.00     0.164 HD
ENDROOT
BRANCH   1   7
ATOM      7  N1  <0> d          -1.266  -0.446   0.397  0.00  0.00    -0.226 NA
ATOM      8  H10 <0> d          -1.305  -1.454   0.410  0.00  0.00     0.147 HD
BRANCH   7   9
ATOM      9  C2  <0> d           0.125   0.028   0.406  0.00  0.00     0.040 C 
ATOM     10  C1  <0> d           0.120   1.557   0.468  0.00  0.00     0.035 C 
ATOM     11  C5  <0> d           0.823  -0.515   1.668  0.00  0.00     0.166 C 
ATOM     12  S1  <0> d           2.307  -1.372   0.992  0.00  0.00     0.146 S 
ATOM     13  C4  <0> d           2.323  -0.591  -0.681  0.00  0.00     0.142 C 
ATOM     14  O1  <0> d           3.457  -0.954   1.714  0.00  0.00    -0.228 OA
ATOM     15  O2  <0> d           2.026  -2.758   0.858  0.00  0.00    -0.228 OA
ATOM     16  C3  <0> d           0.795  -0.408  -0.896  0.00  0.00     0.042 C 
ENDBRANCH   7   9
ENDBRANCH   1   7
BRANCH   4  17
ATOM     17  C7  <0> d          -5.276  -1.426  -0.188  0.00  0.00     0.163 C 
BRANCH  17  18
ATOM     18  C8  <0> d          -5.698  -2.467   0.851  0.00  0.00     0.142 C 
ATOM     19  C13 <0> d          -5.633  -1.848   2.249  0.00  0.00     0.041 C 
ATOM     20  C12 <0> d          -6.578  -0.647   2.319  0.00  0.00     0.002 C 
ATOM     21  C11 <0> d          -8.009  -1.105   2.030  0.00  0.00     0.000 C 
ATOM     22  C10 <0> d          -8.073  -1.724   0.632  0.00  0.00     0.002 C 
ATOM     23  C9  <0> d          -7.129  -2.926   0.562  0.00  0.00     0.041 C 
BRANCH  18  24
ATOM     24  N4  <0> d          -4.791  -3.621   0.784  0.00  0.00    -0.068 N 
ATOM     25  C14 <0> d          -5.217  -4.636   1.756  0.00  0.00     0.270 C 
ATOM     26  C15 <0> d          -4.827  -4.193  -0.569  0.00  0.00     0.270 C 
ATOM     27  H31 <0> d          -3.851  -3.323   0.998  0.00  0.00     0.280 HD
ENDBRANCH  18  24
ENDBRANCH  17  18
ENDBRANCH   4  17
TORSDOF 5
