REMARK  6 active torsions:
REMARK  status: ('A' for Active; 'I' for Inactive)
REMARK    1  A    between atoms: C3_3  and  C4_4 
REMARK    2  A    between atoms: C4_4  and  C5_5 
REMARK    3  A    between atoms: C4_4  and  N2_12 
REMARK       I    between atoms: C5_5  and  N1_7 
REMARK    4  A    between atoms: N1_7  and  C6_8 
REMARK       I    between atoms: N2_12  and  C10_13 
REMARK    5  A    between atoms: N2_12  and  C15_21 
REMARK    6  A    between atoms: C10_13  and  C11_15 
ROOT
ATOM      1  N2  <0> d          -0.285  -2.182   0.193  0.00  0.00    -0.325 N 
ATOM      2  C10 <0> d          -1.146  -3.218   0.227  0.00  0.00     0.244 C 
ATOM      3  O2  <0> d          -1.248  -3.954  -0.733  0.00  0.00    -0.271 OA
ENDROOT
BRANCH   1   4
ATOM      4  C4  <0> d           0.697  -2.080  -0.890  0.00  0.00     0.203 C 
BRANCH   4   5
ATOM      5  C3  <0> d           0.353  -0.908  -1.772  0.00  0.00     0.003 C 
ATOM      6  C2  <0> d          -0.816  -0.326  -1.662  0.00  0.00    -0.033 C 
ATOM      7  C1  <0> d          -1.105   0.935  -2.434  0.00  0.00     0.036 C 
ENDBRANCH   4   5
BRANCH   4   8
ATOM      8  C5  <0> d           2.071  -1.882  -0.304  0.00  0.00     0.245 C 
ATOM      9  O1  <0> d           2.261  -2.081   0.877  0.00  0.00    -0.271 OA
ATOM     10  N1  <0> d           3.089  -1.485  -1.093  0.00  0.00    -0.351 N 
ATOM     11  H8  <0> d           2.937  -1.327  -2.038  0.00  0.00     0.163 HD
BRANCH  10  12
ATOM     12  C6  <0> d           4.425  -1.293  -0.524  0.00  0.00     0.022 C 
ATOM     13  C7  <0> d           4.917  -2.610   0.079  0.00  0.00     0.037 C 
ATOM     14  C8  <0> d           5.389  -0.844  -1.625  0.00  0.00     0.037 C 
ATOM     15  C9  <0> d           4.365  -0.223   0.568  0.00  0.00     0.037 C 
ENDBRANCH  10  12
ENDBRANCH   4   8
ENDBRANCH   1   4
BRANCH   1  16
ATOM     16  C15 <0> d          -0.331  -1.157   1.239  0.00  0.00     0.025 C 
ATOM     17  C16 <0> d           0.632  -0.022   0.883  0.00  0.00     0.037 C 
ATOM     18  C17 <0> d          -1.753  -0.603   1.348  0.00  0.00     0.037 C 
ATOM     19  C18 <0> d           0.080  -1.775   2.577  0.00  0.00     0.037 C 
ENDBRANCH   1  16
BRANCH   2  20
ATOM     20  C11 <0> d          -1.983  -3.462   1.456  0.00  0.00     0.177 C 
ATOM     21  N3  <0> d          -3.287  -4.021   1.079  0.00  0.00    -0.348 N 
ATOM     22  C14 <0> d          -3.328  -5.349   1.294  0.00  0.00     0.218 C 
ATOM     23  H22 <0> d          -4.024  -3.499   0.723  0.00  0.00     0.163 HD
ATOM     24  C13 <0> d          -2.011  -5.825   1.865  0.00  0.00     0.105 C 
ATOM     25  O3  <0> d          -4.283  -6.060   1.063  0.00  0.00    -0.274 OA
ATOM     26  C12 <0> d          -1.318  -4.531   2.351  0.00  0.00     0.044 C 
ENDBRANCH   2  20
TORSDOF 6
