REMARK  6 active torsions:
REMARK  status: ('A' for Active; 'I' for Inactive)
REMARK    1  A    between atoms: O1_2  and  C2_3 
REMARK    2  A    between atoms: C6_7  and  C8_10 
REMARK    3  A    between atoms: C7_8  and  O2_9 
REMARK    4  A    between atoms: N1_11  and  N2_12 
REMARK    5  A    between atoms: C11_17  and  C12_19 
REMARK    6  A    between atoms: C12_19  and  C13_20 
ROOT
ATOM      1  C8  <0> d           2.475   1.078  -0.016  0.00  0.00     0.155 C 
ATOM      2  N1  <0> d           3.594   1.750  -0.023  0.00  0.00    -0.159 NA
ENDROOT
BRANCH   2   3
ATOM      3  N2  <0> d           4.722   1.124  -0.038  0.00  0.00    -0.125 NA
ATOM      4  C9  <0> d           5.851   1.801  -0.045  0.00  0.00     0.191 A 
ATOM      5  S1  <0> d           7.520   1.164  -0.058  0.00  0.00    -0.075 SA
ATOM      6  N3  <0> d           6.023   3.170  -0.038  0.00  0.00    -0.304 N 
ATOM      7  C11 <0> d           8.400   2.776  -0.063  0.00  0.00     0.157 A 
ATOM      8  C10 <0> d           7.219   3.732  -0.046  0.00  0.00     0.238 A 
ATOM      9  O3  <0> d           7.365   4.936  -0.040  0.00  0.00    -0.272 OA
ATOM     10  H9  <0> d           5.238   3.740  -0.028  0.00  0.00     0.171 HD
BRANCH   7  11
ATOM     11  C12 <0> d           9.238   2.952  -1.331  0.00  0.00     0.138 C 
BRANCH  11  12
ATOM     12  C13 <0> d          10.461   2.075  -1.251  0.00  0.00     0.174 C 
ATOM     13  O4  <0> d          10.645   1.381  -0.280  0.00  0.00    -0.648 OA
ATOM     14  O5  <0> d          11.348   2.066  -2.259  0.00  0.00    -0.648 OA
ENDBRANCH  11  12
ENDBRANCH   7  11
ENDBRANCH   2   3
BRANCH   1  15
ATOM     15  C6  <0> d           1.189   1.792   0.000  0.00  0.00     0.020 A 
ATOM     16  C5  <0> d          -0.013   1.076   0.008  0.00  0.00     0.035 A 
ATOM     17  C4  <0> d          -1.216   1.750   0.017  0.00  0.00     0.014 A 
ATOM     18  C3  <0> d          -1.242   3.134   0.031  0.00  0.00     0.058 A 
ATOM     19 Br1  <0> d          -2.839   0.778   0.020  0.00  0.00    -0.051 Br
ATOM     20  C2  <0> d          -0.059   3.857   0.023  0.00  0.00     0.103 A 
ATOM     21  C7  <0> d           1.161   3.193   0.008  0.00  0.00     0.110 A 
BRANCH  20  22
ATOM     22  O1  <0> d          -0.093   5.217   0.031  0.00  0.00    -0.353 OA
ATOM     23  C1  <0> d          -1.381   5.833   0.046  0.00  0.00     0.210 C 
ENDBRANCH  20  22
BRANCH  21  24
ATOM     24  O2  <0> d           2.323   3.899   0.000  0.00  0.00    -0.357 OA
ATOM     25  H7  <0> d           2.650   4.108  -0.885  0.00  0.00     0.217 HD
ENDBRANCH  21  24
ENDBRANCH   1  15
TORSDOF 6
