REMARK  5 active torsions:
REMARK  status: ('A' for Active; 'I' for Inactive)
REMARK    1  A    between atoms: C4_4  and  C11_15 
REMARK    2  A    between atoms: C6_6  and  S1_9 
REMARK    3  A    between atoms: S1_9  and  N1_12 
REMARK       I    between atoms: C11_15  and  N2_17 
REMARK    4  A    between atoms: N2_17  and  N3_18 
REMARK       I    between atoms: N3_18  and  C12_19 
REMARK    5  A    between atoms: C12_19  and  C13_21 
ROOT
ATOM      1  C11 <0> d           2.714   3.313  -0.724  0.00  0.00     0.270 C 
ATOM      2  O3  <0> d           1.908   4.147  -0.360  0.00  0.00    -0.266 OA
ATOM      3  N2  <0> d           3.941   3.695  -1.133  0.00  0.00    -0.263 N 
ATOM      4  H16 <0> d           4.670   2.941  -1.463  0.00  0.00     0.190 HD
ENDROOT
BRANCH   1   5
ATOM      5  C4  <0> d           2.349   1.881  -0.720  0.00  0.00     0.035 A 
ATOM      6  C3  <0> d           3.273   0.921  -1.137  0.00  0.00     0.024 A 
ATOM      7  C2  <0> d           2.926  -0.415  -1.130  0.00  0.00    -0.054 A 
ATOM      8  C1  <0> d           3.922  -1.452  -1.580  0.00  0.00     0.049 C 
ATOM      9  C7  <0> d           1.666  -0.803  -0.711  0.00  0.00    -0.033 A 
ATOM     10  C6  <0> d           0.746   0.143  -0.295  0.00  0.00     0.087 A 
ATOM     11  C8  <0> d           1.294  -2.264  -0.706  0.00  0.00     0.050 C 
ATOM     12  C5  <0> d           1.080   1.482  -0.297  0.00  0.00     0.042 A 
BRANCH  10  13
ATOM     13  S1  <0> d          -0.856  -0.362   0.237  0.00  0.00     0.260 S 
ATOM     14  O1  <0> d          -1.379  -1.197  -0.787  0.00  0.00    -0.200 OA
ATOM     15  O2  <0> d          -0.718  -0.801   1.581  0.00  0.00    -0.200 OA
BRANCH  13  16
ATOM     16  N1  <0> d          -1.809   0.992   0.276  0.00  0.00    -0.315 N 
ATOM     17  C9  <0> d          -2.468   1.460  -0.945  0.00  0.00     0.162 C 
ATOM     18  C10 <0> d          -1.992   1.722   1.533  0.00  0.00     0.162 C 
ENDBRANCH  13  16
ENDBRANCH  10  13
ENDBRANCH   1   5
BRANCH   3  19
ATOM     19  N3  <0> d           4.286   5.053  -1.137  0.00  0.00    -0.262 N 
ATOM     20  C12 <0> d           5.513   5.434  -1.545  0.00  0.00     0.286 C 
ATOM     21  O4  <0> d           6.320   4.600  -1.910  0.00  0.00    -0.264 OA
ATOM     22  H17 <0> d           3.557   5.807  -0.807  0.00  0.00     0.190 HD
BRANCH  20  23
ATOM     23  C13 <0> d           5.875   6.856  -1.550  0.00  0.00     0.103 A 
ATOM     24  N4  <0> d           5.067   7.902  -1.166  0.00  0.00    -0.360 N 
ATOM     25  C16 <0> d           5.758   9.059  -1.312  0.00  0.00     0.107 A 
ATOM     26  H1  <0> d           4.043   7.706  -0.815  0.00  0.00     0.165 HD
ATOM     27  C15 <0> d           6.996   8.774  -1.783  0.00  0.00     0.028 A 
ATOM     28  C14 <0> d           7.088   7.386  -1.934  0.00  0.00     0.055 A 
ATOM     29 Br1  <0> d           8.360  10.028  -2.162  0.00  0.00    -0.050 Br
ENDBRANCH  20  23
ENDBRANCH   3  19
TORSDOF 5
