REMARK  6 active torsions:
REMARK  status: ('A' for Active; 'I' for Inactive)
REMARK    1  A    between atoms: C2_2  and  N1_4 
REMARK    2  A    between atoms: C7_10  and  C8_11 
REMARK    3  A    between atoms: C8_11  and  C9_12 
REMARK       I    between atoms: C9_12  and  N3_14 
REMARK    4  A    between atoms: N3_14  and  C10_15 
REMARK    5  A    between atoms: C10_15  and  C11_16 
REMARK    6  A    between atoms: C13_20  and  C14_21 
ROOT
ATOM      1  C9  <0> d           0.786  -2.071   1.444  0.00  0.00     0.220 C 
ATOM      2  O2  <0> d           1.234  -1.390   0.546  0.00  0.00    -0.274 OA
ATOM      3  N3  <0> d           1.547  -2.351   2.521  0.00  0.00    -0.357 N 
ATOM      4  H17 <0> d           1.189  -2.896   3.239  0.00  0.00     0.162 HD
ENDROOT
BRANCH   1   5
ATOM      5  C8  <0> d          -0.621  -2.605   1.356  0.00  0.00     0.145 C 
BRANCH   5   6
ATOM      6  C7  <0> d          -1.301  -2.044   0.106  0.00  0.00     0.288 C 
ATOM      7  N1  <0> d          -0.615  -2.549  -1.090  0.00  0.00    -0.053 N 
ATOM      8  C4  <0> d          -1.147  -1.855  -2.273  0.00  0.00     0.256 C 
ATOM      9  H24 <0> d           0.376  -2.374  -1.010  0.00  0.00     0.281 HD
ATOM     10  C5  <0> d          -0.675  -0.400  -2.245  0.00  0.00     0.150 C 
ATOM     11  N2  <0> d          -0.972   0.194  -0.944  0.00  0.00    -0.358 N 
ATOM     12  C6  <0> d          -1.246  -0.543   0.139  0.00  0.00     0.249 C 
ATOM     13  H14 <0> d          -0.969   1.160  -0.861  0.00  0.00     0.162 HD
ATOM     14  O1  <0> d          -1.459   0.024   1.190  0.00  0.00    -0.271 OA
BRANCH   7  15
ATOM     15  C2  <0> d          -0.850  -3.993  -1.219  0.00  0.00     0.181 C 
ATOM     16  C1  <0> d          -2.335  -4.246  -1.486  0.00  0.00     0.040 C 
ATOM     17  C3  <0> d          -0.022  -4.542  -2.383  0.00  0.00     0.040 C 
ENDBRANCH   7  15
ENDBRANCH   5   6
ENDBRANCH   1   5
BRANCH   3  18
ATOM     18  C10 <0> d           2.914  -1.832   2.606  0.00  0.00     0.161 C 
BRANCH  18  19
ATOM     19  C11 <0> d           3.544  -2.285   3.898  0.00  0.00    -0.012 A 
ATOM     20  C13 <0> d           3.441  -1.636   5.267  0.00  0.00     0.203 A 
ATOM     21  N5  <0> d           4.253  -2.524   6.117  0.00  0.00    -0.178 NA
ATOM     22  N4  <0> d           4.698  -3.425   5.401  0.00  0.00    -0.166 NA
ATOM     23  C12 <0> d           4.326  -3.347   4.104  0.00  0.00     0.147 A 
BRANCH  20  24
ATOM     24  C14 <0> d           2.010  -1.613   5.740  0.00  0.00     0.013 A 
ATOM     25  S1  <0> d           1.049  -2.923   6.479  0.00  0.00    -0.104 SA
ATOM     26  C17 <0> d          -0.475  -2.021   6.705  0.00  0.00     0.050 A 
ATOM     27  C16 <0> d          -0.157  -0.803   6.203  0.00  0.00     0.008 A 
ATOM     28  C15 <0> d           1.117  -0.594   5.708  0.00  0.00     0.017 A 
ENDBRANCH  20  24
ENDBRANCH  18  19
ENDBRANCH   3  18
TORSDOF 6
