REMARK  9 active torsions:
REMARK  status: ('A' for Active; 'I' for Inactive)
REMARK    1  A    between atoms: C2_2  and  C3_3 
REMARK    2  A    between atoms: C7_7  and  C21_27 
REMARK    3  A    between atoms: C8_8  and  N1_9 
REMARK       I    between atoms: N1_9  and  C9_10 
REMARK    4  A    between atoms: C9_10  and  C10_12 
REMARK    5  A    between atoms: C10_12  and  N2_13 
REMARK    6  A    between atoms: C17_21  and  N4_22 
REMARK    7  A    between atoms: N4_22  and  C18_23 
REMARK    8  A    between atoms: C18_23  and  C19_24 
REMARK    9  A    between atoms: C19_24  and  O2_26 
ROOT
ATOM      1  N2  <0> d           1.645   4.288  -0.026  0.00  0.00    -0.172 N 
ATOM      2  C11 <0> d           0.858   4.707  -1.086  0.00  0.00     0.079 A 
ATOM      3  C12 <0> d          -0.192   5.605  -1.207  0.00  0.00     0.032 A 
ATOM      4  C13 <0> d          -0.784   5.807  -2.437  0.00  0.00     0.002 A 
ATOM      5  C14 <0> d          -0.336   5.117  -3.554  0.00  0.00     0.002 A 
ATOM      6  C15 <0> d           0.705   4.222  -3.452  0.00  0.00     0.032 A 
ATOM      7  C16 <0> d           1.315   4.006  -2.214  0.00  0.00     0.076 A 
ATOM      8  N3  <0> d           2.337   3.210  -1.802  0.00  0.00    -0.190 N 
ATOM      9  C17 <0> d           2.536   3.378  -0.519  0.00  0.00     0.681 A 
ATOM     10  H29 <0> d           2.851   2.559  -2.524  0.00  0.00     0.184 HD
ENDROOT
BRANCH   1  11
ATOM     11  C10 <0> d           1.545   4.741   1.363  0.00  0.00     0.251 C 
BRANCH  11  12
ATOM     12  C9  <0> d           0.586   3.853   2.114  0.00  0.00     0.241 C 
ATOM     13  N1  <0> d           0.336   4.081   3.418  0.00  0.00    -0.325 N 
ATOM     14  H10 <0> d           0.860   4.892   3.945  0.00  0.00     0.169 HD
ATOM     15  O1  <0> d           0.041   2.932   1.544  0.00  0.00    -0.271 OA
BRANCH  13  16
ATOM     16  C8  <0> d          -0.593   3.288   4.102  0.00  0.00     0.047 A 
ATOM     17  C3  <0> d          -0.228   2.649   5.279  0.00  0.00    -0.031 A 
ATOM     18  C4  <0> d          -1.148   1.871   5.954  0.00  0.00     0.009 A 
ATOM     19  C5  <0> d          -2.428   1.720   5.454  0.00  0.00     0.001 A 
ATOM     20  C6  <0> d          -2.792   2.350   4.278  0.00  0.00     0.009 A 
ATOM     21  C7  <0> d          -1.879   3.134   3.601  0.00  0.00    -0.031 A 
BRANCH  17  22
ATOM     22  C2  <0> d           1.169   2.808   5.823  0.00  0.00     0.036 C 
ATOM     23  C1  <0> d           1.289   4.159   6.531  0.00  0.00     0.010 C 
ENDBRANCH  17  22
BRANCH  21  24
ATOM     24  C21 <0> d          -2.277   3.821   2.320  0.00  0.00     0.036 C 
ATOM     25  C22 <0> d          -3.397   3.028   1.644  0.00  0.00     0.010 C 
ENDBRANCH  21  24
ENDBRANCH  13  16
ENDBRANCH  11  12
ENDBRANCH   1  11
BRANCH   9  26
ATOM     26  N4  <0> d           3.499   2.730   0.225  0.00  0.00    -0.223 N 
ATOM     27  H17 <0> d           3.591   2.932   1.302  0.00  0.00     0.177 HD
BRANCH  26  28
ATOM     28  C18 <0> d           4.401   1.771  -0.420  0.00  0.00     0.169 C 
BRANCH  28  29
ATOM     29  C19 <0> d           5.366   1.199   0.620  0.00  0.00     0.132 C 
ATOM     30  C20 <0> d           6.386   0.294  -0.073  0.00  0.00     0.041 C 
BRANCH  29  31
ATOM     31  O2  <0> d           4.633   0.440   1.584  0.00  0.00    -0.394 OA
ATOM     32  H23 <0> d           5.160  -0.051   2.415  0.00  0.00     0.210 HD
ENDBRANCH  29  31
ENDBRANCH  28  29
ENDBRANCH  26  28
ENDBRANCH   9  26
TORSDOF 9
