REMARK  3 active torsions:
REMARK  status: ('A' for Active; 'I' for Inactive)
REMARK    1  A    between atoms: N1_2  and  C3_4 
REMARK    2  A    between atoms: C7_9  and  N3_10 
REMARK       I    between atoms: N3_10  and  C8_11 
REMARK    3  A    between atoms: C8_11  and  C9_13 
ROOT
ATOM      1  N3  <0> d          -1.213  -0.755   2.442  0.00  0.00    -0.322 N 
ATOM      2  C8  <0> d          -1.854  -1.031   3.595  0.00  0.00     0.245 C 
ATOM      3  O1  <0> d          -2.897  -1.651   3.576  0.00  0.00    -0.271 OA
ATOM      4  H11 <0> d          -0.349  -0.315   2.461  0.00  0.00     0.169 HD
ENDROOT
BRANCH   1   5
ATOM      5  C7  <0> d          -1.795  -1.103   1.215  0.00  0.00     0.077 A 
ATOM      6  C3  <0> d          -1.619  -0.291   0.089  0.00  0.00     0.059 A 
ATOM      7  C4  <0> d          -2.214  -0.686  -1.107  0.00  0.00     0.048 A 
ATOM      8  C5  <0> d          -2.954  -1.851  -1.137  0.00  0.00     0.090 A 
ATOM      9  N2  <0> d          -3.103  -2.589  -0.054  0.00  0.00    -0.373 N 
ATOM     10  C6  <0> d          -2.558  -2.254   1.100  0.00  0.00     0.119 A 
ATOM     11  H19 <0> d          -3.630  -3.402  -0.107  0.00  0.00     0.164 HD
BRANCH   6  12
ATOM     12  N1  <0> d          -0.865   0.878   0.160  0.00  0.00    -0.388 N 
ATOM     13  C1  <0> d          -1.510   2.147   0.507  0.00  0.00     0.149 C 
ATOM     14  C2  <0> d           0.575   0.839  -0.111  0.00  0.00     0.149 C 
ENDBRANCH   6  12
ENDBRANCH   1   5
BRANCH   2  15
ATOM     15  C9  <0> d          -1.276  -0.569   4.908  0.00  0.00     0.178 A 
ATOM     16  N4  <0> d          -2.300  -0.607   5.955  0.00  0.00    -0.376 N 
ATOM     17  C16 <0> d          -1.914  -1.489   6.969  0.00  0.00     0.035 A 
ATOM     18  H18 <0> d          -3.124  -0.096   5.946  0.00  0.00     0.160 HD
ATOM     19  C11 <0> d          -0.684  -2.070   6.701  0.00  0.00    -0.029 A 
ATOM     20  C15 <0> d          -2.582  -1.830   8.147  0.00  0.00     0.029 A 
ATOM     21  C10 <0> d          -0.179  -1.539   5.378  0.00  0.00     0.075 A 
ATOM     22  C12 <0> d          -0.128  -2.973   7.586  0.00  0.00     0.009 A 
ATOM     23  C13 <0> d          -0.796  -3.305   8.750  0.00  0.00     0.001 A 
ATOM     24  C14 <0> d          -2.023  -2.731   9.027  0.00  0.00     0.002 A 
ENDBRANCH   2  15
TORSDOF 3
