REMARK  4 active torsions:
REMARK  status: ('A' for Active; 'I' for Inactive)
REMARK    1  A    between atoms: C4_4  and  C9_12 
REMARK    2  A    between atoms: C7_7  and  C8_8 
REMARK       I    between atoms: C8_8  and  N1_10 
REMARK    3  A    between atoms: N1_10  and  N2_11 
REMARK       I    between atoms: C9_12  and  N3_14 
REMARK    4  A    between atoms: N3_14  and  N4_15 
ROOT
ATOM      1  C1  <0> d          -0.241   1.385   0.041  0.00  0.00     0.011 C 
ATOM      2  C2  <0> d           1.271   1.582  -0.332  0.00  0.00    -0.000 C 
ATOM      3  C3  <0> d           1.960   0.875   0.875  0.00  0.00     0.020 C 
ATOM      4  C4  <0> d           1.008  -0.287   1.242  0.00  0.00     0.083 C 
ATOM      5  C5  <0> d          -0.166  -0.172   0.223  0.00  0.00    -0.000 C 
ATOM      6  C6  <0> d           0.460  -0.591  -1.143  0.00  0.00     0.020 C 
ATOM      7  C7  <0> d           1.406   0.585  -1.523  0.00  0.00     0.083 C 
ENDROOT
BRANCH   4   8
ATOM      8  C9  <0> d           1.712  -1.611   1.089  0.00  0.00     0.236 C 
ATOM      9  O2  <0> d           2.901  -1.642   0.852  0.00  0.00    -0.272 OA
ATOM     10  N3  <0> d           1.020  -2.760   1.216  0.00  0.00    -0.294 N 
ATOM     11  H14 <0> d           0.069  -2.736   1.405  0.00  0.00     0.183 HD
BRANCH  10  12
ATOM     12  N4  <0> d           1.658  -3.960   1.077  0.00  0.00    -0.247 NA
ATOM     13  H15 <0> d           1.015  -4.728   1.198  0.00  0.00     0.143 HD
ATOM     14  H16 <0> d           2.128  -4.019   0.186  0.00  0.00     0.143 HD
ENDBRANCH  10  12
ENDBRANCH   4   8
BRANCH   7  15
ATOM     15  C8  <0> d           2.824   0.087  -1.632  0.00  0.00     0.236 C 
ATOM     16  O1  <0> d           3.048  -1.105  -1.656  0.00  0.00    -0.272 OA
ATOM     17  N1  <0> d           3.844   0.965  -1.704  0.00  0.00    -0.294 N 
ATOM     18  H11 <0> d           3.665   1.918  -1.685  0.00  0.00     0.183 HD
BRANCH  17  19
ATOM     19  N2  <0> d           5.129   0.513  -1.803  0.00  0.00    -0.247 NA
ATOM     20  H12 <0> d           5.780   1.282  -1.848  0.00  0.00     0.143 HD
ATOM     21  H13 <0> d           5.354  -0.107  -1.040  0.00  0.00     0.143 HD
ENDBRANCH  17  19
ENDBRANCH   7  15
TORSDOF 4
