REMARK  8 active torsions:
REMARK  status: ('A' for Active; 'I' for Inactive)
REMARK    1  A    between atoms: C2_2  and  C3_3 
REMARK    2  A    between atoms: C2_2  and  C16_24 
REMARK    3  A    between atoms: C3_3  and  N1_4 
REMARK       I    between atoms: N1_4  and  C4_5 
REMARK    4  A    between atoms: C4_5  and  C5_7 
REMARK    5  A    between atoms: C5_7  and  S1_8 
REMARK    6  A    between atoms: S1_8  and  C6_9 
REMARK    7  A    between atoms: C6_9  and  C7_10 
REMARK    8  A    between atoms: C16_24  and  N4_25 
ROOT
ATOM      1  S1  <0> d           5.320  -0.624   3.560  0.00  0.00    -0.152 SA
ENDROOT
BRANCH   1   2
ATOM      2  C5  <0> d           4.443  -0.023   2.090  0.00  0.00     0.177 C 
BRANCH   2   3
ATOM      3  C4  <0> d           2.997  -0.441   2.162  0.00  0.00     0.226 C 
ATOM      4  N1  <0> d           2.148  -0.104   1.172  0.00  0.00    -0.360 N 
ATOM      5  H8  <0> d           2.467   0.409   0.412  0.00  0.00     0.162 HD
ATOM      6  O1  <0> d           2.598  -1.082   3.111  0.00  0.00    -0.273 OA
BRANCH   4   7
ATOM      7  C3  <0> d           0.742  -0.511   1.242  0.00  0.00     0.128 C 
BRANCH   7   8
ATOM      8  C2  <0> d           0.002  -0.004   0.002  0.00  0.00     0.025 C 
ATOM      9  C1  <0> d          -0.019   1.526   0.010  0.00  0.00     0.013 C 
BRANCH   8  10
ATOM     10  C16 <0> d          -1.433  -0.534   0.013  0.00  0.00     0.240 C 
BRANCH  10  11
ATOM     11  N4  <0> d          -2.107  -0.147  -1.234  0.00  0.00    -0.071 N 
ATOM     12  C20 <0> d          -3.530  -0.547  -1.189  0.00  0.00     0.235 C 
ATOM     13  C19 <0> d          -3.925  -0.973  -2.616  0.00  0.00     0.029 C 
ATOM     14  C18 <0> d          -2.635  -0.820  -3.454  0.00  0.00     0.029 C 
ATOM     15  C17 <0> d          -1.517  -0.880  -2.383  0.00  0.00     0.235 C 
ATOM     16  H29 <0> d          -2.030   0.848  -1.378  0.00  0.00     0.279 HD
ENDBRANCH  10  11
ENDBRANCH   8  10
ENDBRANCH   7   8
ENDBRANCH   4   7
ENDBRANCH   2   3
ENDBRANCH   1   2
BRANCH   1  17
ATOM     17  C6  <0> d           7.023  -0.044   3.322  0.00  0.00     0.152 C 
BRANCH  17  18
ATOM     18  C7  <0> d           7.870  -0.482   4.489  0.00  0.00     0.117 A 
ATOM     19  N3  <0> d           7.323  -1.171   5.455  0.00  0.00    -0.226 NA
ATOM     20  C12 <0> d           8.046  -1.577   6.497  0.00  0.00     0.116 A 
ATOM     21  C9  <0> d           9.410  -1.280   6.614  0.00  0.00     0.075 A 
ATOM     22  S2  <0> d           7.699  -2.505   7.967  0.00  0.00    -0.073 SA
ATOM     23  C8  <0> d           9.979  -0.519   5.542  0.00  0.00     0.260 A 
ATOM     24  C10 <0> d          10.080  -1.788   7.821  0.00  0.00    -0.026 A 
ATOM     25  N2  <0> d           9.186  -0.148   4.519  0.00  0.00    -0.310 N 
ATOM     26  O2  <0> d          11.159  -0.212   5.556  0.00  0.00    -0.267 OA
ATOM     27  H2  <0> d           9.562   0.368   3.789  0.00  0.00     0.170 HD
ATOM     28  C15 <0> d          11.506  -1.718   8.375  0.00  0.00     0.041 C 
ATOM     29  C11 <0> d           9.324  -2.484   8.688  0.00  0.00    -0.008 A 
ATOM     30  C14 <0> d          11.590  -2.829   9.440  0.00  0.00     0.010 C 
ATOM     31  C13 <0> d          10.115  -2.957   9.879  0.00  0.00     0.047 C 
ENDBRANCH  17  18
ENDBRANCH   1  17
TORSDOF 8
