REMARK  6 active torsions:
REMARK  status: ('A' for Active; 'I' for Inactive)
REMARK    1  A    between atoms: C2_2  and  C4_4 
REMARK    2  A    between atoms: C4_4  and  C5_5 
REMARK    3  A    between atoms: C4_4  and  N1_8 
REMARK    4  A    between atoms: N1_8  and  C6_9 
REMARK    5  A    between atoms: C6_9  and  C7_10 
REMARK    6  A    between atoms: C7_10  and  N2_11 
ROOT
ATOM      1  C6  <0> d           0.830  -0.422   3.637  0.00  0.00     0.255 C 
ENDROOT
BRANCH   1   2
ATOM      2  N1  <0> d           0.054  -0.037   2.450  0.00  0.00    -0.059 N 
ATOM      3  H9  <0> d          -0.032   0.968   2.416  0.00  0.00     0.278 HD
ATOM      4  H18 <0> d          -0.864  -0.452   2.499  0.00  0.00     0.278 HD
BRANCH   2   5
ATOM      5  C4  <0> d           0.742  -0.511   1.242  0.00  0.00     0.289 C 
BRANCH   5   6
ATOM      6  C2  <0> d           0.002  -0.004   0.002  0.00  0.00     0.019 C 
ATOM      7  C1  <0> d          -0.019   1.526   0.010  0.00  0.00     0.012 C 
ATOM      8  C3  <0> d           0.718  -0.497  -1.257  0.00  0.00     0.012 C 
ENDBRANCH   5   6
BRANCH   5   9
ATOM      9  C5  <0> d           0.762  -2.018   1.233  0.00  0.00     0.205 C 
ATOM     10  O1  <0> d           1.680  -2.612   0.693  0.00  0.00    -0.646 OA
ATOM     11  O2  <0> d          -0.139  -2.643   1.766  0.00  0.00    -0.646 OA
ENDBRANCH   5   9
ENDBRANCH   2   5
ENDBRANCH   1   2
BRANCH   1  12
ATOM     12  C7  <0> d           0.114   0.072   4.896  0.00  0.00     0.183 C 
BRANCH  12  13
ATOM     13  N2  <0> d           0.887  -0.312   6.080  0.00  0.00    -0.216 N 
ATOM     14  N4  <0> d           0.752  -1.503   6.806  0.00  0.00    -0.149 NA
ATOM     15  C13 <0> d           1.621  -1.475   7.790  0.00  0.00     0.158 A 
ATOM     16  N3  <0> d           2.316  -0.282   7.726  0.00  0.00    -0.256 N 
ATOM     17  C12 <0> d           1.919  -2.404   8.819  0.00  0.00     0.053 A 
ATOM     18  C8  <0> d           1.853   0.419   6.672  0.00  0.00     0.350 A 
ATOM     19  C9  <0> d           3.288  -0.003   8.657  0.00  0.00     0.103 A 
ATOM     20  O3  <0> d           2.239   1.520   6.317  0.00  0.00    -0.244 OA
ATOM     21  C10 <0> d           3.575  -0.880   9.634  0.00  0.00     0.018 A 
ATOM     22  C11 <0> d           2.882  -2.105   9.724  0.00  0.00     0.005 A 
ENDBRANCH  12  13
ENDBRANCH   1  12
TORSDOF 6
