REMARK  7 active torsions:
REMARK  status: ('A' for Active; 'I' for Inactive)
REMARK    1  A    between atoms: C2_2  and  C3_3 
REMARK    2  A    between atoms: C3_3  and  C4_4 
REMARK    3  A    between atoms: C8_8  and  C10_11 
REMARK    4  A    between atoms: C9_9  and  O1_10 
REMARK    5  A    between atoms: C10_11  and  N1_12 
REMARK    6  A    between atoms: C13_15  and  C16_18 
REMARK    7  A    between atoms: C19_22  and  C20_24 
ROOT
ATOM      1  N1  <0> d          -1.035  -6.120  -1.299  0.00  0.00    -0.067 N 
ATOM      2  C11 <0> d          -2.248  -6.317  -2.101  0.00  0.00     0.236 C 
ATOM      3  C12 <0> d          -3.236  -7.195  -1.331  0.00  0.00     0.038 C 
ATOM      4  C13 <0> d          -2.587  -8.552  -1.043  0.00  0.00     0.041 C 
ATOM      5  C14 <0> d          -1.284  -8.330  -0.270  0.00  0.00     0.038 C 
ATOM      6  C15 <0> d          -0.368  -7.409  -1.080  0.00  0.00     0.236 C 
ATOM      7  H27 <0> d          -1.284  -5.716  -0.408  0.00  0.00     0.280 HD
ENDROOT
BRANCH   4   8
ATOM      8  C16 <0> d          -3.525  -9.395  -0.217  0.00  0.00     0.046 A 
ATOM      9  C17 <0> d          -3.966 -10.592  -0.697  0.00  0.00     0.102 A 
ATOM     10  C18 <0> d          -4.843 -11.362   0.094  0.00  0.00     0.248 A 
ATOM     11  O2  <0> d          -5.258 -12.438  -0.303  0.00  0.00    -0.268 OA
ATOM     12  N2  <0> d          -5.215 -10.883   1.301  0.00  0.00    -0.306 N 
ATOM     13  C19 <0> d          -4.740  -9.679   1.726  0.00  0.00     0.159 A 
ATOM     14  H26 <0> d          -5.817 -11.395   1.863  0.00  0.00     0.170 HD
ATOM     15  N3  <0> d          -3.918  -8.970   0.983  0.00  0.00    -0.233 NA
BRANCH  13  16
ATOM     16  C20 <0> d          -5.152  -9.161   3.049  0.00  0.00     0.102 A 
ATOM     17  N4  <0> d          -5.978  -9.874   3.807  0.00  0.00    -0.257 NA
ATOM     18  C24 <0> d          -6.364  -9.452   4.992  0.00  0.00     0.117 A 
ATOM     19  C23 <0> d          -5.930  -8.235   5.490  0.00  0.00     0.019 A 
ATOM     20  C22 <0> d          -5.071  -7.456   4.730  0.00  0.00     0.004 A 
ATOM     21  C21 <0> d          -4.676  -7.927   3.489  0.00  0.00     0.036 A 
ENDBRANCH  13  16
ENDBRANCH   4   8
BRANCH   1  22
ATOM     22  C10 <0> d          -0.122  -5.213  -2.008  0.00  0.00     0.276 C 
BRANCH  22  23
ATOM     23  C8  <0> d          -0.758  -3.852  -2.125  0.00  0.00     0.001 A 
ATOM     24  C7  <0> d          -1.367  -3.473  -3.306  0.00  0.00     0.012 A 
ATOM     25  C6  <0> d          -1.950  -2.223  -3.414  0.00  0.00     0.001 A 
ATOM     26  C5  <0> d          -1.925  -1.351  -2.342  0.00  0.00     0.010 A 
ATOM     27  C4  <0> d          -1.318  -1.726  -1.159  0.00  0.00    -0.021 A 
ATOM     28  C9  <0> d          -0.727  -2.976  -1.049  0.00  0.00     0.080 A 
BRANCH  27  29
ATOM     29  C3  <0> d          -1.293  -0.775   0.010  0.00  0.00     0.067 C 
BRANCH  29  30
ATOM     30  C2  <0> d           0.002  -0.004   0.002  0.00  0.00    -0.032 C 
ATOM     31  C1  <0> d          -0.016   1.306   0.009  0.00  0.00     0.007 C 
ENDBRANCH  29  30
ENDBRANCH  27  29
BRANCH  28  32
ATOM     32  O1  <0> d          -0.124  -3.345   0.111  0.00  0.00    -0.360 OA
ATOM     33  H9  <0> d          -0.714  -3.788   0.738  0.00  0.00     0.217 HD
ENDBRANCH  28  32
ENDBRANCH  22  23
ENDBRANCH   1  22
TORSDOF 7
