REMARK  3 active torsions:
REMARK  status: ('A' for Active; 'I' for Inactive)
REMARK    1  A    between atoms: N1_2  and  C3_4 
REMARK    2  A    between atoms: C7_8  and  C9_10 
REMARK    3  A    between atoms: C9_10  and  N2_11 
ROOT
ATOM      1  N2  <0> d           0.675   3.575   1.300  0.00  0.00    -0.066 N 
ATOM      2  C10 <0> d           1.387   3.120   2.501  0.00  0.00     0.235 C 
ATOM      3  C11 <0> d           1.462   1.591   2.503  0.00  0.00     0.029 C 
ATOM      4  C12 <0> d           0.044   1.015   2.478  0.00  0.00     0.014 C 
ATOM      5  C13 <0> d          -0.691   1.543   1.244  0.00  0.00     0.008 C 
ATOM      6  C14 <0> d          -0.705   3.073   1.278  0.00  0.00     0.246 C 
ATOM      7  C15 <0> d          -2.129   1.019   1.242  0.00  0.00     0.014 C 
ATOM      8  C16 <0> d          -2.838   1.502  -0.026  0.00  0.00     0.028 C 
ATOM      9  C17 <0> d          -2.060   1.025  -1.254  0.00  0.00     0.232 C 
ATOM     10  N3  <0> d          -0.692   1.555  -1.205  0.00  0.00    -0.074 N 
ATOM     11  C18 <0> d           0.025   1.066  -0.021  0.00  0.00     0.243 C 
ATOM     12  H27 <0> d          -0.143   1.237  -2.104  0.00  0.00     0.277 HD
ATOM     13  H30 <0> d           1.197   3.161   0.424  0.00  0.00     0.280 HD
ATOM     14  H31 <0> d          -0.726   2.654  -1.166  0.00  0.00     0.277 HD
ENDROOT
BRANCH   1  15
ATOM     15  C9  <0> d           0.704   5.040   1.195  0.00  0.00     0.273 C 
BRANCH  15  16
ATOM     16  C7  <0> d           2.121   5.500   0.968  0.00  0.00    -0.030 A 
ATOM     17  C6  <0> d           2.607   5.628  -0.320  0.00  0.00     0.009 A 
ATOM     18  C5  <0> d           3.907   6.050  -0.532  0.00  0.00     0.003 A 
ATOM     19  C4  <0> d           4.724   6.345   0.542  0.00  0.00     0.029 A 
ATOM     20  C3  <0> d           4.238   6.216   1.837  0.00  0.00     0.029 A 
ATOM     21  C8  <0> d           2.931   5.797   2.047  0.00  0.00     0.038 A 
BRANCH  20  22
ATOM     22  N1  <0> d           5.061   6.512   2.926  0.00  0.00    -0.390 N 
ATOM     23  C1  <0> d           6.473   6.838   2.709  0.00  0.00     0.149 C 
ATOM     24  C2  <0> d           4.513   6.498   4.284  0.00  0.00     0.149 C 
ENDBRANCH  20  22
ENDBRANCH  15  16
ENDBRANCH   1  15
TORSDOF 3
