REMARK  5 active torsions:
REMARK  status: ('A' for Active; 'I' for Inactive)
REMARK    1  A    between atoms: C2_2  and  C3_4 
REMARK    2  A    between atoms: C3_4  and  C4_5 
REMARK    3  A    between atoms: C4_5  and  O4_21 
REMARK    4  A    between atoms: N1_12  and  C12_15 
REMARK    5  A    between atoms: C12_15  and  N2_23 
ROOT
ATOM      1  C4  <0> d           1.188   4.362   4.957  0.00  0.00     0.174 A 
ATOM      2  C5  <0> d           0.782   2.952   5.318  0.00  0.00     0.013 A 
ATOM      3  C6  <0> d           1.201   2.078   6.296  0.00  0.00     0.013 A 
ATOM      4  C7  <0> d           0.621   0.826   6.397  0.00  0.00     0.001 A 
ATOM      5  C8  <0> d          -0.368   0.451   5.506  0.00  0.00     0.002 A 
ATOM      6  C9  <0> d          -0.786   1.323   4.522  0.00  0.00     0.030 A 
ATOM      7  C10 <0> d          -0.213   2.589   4.419  0.00  0.00     0.049 A 
ATOM      8  N1  <0> d          -0.461   3.632   3.526  0.00  0.00    -0.289 N 
ATOM      9  C11 <0> d           0.311   4.705   3.771  0.00  0.00     0.265 A 
ATOM     10  O2  <0> d           0.305   5.752   3.158  0.00  0.00    -0.269 OA
ENDROOT
BRANCH   8  11
ATOM     11  C12 <0> d          -1.451   3.568   2.449  0.00  0.00     0.367 C 
BRANCH  11  12
ATOM     12  N2  <0> d          -0.791   3.057   1.228  0.00  0.00    -0.051 N 
ATOM     13  C13 <0> d          -0.731   1.580   1.266  0.00  0.00     0.263 C 
ATOM     14  C14 <0> d          -0.013   1.086   0.008  0.00  0.00     0.195 C 
ATOM     15  O3  <0> d          -0.706   1.560  -1.149  0.00  0.00    -0.388 OA
ATOM     16  C15 <0> d          -0.807   2.985  -1.216  0.00  0.00     0.195 C 
ATOM     17  C16 <0> d          -1.534   3.499   0.029  0.00  0.00     0.263 C 
ATOM     18  H21 <0> d           0.165   3.429   1.185  0.00  0.00     0.282 HD
ENDBRANCH  11  12
ENDBRANCH   8  11
BRANCH   1  19
ATOM     19  C3  <0> d           2.665   4.410   4.562  0.00  0.00     0.131 C 
BRANCH  19  20
ATOM     20  C2  <0> d           3.021   5.805   4.115  0.00  0.00     0.126 C 
ATOM     21  C1  <0> d           4.426   6.119   3.672  0.00  0.00     0.091 C 
ATOM     22  O1  <0> d           2.179   6.671   4.113  0.00  0.00    -0.298 OA
ENDBRANCH  19  20
ENDBRANCH   1  19
BRANCH   1  23
ATOM     23  O4  <0> d           0.929   5.252   6.045  0.00  0.00    -0.375 OA
ATOM     24  H20 <0> d           1.115   6.180   5.847  0.00  0.00     0.211 HD
ENDBRANCH   1  23
TORSDOF 5
