REMARK  5 active torsions:
REMARK  status: ('A' for Active; 'I' for Inactive)
REMARK    1  A    between atoms: C4_4  and  S1_8 
REMARK    2  A    between atoms: S1_8  and  N1_11 
REMARK    3  A    between atoms: N1_11  and  C7_12 
REMARK    4  A    between atoms: C11_16  and  S2_18 
REMARK    5  A    between atoms: S2_18  and  N2_21 
ROOT
ATOM      1  C7  <0> d           4.289   6.002   3.796  0.00  0.00     0.044 A 
ATOM      2  C8  <0> d           3.998   7.328   4.088  0.00  0.00     0.030 A 
ATOM      3  C9  <0> d           2.703   7.792   3.964  0.00  0.00     0.004 A 
ATOM      4  C10 <0> d           1.697   6.938   3.550  0.00  0.00     0.025 A 
ATOM      5  C11 <0> d           1.984   5.617   3.258  0.00  0.00     0.083 A 
ATOM      6  C12 <0> d           3.276   5.145   3.386  0.00  0.00     0.055 A 
ENDROOT
BRANCH   1   7
ATOM      7  N1  <0> d           5.598   5.529   3.920  0.00  0.00    -0.280 N 
ATOM      8  H5  <0> d           5.981   4.974   3.224  0.00  0.00     0.179 HD
BRANCH   7   9
ATOM      9  S1  <0> d           6.495   5.917   5.257  0.00  0.00     0.266 S 
ATOM     10  O1  <0> d           7.753   5.274   5.103  0.00  0.00    -0.200 OA
ATOM     11  O2  <0> d           6.374   7.322   5.434  0.00  0.00    -0.200 OA
BRANCH   9  12
ATOM     12  C4  <0> d           5.712   5.165   6.646  0.00  0.00     0.118 A 
ATOM     13  C3  <0> d           6.362   4.170   7.350  0.00  0.00     0.028 A 
ATOM     14  C2  <0> d           5.748   3.580   8.440  0.00  0.00     0.002 A 
ATOM     15  C1  <0> d           4.484   3.986   8.826  0.00  0.00     0.003 A 
ATOM     16  C6  <0> d           3.833   4.982   8.123  0.00  0.00     0.044 A 
ATOM     17  C5  <0> d           4.449   5.576   7.035  0.00  0.00     0.139 A 
ATOM     18  F1  <0> d           3.815   6.554   6.350  0.00  0.00    -0.204 F 
ENDBRANCH   9  12
ENDBRANCH   7   9
ENDBRANCH   1   7
BRANCH   5  19
ATOM     19  S2  <0> d           0.699   4.533   2.731  0.00  0.00     0.284 S 
ATOM     20  O3  <0> d          -0.518   5.077   3.221  0.00  0.00    -0.198 OA
ATOM     21  O4  <0> d           1.126   3.215   3.045  0.00  0.00    -0.198 OA
BRANCH  19  22
ATOM     22  N2  <0> d           0.627   4.626   1.079  0.00  0.00    -0.147 NA
ATOM     23  C13 <0> d          -0.241   3.922   0.429  0.00  0.00     0.113 C 
ATOM     24  N3  <0> d          -0.324   3.981  -0.971  0.00  0.00    -0.378 N 
ATOM     25  C14 <0> d          -1.182   3.025   1.133  0.00  0.00     0.079 C 
ATOM     26  C18 <0> d           0.038   2.828  -1.687  0.00  0.00     0.121 C 
ATOM     27  H20 <0> d          -0.619   4.785  -1.426  0.00  0.00     0.160 HD
ATOM     28  C17 <0> d          -0.713   1.571  -1.232  0.00  0.00     0.020 C 
ATOM     29  C16 <0> d          -0.013   1.086   0.008  0.00  0.00     0.002 C 
ATOM     30  C15 <0> d          -0.710   1.571   1.304  0.00  0.00     0.008 C 
ENDBRANCH  19  22
ENDBRANCH   5  19
TORSDOF 5
