REMARK  4 active torsions:
REMARK  status: ('A' for Active; 'I' for Inactive)
REMARK    1  A    between atoms: C5_6  and  C6_7 
REMARK    2  A    between atoms: C6_7  and  N1_8 
REMARK       I    between atoms: N1_8  and  C7_9 
REMARK    3  A    between atoms: C7_9  and  C8_11 
REMARK       I    between atoms: N2_13  and  C16_21 
REMARK    4  A    between atoms: C16_21  and  C17_23 
ROOT
ATOM      1  C8  <0> d          -3.000   0.574   4.774  0.00  0.00     0.106 C 
ATOM      2  C9  <0> d          -3.759  -0.770   4.704  0.00  0.00     0.141 C 
ATOM      3  N2  <0> d          -3.611  -1.354   6.058  0.00  0.00    -0.346 N 
ATOM      4  C10 <0> d          -3.744  -0.197   6.976  0.00  0.00     0.136 C 
ATOM      5  C11 <0> d          -2.996   0.948   6.265  0.00  0.00    -0.007 C 
ATOM      6  C12 <0> d          -3.727   2.270   6.480  0.00  0.00     0.039 C 
ATOM      7  C13 <0> d          -3.659   2.651   7.962  0.00  0.00     0.233 C 
ATOM      8  N3  <0> d          -2.255   2.772   8.374  0.00  0.00    -0.075 N 
ATOM      9  C14 <0> d          -1.584   1.473   8.252  0.00  0.00     0.233 C 
ATOM     10  C15 <0> d          -1.564   1.042   6.782  0.00  0.00     0.039 C 
ATOM     11  C16 <0> d          -3.403  -2.646   6.383  0.00  0.00     0.261 C 
ATOM     12  O2  <0> d          -3.213  -3.470   5.508  0.00  0.00    -0.267 OA
ATOM     13  H18 <0> d          -1.790   3.447   7.785  0.00  0.00     0.277 HD
ATOM     14  H28 <0> d          -2.213   3.083   9.333  0.00  0.00     0.277 HD
ENDROOT
BRANCH   1  15
ATOM     15  C7  <0> d          -1.589   0.406   4.271  0.00  0.00     0.224 C 
ATOM     16  N1  <0> d          -0.961   1.437   3.671  0.00  0.00    -0.356 N 
ATOM     17  H9  <0> d          -1.417   2.286   3.563  0.00  0.00     0.162 HD
ATOM     18  O1  <0> d          -1.020  -0.656   4.406  0.00  0.00    -0.273 OA
BRANCH  16  19
ATOM     19  C6  <0> d           0.410   1.274   3.183  0.00  0.00     0.169 C 
BRANCH  19  20
ATOM     20  C5  <0> d           0.878   2.564   2.559  0.00  0.00     0.006 A 
ATOM     21  C2  <0> d           1.513   3.611   3.139  0.00  0.00    -0.047 A 
ATOM     22  C1  <0> d           1.845   3.586   4.609  0.00  0.00     0.049 C 
ATOM     23  C3  <0> d           1.856   4.701   2.361  0.00  0.00     0.015 A 
ATOM     24  C4  <0> d           1.543   4.692   1.042  0.00  0.00     0.051 A 
ATOM     25  S1  <0> d           0.737   3.109   0.865  0.00  0.00    -0.104 SA
ENDBRANCH  19  20
ENDBRANCH  16  19
ENDBRANCH   1  15
BRANCH  11  26
ATOM     26  C17 <0> d          -3.404  -3.057   7.790  0.00  0.00     0.078 A 
ATOM     27  S2  <0> d          -3.779  -2.094   9.242  0.00  0.00    -0.096 SA
ATOM     28  C20 <0> d          -3.558  -3.279  10.412  0.00  0.00     0.051 A 
ATOM     29  C19 <0> d          -3.198  -4.380   9.707  0.00  0.00     0.015 A 
ATOM     30  C18 <0> d          -3.109  -4.296   8.338  0.00  0.00    -0.039 A 
ATOM     31  C21 <0> d          -2.716  -5.476   7.487  0.00  0.00     0.050 C 
ENDBRANCH  11  26
TORSDOF 4
