REMARK  3 active torsions:
REMARK  status: ('A' for Active; 'I' for Inactive)
REMARK    1  A    between atoms: C5_5  and  C7_7 
REMARK    2  A    between atoms: C7_7  and  C8_8 
REMARK    3  A    between atoms: C7_7  and  N2_19 
ROOT
ATOM      1  C8  <0> d           1.345  -2.679  -1.441  0.00  0.00    -0.001 A 
ATOM      2  C9  <0> d           1.207  -1.794  -2.497  0.00  0.00     0.021 A 
ATOM      3  C10 <0> d           1.314  -2.247  -3.792  0.00  0.00    -0.022 A 
ATOM      4  C11 <0> d           1.560  -3.588  -4.059  0.00  0.00     0.043 A 
ATOM      5  C12 <0> d           1.698  -4.474  -2.992  0.00  0.00     0.054 A 
ATOM      6  C13 <0> d           1.596  -4.016  -1.693  0.00  0.00     0.044 A 
ATOM      7 Cl1  <0> d           1.776  -5.125  -0.370  0.00  0.00    -0.084 Cl
ATOM      8  N1  <0> d           1.626  -3.802  -5.436  0.00  0.00    -0.326 N 
ATOM      9  C14 <0> d           1.437  -2.671  -6.136  0.00  0.00     0.226 A 
ATOM     10  O1  <0> d           1.442  -2.562  -7.344  0.00  0.00    -0.273 OA
ATOM     11  C15 <0> d           1.217  -1.558  -5.133  0.00  0.00     0.144 A 
ATOM     12  H8  <0> d           1.790  -4.668  -5.841  0.00  0.00     0.169 HD
ENDROOT
BRANCH   1  13
ATOM     13  C7  <0> d           1.228  -2.186  -0.022  0.00  0.00     0.254 C 
BRANCH  13  14
ATOM     14  C5  <0> d           1.374  -0.686   0.003  0.00  0.00     0.015 A 
ATOM     15  C4  <0> d           2.633  -0.114   0.061  0.00  0.00     0.125 A 
ATOM     16  C3  <0> d           2.766   1.264   0.084  0.00  0.00     0.043 A 
ATOM     17  F1  <0> d           3.732  -0.900   0.096  0.00  0.00    -0.205 F 
ATOM     18  C2  <0> d           1.642   2.067   0.048  0.00  0.00     0.003 A 
ATOM     19  C1  <0> d           0.385   1.494  -0.010  0.00  0.00     0.001 A 
ATOM     20  C6  <0> d           0.251   0.118  -0.033  0.00  0.00     0.012 A 
ENDBRANCH  13  14
BRANCH  13  21
ATOM     21  N2  <0> d          -0.086  -2.559   0.519  0.00  0.00    -0.067 N 
ATOM     22  H11 <0> d          -0.812  -2.141  -0.043  0.00  0.00     0.275 HD
ATOM     23  H12 <0> d          -0.183  -3.563   0.503  0.00  0.00     0.275 HD
ATOM     24  H13 <0> d          -0.164  -2.230   1.470  0.00  0.00     0.275 HD
ENDBRANCH  13  21
ENDBRANCH   1  13
TORSDOF 3
