REMARK  6 active torsions:
REMARK  status: ('A' for Active; 'I' for Inactive)
REMARK    1  A    between atoms: C5_6  and  C6_7 
REMARK       I    between atoms: C6_7  and  N2_9 
REMARK    2  A    between atoms: N2_9  and  C7_10 
REMARK    3  A    between atoms: C12_15  and  O2_16 
REMARK    4  A    between atoms: O2_16  and  C13_17 
REMARK    5  A    between atoms: C13_17  and  C14_18 
REMARK    6  A    between atoms: C14_18  and  O3_19 
ROOT
ATOM      1  C7  <0> d          -0.396   1.369   4.114  0.00  0.00     0.071 A 
ATOM      2  C8  <0> d          -0.289   0.452   5.150  0.00  0.00     0.074 A 
ATOM      3  C9  <0> d          -0.294   0.889   6.463  0.00  0.00     0.118 A 
ATOM      4  C10 <0> d          -0.405   2.240   6.745  0.00  0.00     0.045 A 
ATOM      5  C11 <0> d          -0.512   3.158   5.717  0.00  0.00     0.042 A 
ATOM      6  C12 <0> d          -0.502   2.728   4.400  0.00  0.00     0.095 A 
ATOM      7  F1  <0> d          -0.190  -0.004   7.471  0.00  0.00    -0.206 F 
ENDROOT
BRANCH   1   8
ATOM      8  N2  <0> d          -0.391   0.929   2.785  0.00  0.00    -0.319 N 
ATOM      9  C6  <0> d          -0.431  -0.390   2.511  0.00  0.00     0.273 C 
ATOM     10  O1  <0> d          -0.515  -1.197   3.418  0.00  0.00    -0.266 OA
ATOM     11  H6  <0> d          -0.359   1.574   2.061  0.00  0.00     0.169 HD
BRANCH   9  12
ATOM     12  C5  <0> d          -0.374  -0.852   1.121  0.00  0.00     0.104 A 
ATOM     13  N1  <0> d          -0.499  -2.154   0.690  0.00  0.00    -0.355 N 
ATOM     14  C1  <0> d          -0.714  -3.321   1.549  0.00  0.00     0.156 C 
ATOM     15  C2  <0> d          -0.397  -2.175  -0.662  0.00  0.00     0.110 A 
ATOM     16  C3  <0> d          -0.203  -0.909  -1.107  0.00  0.00     0.028 A 
ATOM     17  C4  <0> d          -0.183  -0.062   0.006  0.00  0.00     0.056 A 
ATOM     18 Br1  <0> d           0.003  -0.383  -2.911  0.00  0.00    -0.050 Br
ENDBRANCH   9  12
ENDBRANCH   1   8
BRANCH   6  19
ATOM     19  O2  <0> d          -0.601   3.631   3.388  0.00  0.00    -0.347 OA
BRANCH  19  20
ATOM     20  C13 <0> d          -0.706   5.008   3.755  0.00  0.00     0.201 C 
BRANCH  20  21
ATOM     21  C14 <0> d          -0.808   5.866   2.492  0.00  0.00     0.193 C 
BRANCH  21  22
ATOM     22  O3  <0> d          -2.025   5.563   1.807  0.00  0.00    -0.394 OA
ATOM     23  C15 <0> d          -2.219   6.315   0.607  0.00  0.00     0.201 C 
ENDBRANCH  21  22
ENDBRANCH  20  21
ENDBRANCH  19  20
ENDBRANCH   6  19
TORSDOF 6
