REMARK  3 active torsions:
REMARK  status: ('A' for Active; 'I' for Inactive)
REMARK    1  A    between atoms: C6_6  and  N1_7 
REMARK    2  A    between atoms: N2_11  and  C8_14 
REMARK    3  A    between atoms: C8_14  and  C9_15 
ROOT
ATOM      1  C1  <0> d          -0.017   1.388   0.010  0.00  0.00     0.030 A 
ATOM      2  C2  <0> d           1.152   2.108   0.002  0.00  0.00     0.021 A 
ATOM      3  C3  <0> d           2.396   1.449  -0.013  0.00  0.00     0.056 A 
ATOM      4  C4  <0> d           2.386   0.045  -0.021  0.00  0.00     0.098 A 
ATOM      5  C5  <0> d           1.228  -0.672  -0.013  0.00  0.00     0.055 A 
ATOM      6  C6  <0> d           0.002  -0.004   0.002  0.00  0.00     0.027 A 
ATOM      7  S1  <0> d           4.106  -0.381  -0.039  0.00  0.00     0.269 S 
ATOM      8  O1  <0> d           4.414  -0.992   1.206  0.00  0.00    -0.200 OA
ATOM      9  O2  <0> d           4.389  -0.979  -1.296  0.00  0.00    -0.200 OA
ATOM     10  N2  <0> d           4.787   1.148  -0.037  0.00  0.00    -0.232 N 
ATOM     11  C7  <0> d           3.753   2.002  -0.023  0.00  0.00     0.269 A 
ATOM     12  O3  <0> d           3.938   3.204  -0.019  0.00  0.00    -0.266 OA
ENDROOT
BRANCH  10  13
ATOM     13  C8  <0> d           6.214   1.482  -0.049  0.00  0.00     0.191 C 
BRANCH  13  14
ATOM     14  C9  <0> d           6.661   1.725  -1.467  0.00  0.00     0.003 A 
ATOM     15  S2  <0> d           7.310   0.562  -2.656  0.00  0.00    -0.103 SA
ATOM     16  C12 <0> d           7.555   1.697  -4.012  0.00  0.00     0.069 A 
ATOM     17  C11 <0> d           7.139   2.870  -3.474  0.00  0.00     0.018 A 
ATOM     18  C10 <0> d           6.681   2.884  -2.170  0.00  0.00     0.035 A 
ATOM     19 Br1  <0> d           7.185   4.463  -4.493  0.00  0.00    -0.051 Br
ENDBRANCH  13  14
ENDBRANCH  10  13
BRANCH   6  20
ATOM     20  N1  <0> d          -1.188  -0.722   0.010  0.00  0.00    -0.399 N 
ATOM     21  H4  <0> d          -2.038  -0.254   0.021  0.00  0.00     0.156 HD
ATOM     22  H5  <0> d          -1.170  -1.692   0.005  0.00  0.00     0.156 HD
ENDBRANCH   6  20
TORSDOF 3
