REMARK  6 active torsions:
REMARK  status: ('A' for Active; 'I' for Inactive)
REMARK    1  A    between atoms: C2_2  and  O1_3 
REMARK    2  A    between atoms: O1_3  and  C3_4 
REMARK    3  A    between atoms: C6_7  and  C9_10 
REMARK       I    between atoms: C9_10  and  N1_12 
REMARK    4  A    between atoms: N1_12  and  C10_13 
REMARK    5  A    between atoms: N2_15  and  C11_16 
REMARK    6  A    between atoms: C16_21  and  O3_22 
ROOT
ATOM      1  C9  <0> d          -0.236  -0.714   5.910  0.00  0.00     0.257 C 
ATOM      2  O2  <0> d          -0.221  -1.929   5.904  0.00  0.00    -0.267 OA
ATOM      3  N1  <0> d          -0.155  -0.033   4.750  0.00  0.00    -0.299 N 
ATOM      4  H10 <0> d          -0.168   0.937   4.755  0.00  0.00     0.171 HD
ENDROOT
BRANCH   3   5
ATOM      5  C10 <0> d          -0.056  -0.700   3.583  0.00  0.00     0.179 C 
ATOM      6  S1  <0> d          -0.033  -2.411   3.574  0.00  0.00    -0.040 SA
ATOM      7  N2  <0> d           0.026  -0.018   2.423  0.00  0.00    -0.331 N 
ATOM      8  H11 <0> d           0.093   0.949   2.432  0.00  0.00     0.168 HD
BRANCH   7   9
ATOM      9  C11 <0> d           0.013  -0.708   1.203  0.00  0.00     0.067 A 
ATOM     10  C16 <0> d           0.911  -0.361   0.196  0.00  0.00     0.092 A 
ATOM     11  C15 <0> d           0.890  -1.043  -1.010  0.00  0.00     0.039 A 
ATOM     12  C14 <0> d          -0.012  -2.072  -1.207  0.00  0.00     0.003 A 
ATOM     13  C13 <0> d          -0.902  -2.417  -0.208  0.00  0.00     0.002 A 
ATOM     14  C12 <0> d          -0.892  -1.738   0.996  0.00  0.00     0.032 A 
BRANCH  10  15
ATOM     15  O3  <0> d           1.801   0.648   0.393  0.00  0.00    -0.358 OA
ATOM     16  H16 <0> d           2.643   0.361   0.772  0.00  0.00     0.217 HD
ENDBRANCH  10  15
ENDBRANCH   7   9
ENDBRANCH   3   5
BRANCH   1  17
ATOM     17  C6  <0> d          -0.345   0.016   7.188  0.00  0.00     0.032 A 
ATOM     18  C5  <0> d          -0.430  -0.689   8.392  0.00  0.00     0.020 A 
ATOM     19  C4  <0> d          -0.530  -0.004   9.582  0.00  0.00     0.038 A 
ATOM     20  C3  <0> d          -0.547   1.386   9.587  0.00  0.00     0.068 A 
ATOM     21  C8  <0> d          -0.464   2.090   8.392  0.00  0.00     0.038 A 
ATOM     22  C7  <0> d          -0.358   1.413   7.198  0.00  0.00     0.020 A 
BRANCH  20  23
ATOM     23  O1  <0> d          -0.647   2.057  10.763  0.00  0.00    -0.352 OA
BRANCH  23  24
ATOM     24  C2  <0> d          -0.659   3.485  10.695  0.00  0.00     0.171 C 
ATOM     25  C1  <0> d          -0.775   4.061  12.108  0.00  0.00     0.034 C 
ENDBRANCH  23  24
ENDBRANCH  20  23
ENDBRANCH   1  17
TORSDOF 6
