REMARK  4 active torsions:
REMARK  status: ('A' for Active; 'I' for Inactive)
REMARK    1  A    between atoms: C2_2  and  C3_3 
REMARK    2  A    between atoms: C3_3  and  C15_19 
REMARK    3  A    between atoms: N1_7  and  C8_9 
REMARK    4  A    between atoms: N2_12  and  C12_16 
ROOT
ATOM      1  C3  <0> d          -1.644  -0.784  -0.221  0.00  0.00     0.064 C 
ATOM      2  C4  <0> d          -2.172  -0.068   1.024  0.00  0.00     0.024 C 
ATOM      3  C5  <0> d          -1.229  -0.325   2.202  0.00  0.00     0.021 C 
ATOM      4  C6  <0> d          -1.181  -1.828   2.493  0.00  0.00     0.124 C 
ATOM      5  N1  <0> d          -0.814  -2.537   1.260  0.00  0.00    -0.361 N 
ATOM      6  C7  <0> d          -1.601  -2.293   0.043  0.00  0.00     0.145 C 
ENDROOT
BRANCH   5   7
ATOM      7  C8  <0> d           0.256  -3.422   1.245  0.00  0.00     0.173 A 
ATOM      8  N3  <0> d           0.684  -3.932   0.110  0.00  0.00    -0.347 N 
ATOM      9  C11 <0> d           1.714  -4.777   0.088  0.00  0.00     0.107 A 
ATOM     10  H23 <0> d           0.247  -3.687  -0.721  0.00  0.00     0.167 HD
ATOM     11  C10 <0> d           2.350  -5.152   1.218  0.00  0.00     0.112 A 
ATOM     12  N2  <0> d           1.960  -4.669   2.432  0.00  0.00    -0.316 N 
ATOM     13  C9  <0> d           0.922  -3.805   2.495  0.00  0.00     0.292 A 
ATOM     14  O1  <0> d           0.548  -3.356   3.565  0.00  0.00    -0.264 OA
BRANCH  12  15
ATOM     15  C12 <0> d           2.657  -5.082   3.653  0.00  0.00     0.084 C 
ATOM     16  C13 <0> d           2.550  -6.600   3.813  0.00  0.00     0.032 C 
ATOM     17  C14 <0> d           4.131  -4.682   3.559  0.00  0.00     0.032 C 
ENDBRANCH  12  15
ENDBRANCH   5   7
BRANCH   1  18
ATOM     18  C2  <0> d          -0.235  -0.281  -0.540  0.00  0.00     0.018 C 
ATOM     19  C1  <0> d          -0.279   1.225  -0.804  0.00  0.00     0.006 C 
ENDBRANCH   1  18
BRANCH   1  20
ATOM     20  C15 <0> d          -2.555  -0.504  -1.388  0.00  0.00     0.183 C 
ATOM     21  O2  <0> d          -2.118   0.047  -2.384  0.00  0.00    -0.647 OA
ATOM     22  O3  <0> d          -3.729  -0.829  -1.337  0.00  0.00    -0.647 OA
ENDBRANCH   1  20
TORSDOF 4
