REMARK  6 active torsions:
REMARK  status: ('A' for Active; 'I' for Inactive)
REMARK    1  A    between atoms: C4_4  and  C7_7 
REMARK    2  A    between atoms: C8_8  and  C16_18 
REMARK    3  A    between atoms: N1_10  and  C10_12 
REMARK       I    between atoms: C16_18  and  N3_20 
REMARK    4  A    between atoms: N3_20  and  C17_21 
REMARK    5  A    between atoms: C17_21  and  C18_22 
REMARK       I    between atoms: C18_22  and  N4_24 
REMARK    6  A    between atoms: N4_24  and  C19_25 
ROOT
ATOM      1  C16 <0> d           3.067  -2.910   1.326  0.00  0.00     0.255 C 
ATOM      2  O1  <0> d           1.948  -2.483   1.535  0.00  0.00    -0.268 OA
ATOM      3  N3  <0> d           3.540  -3.945   2.049  0.00  0.00    -0.348 N 
ATOM      4  H14 <0> d           4.433  -4.285   1.882  0.00  0.00     0.163 HD
ENDROOT
BRANCH   1   5
ATOM      5  C8  <0> d           3.906  -2.296   0.283  0.00  0.00     0.080 A 
ATOM      6  C7  <0> d           3.593  -1.101  -0.506  0.00  0.00     0.104 A 
ATOM      7  N2  <0> d           4.603  -0.903  -1.323  0.00  0.00    -0.166 NA
ATOM      8  N1  <0> d           5.566  -1.893  -1.108  0.00  0.00    -0.244 N 
ATOM      9  C9  <0> d           5.144  -2.732  -0.145  0.00  0.00     0.138 A 
BRANCH   6  10
ATOM     10  C4  <0> d           2.365  -0.276  -0.407  0.00  0.00    -0.005 A 
ATOM     11  C3  <0> d           1.850   0.064   0.843  0.00  0.00     0.014 A 
ATOM     12  C2  <0> d           0.707   0.832   0.930  0.00  0.00     0.001 A 
ATOM     13  C1  <0> d           0.073   1.266  -0.221  0.00  0.00     0.000 A 
ATOM     14  C6  <0> d           0.579   0.932  -1.464  0.00  0.00     0.001 A 
ATOM     15  C5  <0> d           1.722   0.164  -1.563  0.00  0.00     0.014 A 
ENDBRANCH   6  10
BRANCH   8  16
ATOM     16  C10 <0> d           6.782  -2.000  -1.795  0.00  0.00     0.058 A 
ATOM     17  C15 <0> d           7.112  -1.071  -2.773  0.00  0.00     0.031 A 
ATOM     18  C14 <0> d           8.315  -1.175  -3.444  0.00  0.00     0.002 A 
ATOM     19  C13 <0> d           9.184  -2.209  -3.151  0.00  0.00     0.000 A 
ATOM     20  C12 <0> d           8.856  -3.139  -2.182  0.00  0.00     0.002 A 
ATOM     21  C11 <0> d           7.657  -3.037  -1.503  0.00  0.00     0.031 A 
ENDBRANCH   8  16
ENDBRANCH   1   5
BRANCH   3  22
ATOM     22  C17 <0> d           2.705  -4.555   3.086  0.00  0.00     0.226 C 
BRANCH  22  23
ATOM     23  C18 <0> d           3.462  -5.682   3.741  0.00  0.00     0.239 C 
ATOM     24  O2  <0> d           4.588  -5.949   3.377  0.00  0.00    -0.271 OA
ATOM     25  N4  <0> d           2.888  -6.394   4.731  0.00  0.00    -0.326 N 
ATOM     26  H17 <0> d           1.962  -6.231   4.972  0.00  0.00     0.169 HD
BRANCH  25  27
ATOM     27  C19 <0> d           3.628  -7.368   5.413  0.00  0.00     0.037 A 
ATOM     28  C24 <0> d           4.988  -7.189   5.615  0.00  0.00     0.061 A 
ATOM     29  C23 <0> d           5.716  -8.153   6.295  0.00  0.00     0.065 A 
ATOM     30  C22 <0> d           5.081  -9.304   6.764  0.00  0.00     0.063 A 
ATOM     31  N5  <0> d           7.059  -8.260   6.651  0.00  0.00    -0.306 N 
ATOM     32  C21 <0> d           3.721  -9.480   6.555  0.00  0.00     0.034 A 
ATOM     33  N6  <0> d           6.058 -10.076   7.391  0.00  0.00    -0.307 N 
ATOM     34  C20 <0> d           2.998  -8.516   5.882  0.00  0.00     0.032 A 
ATOM     35  C25 <0> d           7.233  -9.423   7.306  0.00  0.00     0.325 A 
ATOM     36  H2  <0> d           5.916 -10.937   7.817  0.00  0.00     0.170 HD
ATOM     37  O3  <0> d           8.291  -9.824   7.754  0.00  0.00    -0.247 OA
ATOM     38  H1  <0> d           7.751  -7.608   6.459  0.00  0.00     0.170 HD
ENDBRANCH  25  27
ENDBRANCH  22  23
ENDBRANCH   3  22
TORSDOF 6
