REMARK  2 active torsions:
REMARK  status: ('A' for Active; 'I' for Inactive)
REMARK    1  A    between atoms: C5_5  and  N1_8 
REMARK       I    between atoms: N1_8  and  C7_9 
REMARK    2  A    between atoms: C7_9  and  C8_11 
ROOT
ATOM      1  N1  <0> d          -2.458   3.825   0.046  0.00  0.00    -0.324 N 
ATOM      2  C7  <0> d          -3.586   3.200  -0.346  0.00  0.00     0.226 C 
ATOM      3  O1  <0> d          -3.561   2.020  -0.625  0.00  0.00    -0.273 OA
ATOM      4  H3  <0> d          -2.496   4.873   0.378  0.00  0.00     0.169 HD
ENDROOT
BRANCH   1   5
ATOM      5  C5  <0> d          -1.237   3.139   0.031  0.00  0.00     0.070 A 
ATOM      6  C4  <0> d          -0.809   2.454   1.162  0.00  0.00     0.040 A 
ATOM      7  C3  <0> d           0.396   1.778   1.144  0.00  0.00     0.040 A 
ATOM      8 Br2  <0> d          -1.875   2.447   2.724  0.00  0.00    -0.049 Br
ATOM      9  C2  <0> d           1.176   1.783   0.001  0.00  0.00     0.013 A 
ATOM     10  C1  <0> d           0.753   2.463  -1.127  0.00  0.00     0.040 A 
ATOM     11 Br3  <0> d           2.825   0.856  -0.019  0.00  0.00    -0.051 Br
ATOM     12  C6  <0> d          -0.449   3.146  -1.113  0.00  0.00     0.040 A 
ATOM     13 Br1  <0> d          -1.023   4.083  -2.652  0.00  0.00    -0.049 Br
ENDBRANCH   1   5
BRANCH   2  14
ATOM     14  C8  <0> d          -4.880   3.969  -0.437  0.00  0.00     0.081 C 
ATOM     15  C12 <0> d          -5.999   3.033  -0.902  0.00  0.00     0.041 C 
ATOM     16  C11 <0> d          -7.321   3.804  -0.934  0.00  0.00     0.233 C 
ATOM     17  N2  <0> d          -7.618   4.324   0.406  0.00  0.00    -0.075 N 
ATOM     18  C10 <0> d          -6.581   5.261   0.855  0.00  0.00     0.233 C 
ATOM     19  H9  <0> d          -7.675   3.477   1.107  0.00  0.00     0.277 HD
ATOM     20  H14 <0> d          -8.590   4.839   0.375  0.00  0.00     0.277 HD
ATOM     21  C9  <0> d          -5.237   4.534   0.940  0.00  0.00     0.041 C 
ENDBRANCH   2  14
TORSDOF 2
