REMARK  5 active torsions:
REMARK  status: ('A' for Active; 'I' for Inactive)
REMARK    1  A    between atoms: C5_5  and  N1_9 
REMARK       I    between atoms: N1_9  and  C9_10 
REMARK       I    between atoms: C9_10  and  N2_12 
REMARK       I    between atoms: N2_12  and  C10_13 
REMARK    2  A    between atoms: C10_13  and  C11_15 
REMARK    3  A    between atoms: C11_15  and  S1_17 
REMARK    4  A    between atoms: S1_17  and  C13_18 
REMARK    5  A    between atoms: N4_28  and  C21_29 
ROOT
ATOM      1  C13 <0> d          -2.446   5.754   0.834  0.00  0.00     0.156 A 
ATOM      2  N3  <0> d          -1.297   6.193   0.384  0.00  0.00    -0.335 N 
ATOM      3  C14 <0> d          -0.994   7.512   0.385  0.00  0.00     0.050 A 
ATOM      4  C15 <0> d           0.232   7.982  -0.096  0.00  0.00     0.030 A 
ATOM      5  C16 <0> d           0.497   9.322  -0.076  0.00  0.00     0.002 A 
ATOM      6  C17 <0> d          -0.435  10.228   0.416  0.00  0.00     0.001 A 
ATOM      7  C18 <0> d          -1.643   9.798   0.893  0.00  0.00     0.019 A 
ATOM      8  C19 <0> d          -1.940   8.436   0.884  0.00  0.00     0.059 A 
ATOM      9  C20 <0> d          -3.220   7.918   1.384  0.00  0.00     0.268 A 
ATOM     10  O3  <0> d          -4.074   8.665   1.825  0.00  0.00    -0.267 OA
ATOM     11  N4  <0> d          -3.418   6.580   1.329  0.00  0.00    -0.242 N 
ATOM     12  H27 <0> d          -0.553   5.484  -0.008  0.00  0.00     0.168 HD
ENDROOT
BRANCH   1  13
ATOM     13  S1  <0> d          -2.758   4.020   0.795  0.00  0.00    -0.079 SA
BRANCH  13  14
ATOM     14  C11 <0> d          -1.205   3.438   0.069  0.00  0.00     0.143 C 
ATOM     15  C12 <0> d          -1.081   3.968  -1.361  0.00  0.00     0.031 C 
BRANCH  14  16
ATOM     16  C10 <0> d          -1.194   1.931   0.049  0.00  0.00     0.239 C 
ATOM     17  N2  <0> d          -0.021   1.266   0.042  0.00  0.00    -0.278 N 
ATOM     18  C9  <0> d          -0.011  -0.081   0.024  0.00  0.00     0.327 C 
ATOM     19  H12 <0> d           0.927   1.824   0.051  0.00  0.00     0.173 HD
ATOM     20  N1  <0> d           1.161  -0.746   0.011  0.00  0.00    -0.308 N 
ATOM     21  O1  <0> d          -1.059  -0.697   0.019  0.00  0.00    -0.247 OA
ATOM     22  H11 <0> d           2.107  -0.191  -0.078  0.00  0.00     0.170 HD
ATOM     23  O2  <0> d          -2.239   1.317   0.039  0.00  0.00    -0.272 OA
BRANCH  20  24
ATOM     24  C5  <0> d           1.175  -2.142   0.111  0.00  0.00     0.042 A 
ATOM     25  C4  <0> d           0.119  -2.806   0.721  0.00  0.00     0.030 A 
ATOM     26  C3  <0> d           0.136  -4.184   0.818  0.00  0.00     0.009 A 
ATOM     27  C2  <0> d           1.203  -4.901   0.309  0.00  0.00    -0.061 A 
ATOM     28  C1  <0> d           1.218  -6.404   0.417  0.00  0.00     0.048 C 
ATOM     29  C7  <0> d           2.256  -4.243  -0.297  0.00  0.00     0.015 A 
ATOM     30  C6  <0> d           2.243  -2.865  -0.403  0.00  0.00    -0.035 A 
ATOM     31  C8  <0> d           3.388  -2.149  -1.071  0.00  0.00     0.050 C 
ENDBRANCH  20  24
ENDBRANCH  14  16
ENDBRANCH  13  14
ENDBRANCH   1  13
BRANCH  11  32
ATOM     32  C21 <0> d          -4.622   6.039   1.787  0.00  0.00     0.117 A 
ATOM     33  N5  <0> d          -4.775   5.777   3.075  0.00  0.00    -0.352 N 
ATOM     34  C25 <0> d          -5.895   5.266   3.549  0.00  0.00     0.090 A 
ATOM     35  H26 <0> d          -3.956   5.985   3.780  0.00  0.00     0.166 HD
ATOM     36  C24 <0> d          -6.955   4.984   2.710  0.00  0.00     0.024 A 
ATOM     37  C23 <0> d          -6.835   5.244   1.352  0.00  0.00    -0.057 A 
ATOM     38  C22 <0> d          -5.649   5.786   0.886  0.00  0.00     0.056 A 
ATOM     39  C26 <0> d          -7.971   4.950   0.407  0.00  0.00     0.048 C 
ENDBRANCH  11  32
TORSDOF 5
