REMARK  5 active torsions:
REMARK  status: ('A' for Active; 'I' for Inactive)
REMARK    1  A    between atoms: C2_2  and  C3_3 
REMARK    2  A    between atoms: C2_2  and  N4_19 
REMARK    3  A    between atoms: C3_3  and  N1_4 
REMARK       I    between atoms: N1_4  and  C4_5 
REMARK       I    between atoms: C4_5  and  N2_7 
REMARK    4  A    between atoms: N2_7  and  C5_8 
REMARK    5  A    between atoms: C9_12  and  C11_14 
ROOT
ATOM      1  N1  <0> d           0.665  -2.154  -1.046  0.00  0.00    -0.341 N 
ATOM      2  C4  <0> d           1.163  -2.942  -2.020  0.00  0.00     0.320 C 
ATOM      3  O1  <0> d           1.741  -2.445  -2.968  0.00  0.00    -0.247 OA
ATOM      4  N2  <0> d           1.022  -4.280  -1.943  0.00  0.00    -0.309 N 
ATOM      5  H7  <0> d           0.205  -2.550  -0.290  0.00  0.00     0.164 HD
ATOM      6  H8  <0> d           0.503  -4.672  -1.224  0.00  0.00     0.170 HD
ENDROOT
BRANCH   1   7
ATOM      7  C3  <0> d           0.819  -0.700  -1.130  0.00  0.00     0.157 C 
BRANCH   7   8
ATOM      8  C2  <0> d           0.053  -0.039   0.017  0.00  0.00     0.202 C 
ATOM      9  C1  <0> d           0.148   1.482  -0.115  0.00  0.00     0.042 C 
BRANCH   8  10
ATOM     10  N4  <0> d          -1.357  -0.447  -0.037  0.00  0.00    -0.061 N 
ATOM     11  C22 <0> d          -2.063   0.068   1.140  0.00  0.00     0.274 C 
ATOM     12  C21 <0> d          -3.540  -0.206   1.035  0.00  0.00    -0.026 A 
ATOM     13  C16 <0> d          -4.138  -0.502  -0.171  0.00  0.00    -0.049 A 
ATOM     14  C20 <0> d          -4.308  -0.153   2.189  0.00  0.00     0.009 A 
ATOM     15  C15 <0> d          -3.340  -0.575  -1.448  0.00  0.00     0.067 C 
ATOM     16  C17 <0> d          -5.503  -0.739  -0.226  0.00  0.00     0.007 A 
ATOM     17  C14 <0> d          -1.983   0.102  -1.249  0.00  0.00     0.240 C 
ATOM     18  C18 <0> d          -6.266  -0.684   0.923  0.00  0.00     0.001 A 
ATOM     19  C19 <0> d          -5.666  -0.391   2.134  0.00  0.00     0.001 A 
ATOM     20  H25 <0> d          -1.417  -1.454  -0.052  0.00  0.00     0.280 HD
ENDBRANCH   8  10
ENDBRANCH   7   8
ENDBRANCH   1   7
BRANCH   4  21
ATOM     21  C5  <0> d           1.623  -5.103  -2.902  0.00  0.00     0.037 A 
ATOM     22  C10 <0> d           2.828  -4.731  -3.478  0.00  0.00     0.043 A 
ATOM     23  C9  <0> d           3.426  -5.558  -4.428  0.00  0.00     0.001 A 
ATOM     24  C8  <0> d           2.802  -6.750  -4.801  0.00  0.00     0.014 A 
ATOM     25  C7  <0> d           1.600  -7.109  -4.226  0.00  0.00     0.003 A 
ATOM     26  C6  <0> d           1.010  -6.292  -3.280  0.00  0.00     0.029 A 
BRANCH  23  27
ATOM     27  C11 <0> d           4.713  -5.171  -5.043  0.00  0.00     0.104 A 
ATOM     28  O2  <0> d           5.427  -4.053  -4.782  0.00  0.00    -0.302 OA
ATOM     29  C13 <0> d           6.528  -4.085  -5.545  0.00  0.00     0.258 A 
ATOM     30  N3  <0> d           6.513  -5.169  -6.268  0.00  0.00    -0.246 NA
ATOM     31  C12 <0> d           5.403  -5.866  -5.983  0.00  0.00     0.156 A 
ENDBRANCH  23  27
ENDBRANCH   4  21
TORSDOF 5
