REMARK  7 active torsions:
REMARK  status: ('A' for Active; 'I' for Inactive)
REMARK    1  A    between atoms: C6_7  and  C9_10 
REMARK    2  A    between atoms: C9_10  and  C10_11 
REMARK    3  A    between atoms: C10_11  and  C11_12 
REMARK    4  A    between atoms: C10_11  and  N3_22 
REMARK       I    between atoms: C11_12  and  N2_14 
REMARK    5  A    between atoms: N2_14  and  C12_15 
REMARK    6  A    between atoms: N3_22  and  S1_23 
REMARK    7  A    between atoms: S1_23  and  C19_26 
ROOT
ATOM      1  C10 <0> d           0.457  -3.653  -1.462  0.00  0.00     0.189 C 
ENDROOT
BRANCH   1   2
ATOM      2  C9  <0> d           0.691  -3.186  -0.024  0.00  0.00     0.072 C 
BRANCH   2   3
ATOM      3  C6  <0> d           1.631  -2.008  -0.025  0.00  0.00    -0.048 A 
ATOM      4  C5  <0> d           3.143  -2.053  -0.041  0.00  0.00     0.155 A 
ATOM      5  N1  <0> d           3.587  -0.654  -0.037  0.00  0.00    -0.385 N 
ATOM      6  C4  <0> d           2.529   0.120  -0.022  0.00  0.00     0.038 A 
ATOM      7  H33 <0> d           4.509  -0.353  -0.045  0.00  0.00     0.160 HD
ATOM      8  C3  <0> d           2.391   1.535  -0.013  0.00  0.00     0.030 A 
ATOM      9  C7  <0> d           1.295  -0.698  -0.014  0.00  0.00    -0.006 A 
ATOM     10  C2  <0> d           1.166   2.101   0.002  0.00  0.00     0.002 A 
ATOM     11  C1  <0> d          -0.016   1.348   0.009  0.00  0.00     0.001 A 
ATOM     12  C8  <0> d           0.002  -0.004   0.002  0.00  0.00     0.014 A 
ENDBRANCH   2   3
ENDBRANCH   1   2
BRANCH   1  13
ATOM     13  C11 <0> d          -0.385  -4.904  -1.452  0.00  0.00     0.241 C 
ATOM     14  O1  <0> d          -1.459  -4.916  -2.016  0.00  0.00    -0.271 OA
ATOM     15  N2  <0> d           0.057  -6.008  -0.819  0.00  0.00    -0.355 N 
ATOM     16  H10 <0> d           0.915  -5.998  -0.368  0.00  0.00     0.162 HD
BRANCH  15  17
ATOM     17  C12 <0> d          -0.761  -7.224  -0.810  0.00  0.00     0.084 C 
ATOM     18  C18 <0> d           0.108  -8.376  -0.623  0.00  0.00     0.025 C 
ATOM     19  C17 <0> d          -0.665  -9.709  -0.667  0.00  0.00     0.002 C 
ATOM     20  C16 <0> d          -1.320  -9.927   0.670  0.00  0.00     0.000 C 
ATOM     21  C15 <0> d          -2.772  -9.415   0.706  0.00  0.00     0.000 C 
ATOM     22  C14 <0> d          -2.945  -8.058  -0.003  0.00  0.00     0.002 C 
ATOM     23  C13 <0> d          -1.823  -7.103   0.302  0.00  0.00     0.025 C 
ENDBRANCH  15  17
ENDBRANCH   1  13
BRANCH   1  24
ATOM     24  N3  <0> d          -0.238  -2.603  -2.210  0.00  0.00    -0.301 N 
ATOM     25  H24 <0> d          -1.205  -2.539  -2.172  0.00  0.00     0.173 HD
BRANCH  24  26
ATOM     26  S1  <0> d           0.628  -1.524  -3.121  0.00  0.00     0.259 S 
ATOM     27  O2  <0> d          -0.318  -0.661  -3.736  0.00  0.00    -0.201 OA
ATOM     28  O3  <0> d           1.674  -1.040  -2.291  0.00  0.00    -0.201 OA
BRANCH  26  29
ATOM     29  C19 <0> d           1.395  -2.437  -4.418  0.00  0.00     0.080 A 
ATOM     30  C24 <0> d           0.737  -2.612  -5.622  0.00  0.00     0.034 A 
ATOM     31  C23 <0> d           1.339  -3.322  -6.641  0.00  0.00    -0.029 A 
ATOM     32  C22 <0> d           2.601  -3.870  -6.454  0.00  0.00     0.041 A 
ATOM     33  C25 <0> d           0.627  -3.511  -7.956  0.00  0.00     0.050 C 
ATOM     34  C21 <0> d           3.258  -3.697  -5.243  0.00  0.00     0.031 A 
ATOM     35  N4  <0> d           3.208  -4.594  -7.486  0.00  0.00    -0.327 N 
ATOM     36  C20 <0> d           2.653  -2.981  -4.229  0.00  0.00     0.027 A 
ATOM     37  C27 <0> d           2.777  -4.465  -8.754  0.00  0.00     0.222 C 
ATOM     38  H32 <0> d           3.944  -5.193  -7.285  0.00  0.00     0.169 HD
ATOM     39  C26 <0> d           1.650  -3.528  -9.093  0.00  0.00     0.108 C 
ATOM     40  O4  <0> d           3.305  -5.111  -9.634  0.00  0.00    -0.273 OA
ENDBRANCH  26  29
ENDBRANCH  24  26
ENDBRANCH   1  24
TORSDOF 7
