REMARK  9 active torsions:
REMARK  status: ('A' for Active; 'I' for Inactive)
REMARK    1  A    between atoms: N1_2  and  C2_3 
REMARK    2  A    between atoms: N1_2  and  S1_6 
REMARK    3  A    between atoms: C2_3  and  C3_4 
REMARK    4  A    between atoms: C3_4  and  O1_5 
REMARK    5  A    between atoms: S1_6  and  C4_9 
REMARK    6  A    between atoms: C5_10  and  C10_17 
REMARK    7  A    between atoms: C11_18  and  C12_19 
REMARK    8  A    between atoms: C12_19  and  C13_20 
REMARK    9  A    between atoms: C13_20  and  O4_21 
ROOT
ATOM      1  C4  <0> d           1.682  -1.059  -1.905  0.00  0.00     0.137 A 
ATOM      2  C5  <0> d           2.331  -0.101  -2.684  0.00  0.00     0.047 A 
ATOM      3  C6  <0> d           3.663  -0.293  -3.052  0.00  0.00     0.064 A 
ATOM      4  C7  <0> d           4.332  -1.431  -2.643  0.00  0.00     0.120 A 
ATOM      5  C8  <0> d           3.683  -2.380  -1.870  0.00  0.00     0.086 A 
ATOM      6  C9  <0> d           2.362  -2.191  -1.497  0.00  0.00     0.144 A 
ATOM      7  F1  <0> d           1.737  -3.117  -0.738  0.00  0.00    -0.204 F 
ATOM      8  F2  <0> d           5.622  -1.619  -2.998  0.00  0.00    -0.206 F 
ENDROOT
BRANCH   1   9
ATOM      9  S1  <0> d          -0.000  -0.824  -1.437  0.00  0.00     0.265 S 
ATOM     10  O2  <0> d          -0.531  -2.115  -1.167  0.00  0.00    -0.200 OA
ATOM     11  O3  <0> d          -0.572   0.049  -2.401  0.00  0.00    -0.200 OA
BRANCH   9  12
ATOM     12  N1  <0> d           0.002  -0.004   0.002  0.00  0.00    -0.309 N 
ATOM     13  C1  <0> d          -0.018   1.461   0.010  0.00  0.00     0.163 C 
BRANCH  12  14
ATOM     14  C2  <0> d           0.024  -0.743   1.267  0.00  0.00     0.160 C 
BRANCH  14  15
ATOM     15  C3  <0> d          -1.406  -0.912   1.784  0.00  0.00     0.184 C 
BRANCH  15  16
ATOM     16  O1  <0> d          -2.146  -1.733   0.879  0.00  0.00    -0.399 OA
ATOM     17  H8  <0> d          -3.064  -1.883   1.144  0.00  0.00     0.209 HD
ENDBRANCH  15  16
ENDBRANCH  14  15
ENDBRANCH  12  14
ENDBRANCH   9  12
ENDBRANCH   1   9
BRANCH   2  18
ATOM     18  C10 <0> d           1.632   1.076  -3.106  0.00  0.00    -0.065 C 
ATOM     19  C11 <0> d           1.059   2.041  -3.451  0.00  0.00    -0.099 C 
BRANCH  19  20
ATOM     20  C12 <0> d           0.341   3.250  -3.884  0.00  0.00     0.120 C 
BRANCH  20  21
ATOM     21  C13 <0> d           1.276   4.127  -4.719  0.00  0.00     0.176 C 
BRANCH  21  22
ATOM     22  O4  <0> d           0.579   5.301  -5.139  0.00  0.00    -0.400 OA
ATOM     23  H15 <0> d           1.112   5.905  -5.675  0.00  0.00     0.209 HD
ENDBRANCH  21  22
ENDBRANCH  20  21
ENDBRANCH  19  20
ENDBRANCH   2  18
TORSDOF 9
