REMARK  4 active torsions:
REMARK  status: ('A' for Active; 'I' for Inactive)
REMARK    1  A    between atoms: C2_2  and  O1_3 
REMARK    2  A    between atoms: O1_3  and  C3_4 
REMARK    3  A    between atoms: C3_4  and  C4_6 
REMARK    4  A    between atoms: C4_6  and  N1_14 
ROOT
ATOM      1  C4  <0> d           1.468  -2.353  -2.550  0.00  0.00     0.247 C 
ATOM      2  C5  <0> d           2.973  -2.382  -2.302  0.00  0.00     0.067 C 
ATOM      3  C6  <0> d           3.712  -2.689  -3.607  0.00  0.00     0.143 C 
ATOM      4  S1  <0> d           3.237  -4.349  -4.175  0.00  0.00     0.144 S 
ATOM      5  O3  <0> d           3.619  -5.293  -3.183  0.00  0.00    -0.228 OA
ATOM      6  O4  <0> d           3.699  -4.520  -5.508  0.00  0.00    -0.228 OA
ATOM      7  C7  <0> d           1.424  -4.237  -4.198  0.00  0.00     0.143 C 
ATOM      8  C8  <0> d           0.940  -3.758  -2.827  0.00  0.00     0.067 C 
ENDROOT
BRANCH   1   9
ATOM      9  C3  <0> d           0.775  -1.794  -1.334  0.00  0.00     0.298 C 
ATOM     10  O2  <0> d           0.314  -2.540  -0.504  0.00  0.00    -0.262 OA
BRANCH   9  11
ATOM     11  O1  <0> d           0.671  -0.465  -1.174  0.00  0.00    -0.320 OA
BRANCH  11  12
ATOM     12  C2  <0> d           0.002  -0.004   0.002  0.00  0.00     0.174 C 
ATOM     13  C1  <0> d          -0.019   1.526   0.010  0.00  0.00     0.034 C 
ENDBRANCH  11  12
ENDBRANCH   9  11
ENDBRANCH   1   9
BRANCH   1  14
ATOM     14  N1  <0> d           1.185  -1.493  -3.707  0.00  0.00     0.110 N 
ATOM     15  C13 <0> d           1.669  -0.117  -3.474  0.00  0.00     0.301 C 
ATOM     16  C12 <0> d           1.994   0.492  -4.815  0.00  0.00     0.262 C 
ATOM     17  N2  <0> d           0.872   1.289  -5.349  0.00  0.00    -0.073 N 
ATOM     18  C11 <0> d          -0.444   0.645  -5.141  0.00  0.00     0.234 C 
ATOM     19  H20 <0> d           1.013   1.426  -6.339  0.00  0.00     0.277 HD
ATOM     20  H25 <0> d           0.868   2.190  -4.895  0.00  0.00     0.277 HD
ATOM     21  C10 <0> d          -0.428  -0.838  -5.410  0.00  0.00     0.057 C 
ATOM     22  C9  <0> d          -0.161  -1.582  -4.080  0.00  0.00     0.276 C 
ENDBRANCH   1  14
TORSDOF 4
