REMARK  7 active torsions:
REMARK  status: ('A' for Active; 'I' for Inactive)
REMARK    1  A    between atoms: C9_10  and  C11_12 
REMARK    2  A    between atoms: C11_12  and  C12_13 
REMARK    3  A    between atoms: C11_12  and  N4_35 
REMARK    4  A    between atoms: C12_13  and  N2_14 
REMARK       I    between atoms: N2_14  and  C13_15 
REMARK    5  A    between atoms: C13_15  and  C14_17 
REMARK       I    between atoms: C14_17  and  N3_19 
REMARK    6  A    between atoms: N3_19  and  C15_20 
REMARK    7  A    between atoms: C20_25  and  S1_26 
ROOT
ATOM      1  C11 <0> d           3.277  -1.285   4.702  0.00  0.00     0.238 C 
ENDROOT
BRANCH   1   2
ATOM      2  C9  <0> d           1.823  -1.056   4.378  0.00  0.00    -0.025 A 
ATOM      3  C8  <0> d           0.872  -1.978   4.774  0.00  0.00     0.011 A 
ATOM      4  C7  <0> d          -0.457  -1.768   4.474  0.00  0.00     0.025 A 
ATOM      5  C6  <0> d          -0.851  -0.627   3.773  0.00  0.00     0.016 A 
ATOM      6  N1  <0> d          -2.209  -0.476   3.496  0.00  0.00    -0.287 NA
ATOM      7  C5  <0> d           0.104   0.295   3.384  0.00  0.00    -0.036 A 
ATOM      8  C1  <0> d          -3.033  -1.016   4.585  0.00  0.00     0.116 C 
ATOM      9  C2  <0> d          -2.583   0.907   3.192  0.00  0.00     0.095 C 
ATOM     10  C3  <0> d          -1.674   1.426   2.070  0.00  0.00     0.019 C 
ATOM     11  C4  <0> d          -0.257   1.552   2.633  0.00  0.00     0.041 C 
ATOM     12  C10 <0> d           1.439   0.075   3.686  0.00  0.00     0.018 A 
ENDBRANCH   1   2
BRANCH   1  13
ATOM     13  C12 <0> d           3.415  -1.693   6.170  0.00  0.00     0.161 C 
BRANCH  13  14
ATOM     14  N2  <0> d           4.815  -2.012   6.459  0.00  0.00    -0.351 N 
ATOM     15  C13 <0> d           5.160  -2.497   7.669  0.00  0.00     0.309 C 
ATOM     16  O1  <0> d           4.310  -2.669   8.518  0.00  0.00    -0.262 OA
ATOM     17  H16 <0> d           5.494  -1.875   5.780  0.00  0.00     0.162 HD
BRANCH  15  18
ATOM     18  C14 <0> d           6.587  -2.822   7.963  0.00  0.00     0.314 C 
ATOM     19  O2  <0> d           7.437  -2.650   7.114  0.00  0.00    -0.262 OA
ATOM     20  N3  <0> d           6.932  -3.307   9.173  0.00  0.00    -0.318 N 
ATOM     21  H17 <0> d           6.245  -3.521   9.823  0.00  0.00     0.169 HD
BRANCH  20  22
ATOM     22  C15 <0> d           8.280  -3.501   9.489  0.00  0.00     0.052 A 
ATOM     23  C20 <0> d           8.639  -4.364  10.527  0.00  0.00     0.026 A 
ATOM     24  C19 <0> d           9.979  -4.552  10.836  0.00  0.00     0.021 A 
ATOM     25  C18 <0> d          10.953  -3.886  10.117  0.00  0.00     0.002 A 
ATOM     26  C17 <0> d          10.598  -3.031   9.089  0.00  0.00     0.002 A 
ATOM     27  C16 <0> d           9.266  -2.842   8.770  0.00  0.00     0.031 A 
BRANCH  23  28
ATOM     28  S1  <0> d           7.394  -5.212  11.441  0.00  0.00    -0.132 SA
ATOM     29  C21 <0> d           8.327  -6.189  12.651  0.00  0.00     0.095 C 
ENDBRANCH  23  28
ENDBRANCH  20  22
ENDBRANCH  15  18
ENDBRANCH  13  14
ENDBRANCH   1  13
BRANCH   1  30
ATOM     30  N4  <0> d           3.834  -2.360   3.856  0.00  0.00    -0.061 N 
ATOM     31  C22 <0> d           3.929  -1.901   2.453  0.00  0.00     0.236 C 
ATOM     32  C23 <0> d           4.617  -2.986   1.621  0.00  0.00     0.028 C 
ATOM     33  C24 <0> d           3.792  -4.274   1.688  0.00  0.00     0.003 C 
ATOM     34  C25 <0> d           3.639  -4.697   3.151  0.00  0.00     0.028 C 
ATOM     35  C26 <0> d           2.979  -3.563   3.939  0.00  0.00     0.236 C 
ATOM     36  H35 <0> d           4.775  -2.596   4.193  0.00  0.00     0.280 HD
ENDBRANCH   1  30
TORSDOF 7
