REMARK  3 active torsions:
REMARK  status: ('A' for Active; 'I' for Inactive)
REMARK    1  A    between atoms: C2_2  and  C3_3 
REMARK    2  A    between atoms: C2_2  and  O2_18 
REMARK    3  A    between atoms: C7_7  and  C12_14 
ROOT
ATOM      1  C3  <0> d           0.662  -0.608   1.244  0.00  0.00     0.130 A 
ATOM      2  C4  <0> d           0.752  -2.107   1.039  0.00  0.00     0.003 A 
ATOM      3  C5  <0> d           0.144  -2.902   1.965  0.00  0.00    -0.012 A 
ATOM      4  C6  <0> d           0.183  -4.360   1.845  0.00  0.00     0.021 A 
ATOM      5  C7  <0> d          -0.437  -5.112   2.790  0.00  0.00    -0.050 A 
ATOM      6  C8  <0> d          -1.104  -4.522   3.865  0.00  0.00     0.010 A 
ATOM      7  C9  <0> d          -1.176  -3.176   4.034  0.00  0.00     0.031 A 
ATOM      8  C10 <0> d          -0.567  -2.307   3.110  0.00  0.00     0.044 A 
ATOM      9  N1  <0> d          -0.643  -0.988   3.286  0.00  0.00    -0.326 N 
ATOM     10  C11 <0> d          -0.096  -0.117   2.457  0.00  0.00     0.232 A 
ATOM     11  O1  <0> d          -0.200   1.077   2.670  0.00  0.00    -0.272 OA
ATOM     12  H20 <0> d          -1.124  -0.652   4.059  0.00  0.00     0.169 HD
ENDROOT
BRANCH   1  13
ATOM     13  C2  <0> d           0.002  -0.004   0.002  0.00  0.00     0.130 C 
ATOM     14  C1  <0> d           0.815  -0.376  -1.240  0.00  0.00     0.040 C 
BRANCH  13  15
ATOM     15  O2  <0> d          -1.326  -0.515  -0.128  0.00  0.00    -0.395 OA
ATOM     16  H19 <0> d          -1.371  -1.476  -0.220  0.00  0.00     0.210 HD
ENDBRANCH  13  15
ENDBRANCH   1  13
BRANCH   5  17
ATOM     17  C12 <0> d          -0.405  -6.614   2.677  0.00  0.00    -0.024 C 
ATOM     18  C13 <0> d           1.047  -7.096   2.701  0.00  0.00     0.019 C 
ATOM     19  C14 <0> d          -1.167  -7.231   3.851  0.00  0.00     0.019 C 
ATOM     20  C15 <0> d          -1.062  -7.041   1.362  0.00  0.00     0.019 C 
ENDBRANCH   5  17
TORSDOF 3
