REMARK  5 active torsions:
REMARK  status: ('A' for Active; 'I' for Inactive)
REMARK    1  A    between atoms: C2_2  and  C3_3 
REMARK    2  A    between atoms: C2_2  and  N5_23 
REMARK    3  A    between atoms: C9_12  and  C10_13 
REMARK    4  A    between atoms: C9_12  and  N6_32 
REMARK       I    between atoms: N5_23  and  C19_24 
REMARK    5  A    between atoms: C19_24  and  C20_26 
ROOT
ATOM      1  C3  <0> d           1.209   1.742  -0.000  0.00  0.00     0.152 A 
ATOM      2  N1  <0> d          -0.015   1.284   0.009  0.00  0.00    -0.133 NA
ATOM      3  N2  <0> d           0.002  -0.004   0.002  0.00  0.00    -0.135 NA
ATOM      4  C4  <0> d           1.234  -0.422  -0.017  0.00  0.00     0.131 A 
ATOM      5  N3  <0> d           2.034   0.673  -0.002  0.00  0.00    -0.317 N 
ATOM      6  C5  <0> d           3.496   0.669   0.024  0.00  0.00     0.159 C 
ATOM      7  C6  <0> d           4.009  -0.611  -0.642  0.00  0.00     0.255 C 
ATOM      8  C7  <0> d           2.846  -2.014   0.971  0.00  0.00     0.243 C 
ATOM      9  C8  <0> d           1.724  -1.846  -0.058  0.00  0.00     0.108 C 
ATOM     10  N6  <0> d           4.150  -1.707   0.344  0.00  0.00    -0.065 N 
ATOM     11  H25 <0> d           4.489  -2.546  -0.141  0.00  0.00     0.280 HD
ENDROOT
BRANCH  10  12
ATOM     12  C9  <0> d           5.128  -1.328   1.380  0.00  0.00     0.273 C 
BRANCH  12  13
ATOM     13  C10 <0> d           5.437  -2.542   2.216  0.00  0.00    -0.030 A 
ATOM     14  C18 <0> d           4.707  -2.785   3.339  0.00  0.00     0.041 A 
ATOM     15  C17 <0> d           4.987  -3.919   4.121  0.00  0.00     0.067 A 
ATOM     16  C13 <0> d           6.037  -4.785   3.727  0.00  0.00    -0.007 A 
ATOM     17  N4  <0> d           4.284  -4.186   5.226  0.00  0.00    -0.260 NA
ATOM     18  C12 <0> d           6.773  -4.501   2.566  0.00  0.00     0.014 A 
ATOM     19  C14 <0> d           6.319  -5.918   4.515  0.00  0.00     0.015 A 
ATOM     20  C11 <0> d           6.469  -3.396   1.831  0.00  0.00     0.010 A 
ATOM     21  C15 <0> d           5.563  -6.131   5.631  0.00  0.00     0.020 A 
ATOM     22  C16 <0> d           4.544  -5.239   5.962  0.00  0.00     0.117 A 
ENDBRANCH  12  13
ENDBRANCH  10  12
BRANCH   1  23
ATOM     23  C2  <0> d           1.623   3.191  -0.007  0.00  0.00     0.152 C 
ATOM     24  C1  <0> d           1.394   3.780  -1.400  0.00  0.00     0.040 C 
BRANCH  23  25
ATOM     25  N5  <0> d           0.824   3.931   0.974  0.00  0.00    -0.344 N 
ATOM     26  C19 <0> d           1.307   5.067   1.516  0.00  0.00     0.276 C 
ATOM     27  O1  <0> d           2.405   5.477   1.191  0.00  0.00    -0.265 OA
ATOM     28  H21 <0> d          -0.051   3.604   1.232  0.00  0.00     0.163 HD
BRANCH  26  29
ATOM     29  C20 <0> d           0.507   5.808   2.497  0.00  0.00     0.142 A 
ATOM     30  O2  <0> d          -0.722   5.468   2.938  0.00  0.00    -0.317 OA
ATOM     31  C23 <0> d          -1.141   6.374   3.830  0.00  0.00     0.143 A 
ATOM     32  C22 <0> d          -0.185   7.320   3.970  0.00  0.00     0.027 A 
ATOM     33  C21 <0> d           0.875   6.966   3.121  0.00  0.00     0.045 A 
ENDBRANCH  26  29
ENDBRANCH  23  25
ENDBRANCH   1  23
TORSDOF 5
