REMARK  4 active torsions:
REMARK  status: ('A' for Active; 'I' for Inactive)
REMARK    1  A    between atoms: C8_9  and  C10_13 
REMARK    2  A    between atoms: C10_13  and  O2_15 
REMARK    3  A    between atoms: O2_15  and  C12_16 
REMARK    4  A    between atoms: C12_16  and  C13_18 
ROOT
ATOM      1  C1  <0> d          -0.019   1.526   0.010  0.00  0.00     0.010 C 
ATOM      2  C2  <0> d           0.002  -0.004   0.002  0.00  0.00    -0.017 C 
ATOM      3  C3  <0> d           0.702  -0.489  -1.265  0.00  0.00     0.009 C 
ATOM      4  C4  <0> d           2.123   0.085  -1.344  0.00  0.00     0.037 C 
ATOM      5  C5  <0> d           2.809  -0.264  -0.025  0.00  0.00    -0.047 C 
ATOM      6  C6  <0> d           3.969  -0.911   0.083  0.00  0.00     0.073 A 
ATOM      7  C7  <0> d           4.411  -1.344   1.435  0.00  0.00     0.112 A 
ATOM      8  N1  <0> d           5.516  -2.025   1.629  0.00  0.00    -0.223 NA
ATOM      9  C8  <0> d           6.254  -2.325   0.560  0.00  0.00     0.160 A 
ATOM     10  N2  <0> d           5.969  -1.998  -0.674  0.00  0.00    -0.191 NA
ATOM     11  C9  <0> d           4.875  -1.309  -1.047  0.00  0.00     0.282 A 
ATOM     12  O1  <0> d           4.637  -1.030  -2.210  0.00  0.00    -0.265 OA
ATOM     13  S1  <0> d           3.169  -0.735   2.531  0.00  0.00    -0.100 SA
ATOM     14  C18 <0> d           2.124   0.120   1.289  0.00  0.00     0.084 C 
ATOM     15  C19 <0> d           0.729  -0.504   1.254  0.00  0.00     0.024 C 
ENDROOT
BRANCH   9  16
ATOM     16  C10 <0> d           7.523  -3.104   0.793  0.00  0.00     0.199 C 
ATOM     17  C11 <0> d           8.404  -3.028  -0.455  0.00  0.00     0.048 C 
BRANCH  16  18
ATOM     18  O2  <0> d           7.200  -4.469   1.067  0.00  0.00    -0.307 OA
BRANCH  18  19
ATOM     19  C12 <0> d           8.039  -5.144   1.867  0.00  0.00     0.282 C 
ATOM     20  O3  <0> d           9.016  -4.595   2.321  0.00  0.00    -0.263 OA
BRANCH  19  21
ATOM     21  C13 <0> d           7.764  -6.588   2.200  0.00  0.00     0.183 C 
ATOM     22  N3  <0> d           8.974  -7.230   2.727  0.00  0.00    -0.384 N 
ATOM     23  C16 <0> d           8.944  -7.361   3.994  0.00  0.00     0.058 C 
ATOM     24  C17 <0> d          10.092  -7.670   1.887  0.00  0.00     0.149 C 
ATOM     25  C15 <0> d           7.657  -6.814   4.572  0.00  0.00     0.047 C 
ATOM     26  C14 <0> d           6.725  -6.687   3.342  0.00  0.00     0.040 C 
ENDBRANCH  19  21
ENDBRANCH  18  19
ENDBRANCH  16  18
ENDBRANCH   9  16
TORSDOF 4
