REMARK  2 active torsions:
REMARK  status: ('A' for Active; 'I' for Inactive)
REMARK       I    between atoms: N1_4  and  C8_10 
REMARK    1  A    between atoms: C8_10  and  C9_12 
REMARK    2  A    between atoms: N3_21  and  C16_25 
ROOT
ATOM      1  C9  <0> d          -3.150  -2.054  -1.405  0.00  0.00     0.050 A 
ATOM      2  C10 <0> d          -2.760  -0.927  -2.140  0.00  0.00     0.039 A 
ATOM      3  C11 <0> d          -3.582  -0.516  -3.182  0.00  0.00     0.079 A 
ATOM      4  C12 <0> d          -3.257   0.657  -4.013  0.00  0.00     0.263 A 
ATOM      5  O3  <0> d          -2.250   1.306  -3.809  0.00  0.00    -0.267 OA
ATOM      6  N2  <0> d          -4.109   0.990  -5.007  0.00  0.00    -0.274 N 
ATOM      7  H1  <0> d          -3.914   1.758  -5.566  0.00  0.00     0.173 HD
ATOM      8  C13 <0> d          -5.222   0.274  -5.234  0.00  0.00     0.331 A 
ATOM      9  O4  <0> d          -5.956   0.615  -6.141  0.00  0.00    -0.246 OA
ATOM     10  N3  <0> d          -5.561  -0.802  -4.505  0.00  0.00    -0.278 N 
ATOM     11  C14 <0> d          -4.763  -1.232  -3.464  0.00  0.00     0.149 A 
ATOM     12  N4  <0> d          -5.090  -2.292  -2.740  0.00  0.00    -0.241 NA
ATOM     13  C15 <0> d          -4.333  -2.714  -1.750  0.00  0.00     0.136 A 
ENDROOT
BRANCH   1  14
ATOM     14  C8  <0> d          -2.320  -2.541  -0.286  0.00  0.00     0.255 C 
ATOM     15  N1  <0> d          -1.820  -1.669   0.612  0.00  0.00    -0.343 N 
ATOM     16  C3  <0> d          -1.066  -2.138   1.786  0.00  0.00     0.157 C 
ATOM     17  C4  <0> d          -2.011  -0.219   0.447  0.00  0.00     0.163 C 
ATOM     18  C2  <0> d          -1.657  -1.477   3.036  0.00  0.00     0.136 C 
ATOM     19  C1  <0> d          -0.776  -1.792   4.246  0.00  0.00     0.041 C 
ATOM     20  O1  <0> d          -1.709  -0.061   2.839  0.00  0.00    -0.373 OA
ATOM     21  C5  <0> d          -2.556   0.349   1.763  0.00  0.00     0.070 C 
ATOM     22  C6  <0> d          -3.973  -0.176   1.998  0.00  0.00     0.047 C 
ATOM     23  C7  <0> d          -2.582   1.877   1.687  0.00  0.00     0.047 C 
ATOM     24  O2  <0> d          -2.087  -3.729  -0.174  0.00  0.00    -0.267 OA
ENDBRANCH   1  14
BRANCH  10  25
ATOM     25  C16 <0> d          -6.794  -1.529  -4.819  0.00  0.00     0.096 A 
ATOM     26  C18 <0> d          -6.880  -2.217  -6.184  0.00  0.00     0.028 A 
ATOM     27  C17 <0> d          -6.710  -3.054  -4.914  0.00  0.00     0.028 A 
ENDBRANCH  10  25
TORSDOF 2
