REMARK  3 active torsions:
REMARK  status: ('A' for Active; 'I' for Inactive)
REMARK    1  A    between atoms: C7_7  and  N4_20 
REMARK    2  A    between atoms: C8_9  and  C10_13 
REMARK    3  A    between atoms: C10_13  and  N5_25 
ROOT
ATOM      1  C1  <0> d           7.624   3.121   3.195  0.00  0.00     0.005 C 
ATOM      2  C2  <0> d           7.627   3.566   4.660  0.00  0.00     0.005 C 
ATOM      3  C3  <0> d           6.401   4.457   4.907  0.00  0.00     0.047 C 
ATOM      4  C4  <0> d           5.198   3.778   4.325  0.00  0.00    -0.008 A 
ATOM      5  C5  <0> d           5.182   2.745   3.459  0.00  0.00    -0.028 A 
ATOM      6  C6  <0> d           3.870   2.255   3.034  0.00  0.00     0.053 A 
ATOM      7  C7  <0> d           3.563   1.193   2.139  0.00  0.00     0.137 A 
ATOM      8  N1  <0> d           2.295   0.906   1.891  0.00  0.00    -0.214 NA
ATOM      9  C8  <0> d           1.301   1.581   2.439  0.00  0.00     0.155 A 
ATOM     10  N2  <0> d           1.523   2.575   3.276  0.00  0.00    -0.224 NA
ATOM     11  C9  <0> d           2.757   2.924   3.583  0.00  0.00     0.114 A 
ATOM     12  S1  <0> d           3.492   4.157   4.625  0.00  0.00    -0.073 SA
ATOM     13  C15 <0> d           6.484   2.130   2.956  0.00  0.00     0.041 C 
ENDROOT
BRANCH   9  14
ATOM     14  C10 <0> d          -0.119   1.202   2.105  0.00  0.00     0.315 C 
BRANCH  14  15
ATOM     15  N5  <0> d          -0.566   1.992   0.938  0.00  0.00    -0.054 N 
ATOM     16  C11 <0> d          -2.009   1.786   0.712  0.00  0.00     0.255 C 
ATOM     17  C12 <0> d          -2.484   2.828  -0.303  0.00  0.00     0.150 C 
ATOM     18  N3  <0> d          -1.616   2.814  -1.478  0.00  0.00    -0.358 N 
ATOM     19  C13 <0> d          -0.394   2.270  -1.472  0.00  0.00     0.243 C 
ATOM     20  H13 <0> d          -1.940   3.217  -2.298  0.00  0.00     0.162 HD
ATOM     21  O1  <0> d           0.273   2.330  -2.483  0.00  0.00    -0.272 OA
ATOM     22  C14 <0> d           0.187   1.588  -0.266  0.00  0.00     0.337 C 
ATOM     23  H20 <0> d          -0.394   2.988   1.122  0.00  0.00     0.281 HD
ENDBRANCH  14  15
ENDBRANCH   9  14
BRANCH   7  24
ATOM     24  N4  <0> d           4.576   0.465   1.541  0.00  0.00    -0.383 N 
ATOM     25  H16 <0> d           5.479   0.513   1.892  0.00  0.00     0.157 HD
ATOM     26  H17 <0> d           4.384  -0.092   0.771  0.00  0.00     0.157 HD
ENDBRANCH   7  24
TORSDOF 3
