REMARK  4 active torsions:
REMARK  status: ('A' for Active; 'I' for Inactive)
REMARK    1  A    between atoms: C3_3  and  S1_16 
REMARK    2  A    between atoms: C6_6  and  N1_7 
REMARK       I    between atoms: N1_7  and  C7_8 
REMARK    3  A    between atoms: C7_8  and  C8_10 
REMARK    4  A    between atoms: S1_16  and  C12_19 
ROOT
ATOM      1  C1  <0> d           1.072  -0.453  -0.766  0.00  0.00     0.031 A 
ATOM      2  C2  <0> d           2.256   0.259  -0.778  0.00  0.00     0.026 A 
ATOM      3  C3  <0> d           2.376   1.416  -0.032  0.00  0.00     0.065 A 
ATOM      4  C4  <0> d           1.312   1.866   0.728  0.00  0.00     0.026 A 
ATOM      5  C5  <0> d           0.126   1.160   0.744  0.00  0.00     0.031 A 
ATOM      6  C6  <0> d           0.002  -0.004  -0.004  0.00  0.00     0.034 A 
ENDROOT
BRANCH   6   7
ATOM      7  N1  <0> d          -1.199  -0.722   0.010  0.00  0.00    -0.325 N 
ATOM      8  C7  <0> d          -1.183  -2.065  -0.099  0.00  0.00     0.253 C 
ATOM      9  O1  <0> d          -0.125  -2.659  -0.113  0.00  0.00    -0.270 OA
ATOM     10  H6  <0> d          -2.044  -0.253   0.098  0.00  0.00     0.169 HD
BRANCH   8  11
ATOM     11  C8  <0> d          -2.478  -2.828  -0.204  0.00  0.00     0.239 C 
ATOM     12  O2  <0> d          -2.206  -4.233  -0.194  0.00  0.00    -0.373 OA
ATOM     13  C11 <0> d          -3.375  -5.044  -0.340  0.00  0.00     0.196 C 
ATOM     14  C10 <0> d          -4.083  -4.679  -1.647  0.00  0.00     0.258 C 
ATOM     15  N2  <0> d          -4.417  -3.248  -1.637  0.00  0.00    -0.070 N 
ATOM     16  C9  <0> d          -3.184  -2.459  -1.510  0.00  0.00     0.274 C 
ATOM     17  H9  <0> d          -5.026  -3.050  -0.857  0.00  0.00     0.277 HD
ATOM     18  H15 <0> d          -4.885  -3.006  -2.498  0.00  0.00     0.277 HD
ENDBRANCH   8  11
ENDBRANCH   6   7
BRANCH   3  19
ATOM     19  S1  <0> d           3.889   2.320  -0.049  0.00  0.00     0.236 S 
ATOM     20  O3  <0> d           3.912   3.012   1.192  0.00  0.00    -0.217 OA
ATOM     21  O4  <0> d           4.884   1.355  -0.359  0.00  0.00    -0.217 OA
BRANCH  19  22
ATOM     22  C12 <0> d           3.712   3.498  -1.417  0.00  0.00     0.478 C 
ATOM     23  F1  <0> d           3.514   2.799  -2.612  0.00  0.00    -0.197 F 
ATOM     24  F2  <0> d           2.615   4.331  -1.176  0.00  0.00    -0.197 F 
ENDBRANCH  19  22
ENDBRANCH   3  19
TORSDOF 4
