REMARK  7 active torsions:
REMARK  status: ('A' for Active; 'I' for Inactive)
REMARK    1  A    between atoms: N1_5  and  C5_7 
REMARK    2  A    between atoms: C5_7  and  C6_8 
REMARK    3  A    between atoms: C6_8  and  C8_10 
REMARK    4  A    between atoms: C8_10  and  N3_11 
REMARK       I    between atoms: N3_11  and  C9_12 
REMARK    5  A    between atoms: C9_12  and  C10_14 
REMARK    6  A    between atoms: C15_19  and  N4_20 
REMARK    7  A    between atoms: N4_20  and  S1_21 
ROOT
ATOM      1  N3  <0> d           2.915  -5.434   2.748  0.00  0.00    -0.356 N 
ATOM      2  C9  <0> d           3.181  -6.571   3.422  0.00  0.00     0.254 C 
ATOM      3  O1  <0> d           2.271  -7.232   3.882  0.00  0.00    -0.268 OA
ATOM      4  H13 <0> d           3.641  -4.907   2.381  0.00  0.00     0.162 HD
ENDROOT
BRANCH   2   5
ATOM      5  C10 <0> d           4.576  -7.012   3.600  0.00  0.00     0.064 A 
ATOM      6  C15 <0> d           4.858  -8.194   4.301  0.00  0.00     0.085 A 
ATOM      7  C14 <0> d           6.177  -8.603   4.458  0.00  0.00     0.036 A 
ATOM      8  C13 <0> d           7.204  -7.843   3.937  0.00  0.00     0.044 A 
ATOM      9  C12 <0> d           6.929  -6.670   3.248  0.00  0.00     0.117 A 
ATOM     10  C11 <0> d           5.626  -6.252   3.077  0.00  0.00     0.061 A 
ATOM     11  F1  <0> d           7.944  -5.935   2.742  0.00  0.00    -0.206 F 
BRANCH   6  12
ATOM     12  N4  <0> d           3.823  -8.956   4.830  0.00  0.00    -0.164 NA
BRANCH  12  13
ATOM     13  S1  <0> d           4.160 -10.351   5.656  0.00  0.00     0.247 S 
ATOM     14  O2  <0> d           4.756 -11.209   4.692  0.00  0.00    -0.204 OA
ATOM     15  O3  <0> d           4.891  -9.928   6.799  0.00  0.00    -0.204 OA
ATOM     16  C16 <0> d           2.542 -11.001   6.154  0.00  0.00     0.188 C 
ENDBRANCH  12  13
ENDBRANCH   6  12
ENDBRANCH   2   5
BRANCH   1  17
ATOM     17  C8  <0> d           1.528  -4.995   2.571  0.00  0.00     0.128 C 
BRANCH  17  18
ATOM     18  C6  <0> d           1.504  -3.688   1.777  0.00  0.00     0.019 C 
ATOM     19  C7  <0> d           2.177  -2.583   2.595  0.00  0.00     0.013 C 
BRANCH  18  20
ATOM     20  C5  <0> d           0.055  -3.295   1.485  0.00  0.00     0.156 C 
BRANCH  20  21
ATOM     21  N1  <0> d           0.034  -2.109   0.625  0.00  0.00    -0.274 N 
ATOM     22  C4  <0> d           0.028  -2.107  -0.725  0.00  0.00     0.028 A 
ATOM     23  C3  <0> d           0.008  -0.818  -1.135  0.00  0.00     0.055 A 
ATOM     24  C17 <0> d           0.040  -3.323  -1.615  0.00  0.00     0.070 C 
ATOM     25  C2  <0> d           0.002  -0.004   0.002  0.00  0.00     0.053 A 
ATOM     26  C1  <0> d          -0.018   1.503   0.010  0.00  0.00     0.072 C 
ATOM     27  N2  <0> d           0.023  -0.777   1.058  0.00  0.00    -0.177 NA
ENDBRANCH  20  21
ENDBRANCH  18  20
ENDBRANCH  17  18
ENDBRANCH   1  17
TORSDOF 7
