REMARK  7 active torsions:
REMARK  status: ('A' for Active; 'I' for Inactive)
REMARK    1  A    between atoms: C3_4  and  C5_7 
REMARK    2  A    between atoms: C8_10  and  N2_13 
REMARK       I    between atoms: N2_13  and  C11_14 
REMARK    3  A    between atoms: C11_14  and  C12_16 
REMARK       I    between atoms: C12_16  and  N3_18 
REMARK    4  A    between atoms: N3_18  and  C13_19 
REMARK    5  A    between atoms: C13_19  and  C14_20 
REMARK    6  A    between atoms: C14_20  and  C15_21 
REMARK    7  A    between atoms: C15_21  and  O3_22 
ROOT
ATOM      1  N2  <0> d          -5.201  -5.730  -0.004  0.00  0.00    -0.319 N 
ATOM      2  C11 <0> d          -5.049  -6.976   0.487  0.00  0.00     0.313 C 
ATOM      3  O1  <0> d          -4.002  -7.298   1.010  0.00  0.00    -0.262 OA
ATOM      4  H9  <0> d          -6.061  -5.448  -0.353  0.00  0.00     0.169 HD
ENDROOT
BRANCH   1   5
ATOM      5  C8  <0> d          -4.121  -4.845  -0.010  0.00  0.00     0.035 A 
ATOM      6  C7  <0> d          -2.830  -5.326  -0.197  0.00  0.00     0.030 A 
ATOM      7  C6  <0> d          -1.762  -4.455  -0.203  0.00  0.00     0.016 A 
ATOM      8  C5  <0> d          -1.978  -3.089  -0.022  0.00  0.00    -0.007 A 
ATOM      9  C10 <0> d          -3.272  -2.609   0.170  0.00  0.00     0.016 A 
ATOM     10  C9  <0> d          -4.338  -3.483   0.170  0.00  0.00     0.030 A 
BRANCH   8  11
ATOM     11  C3  <0> d          -0.830  -2.149  -0.028  0.00  0.00     0.074 A 
ATOM     12  N1  <0> d          -0.995  -0.845   0.146  0.00  0.00    -0.245 NA
ATOM     13  C2  <0> d           0.022  -0.024   0.140  0.00  0.00     0.071 A 
ATOM     14  C1  <0> d           0.014   1.472   0.321  0.00  0.00     0.078 C 
ATOM     15  S1  <0> d           1.341  -1.034  -0.125  0.00  0.00    -0.085 SA
ATOM     16  C4  <0> d           0.455  -2.582  -0.214  0.00  0.00     0.084 A 
ENDBRANCH   8  11
ENDBRANCH   1   5
BRANCH   2  17
ATOM     17  C12 <0> d          -6.168  -7.960   0.386  0.00  0.00     0.309 C 
ATOM     18  O2  <0> d          -7.214  -7.638  -0.137  0.00  0.00    -0.262 OA
ATOM     19  N3  <0> d          -6.015  -9.206   0.877  0.00  0.00    -0.353 N 
ATOM     20  H10 <0> d          -5.179  -9.464   1.296  0.00  0.00     0.162 HD
BRANCH  19  21
ATOM     21  C13 <0> d          -7.113 -10.171   0.779  0.00  0.00     0.125 C 
BRANCH  21  22
ATOM     22  C14 <0> d          -6.683 -11.498   1.407  0.00  0.00     0.046 C 
BRANCH  22  23
ATOM     23  C15 <0> d          -7.829 -12.507   1.304  0.00  0.00     0.165 C 
BRANCH  23  24
ATOM     24  O3  <0> d          -7.427 -13.746   1.891  0.00  0.00    -0.401 OA
ATOM     25  H17 <0> d          -8.106 -14.434   1.861  0.00  0.00     0.209 HD
ENDBRANCH  23  24
ENDBRANCH  22  23
ENDBRANCH  21  22
ENDBRANCH  19  21
ENDBRANCH   2  17
TORSDOF 7
