REMARK  3 active torsions:
REMARK  status: ('A' for Active; 'I' for Inactive)
REMARK    1  A    between atoms: C6_6  and  N1_7 
REMARK    2  A    between atoms: C8_9  and  C11_13 
REMARK       I    between atoms: C11_13  and  N2_15 
REMARK    3  A    between atoms: N2_15  and  C12_16 
ROOT
ATOM      1  N1  <0> d          -2.208   6.897  -1.169  0.00  0.00    -0.317 N 
ATOM      2  C7  <0> d          -2.489   7.667  -2.387  0.00  0.00     0.146 C 
ATOM      3  C8  <0> d          -3.272   8.913  -1.912  0.00  0.00     0.105 C 
ATOM      4  C9  <0> d          -2.784   9.053  -0.452  0.00  0.00     0.119 C 
ATOM      5  C10 <0> d          -2.357   7.653  -0.068  0.00  0.00     0.225 C 
ATOM      6  O1  <0> d          -2.176   7.269   1.068  0.00  0.00    -0.273 OA
ENDROOT
BRANCH   3   7
ATOM      7  C11 <0> d          -2.894  10.125  -2.725  0.00  0.00     0.229 C 
ATOM      8  O2  <0> d          -2.162  10.007  -3.685  0.00  0.00    -0.273 OA
ATOM      9  N2  <0> d          -3.370  11.339  -2.386  0.00  0.00    -0.305 N 
ATOM     10  H9  <0> d          -3.956  11.433  -1.618  0.00  0.00     0.171 HD
BRANCH   9  11
ATOM     11  C12 <0> d          -3.022  12.456  -3.136  0.00  0.00     0.173 A 
ATOM     12  S1  <0> d          -3.494  14.112  -2.912  0.00  0.00    -0.055 SA
ATOM     13  C14 <0> d          -2.598  14.787  -4.291  0.00  0.00     0.011 A 
ATOM     14  C13 <0> d          -2.003  13.693  -4.820  0.00  0.00     0.050 A 
ATOM     15  C15 <0> d          -2.269  16.036  -5.052  0.00  0.00     0.049 C 
ATOM     16  N3  <0> d          -2.246  12.533  -4.192  0.00  0.00    -0.228 NA
ATOM     17  C17 <0> d          -1.184  14.137  -6.032  0.00  0.00     0.061 C 
ATOM     18  C16 <0> d          -1.720  15.533  -6.406  0.00  0.00     0.011 C 
ENDBRANCH   9  11
ENDBRANCH   3   7
BRANCH   1  19
ATOM     19  C6  <0> d          -1.828   5.548  -1.157  0.00  0.00     0.040 A 
ATOM     20  C1  <0> d          -1.816   4.819  -2.338  0.00  0.00     0.032 A 
ATOM     21  C2  <0> d          -1.442   3.489  -2.326  0.00  0.00     0.042 A 
ATOM     22  C3  <0> d          -1.079   2.878  -1.135  0.00  0.00     0.102 A 
ATOM     23  O4  <0> d          -0.716   1.565  -1.143  0.00  0.00    -0.346 OA
ATOM     24  C4  <0> d          -1.088   3.606   0.049  0.00  0.00     0.104 A 
ATOM     25  C19 <0> d           0.001   1.090   0.001  0.00  0.00     0.202 C 
ATOM     26  C18 <0> d          -0.714   1.595   1.262  0.00  0.00     0.202 C 
ATOM     27  O3  <0> d          -0.727   3.026   1.226  0.00  0.00    -0.346 OA
ATOM     28  C5  <0> d          -1.464   4.940   0.037  0.00  0.00     0.069 A 
ENDBRANCH   1  19
TORSDOF 3
