REMARK  4 active torsions:
REMARK  status: ('A' for Active; 'I' for Inactive)
REMARK    1  A    between atoms: C2_2  and  N1_3 
REMARK    2  A    between atoms: N1_3  and  C3_4 
REMARK    3  A    between atoms: C3_4  and  C4_5 
REMARK    4  A    between atoms: C3_4  and  C12_16 
ROOT
ATOM      1  C3  <0> d          -1.356  -1.981   0.004  0.00  0.00     0.251 C 
ENDROOT
BRANCH   1   2
ATOM      2  N1  <0> d          -1.376  -0.512   0.012  0.00  0.00    -0.065 N 
ATOM      3  H8  <0> d          -1.848  -0.187   0.843  0.00  0.00     0.278 HD
ATOM      4  H21 <0> d          -1.864  -0.178  -0.805  0.00  0.00     0.278 HD
BRANCH   2   5
ATOM      5  C2  <0> d           0.002  -0.004   0.002  0.00  0.00     0.228 C 
ATOM      6  C1  <0> d          -0.019   1.526   0.010  0.00  0.00     0.034 C 
ENDBRANCH   2   5
ENDBRANCH   1   2
BRANCH   1   7
ATOM      7  C4  <0> d          -0.737  -2.482   1.284  0.00  0.00    -0.005 A 
ATOM      8  C9  <0> d          -0.138  -3.729   1.319  0.00  0.00     0.022 A 
ATOM      9  C8  <0> d           0.434  -4.190   2.490  0.00  0.00     0.059 A 
ATOM     10 Br1  <0> d          -0.097  -4.801  -0.238  0.00  0.00    -0.050 Br
ATOM     11  C7  <0> d           0.400  -3.408   3.635  0.00  0.00     0.103 A 
ATOM     12  C6  <0> d          -0.204  -2.157   3.600  0.00  0.00     0.102 A 
ATOM     13  O1  <0> d           0.956  -3.881   4.784  0.00  0.00    -0.346 OA
ATOM     14  C5  <0> d          -0.772  -1.698   2.421  0.00  0.00     0.050 A 
ATOM     15  O2  <0> d          -0.245  -1.371   4.711  0.00  0.00    -0.346 OA
ATOM     16  C11 <0> d          -0.000  -2.017   5.965  0.00  0.00     0.202 C 
ATOM     17  C10 <0> d           1.232  -2.919   5.808  0.00  0.00     0.202 C 
ENDBRANCH   1   7
BRANCH   1  18
ATOM     18  C12 <0> d          -2.787  -2.510  -0.111  0.00  0.00     0.180 C 
ATOM     19  O4  <0> d          -3.525  -2.151   1.062  0.00  0.00    -0.379 OA
ATOM     20  C15 <0> d          -4.867  -2.648   1.068  0.00  0.00     0.194 C 
ATOM     21  C14 <0> d          -4.840  -4.174   0.937  0.00  0.00     0.193 C 
ATOM     22  O3  <0> d          -4.102  -4.531  -0.236  0.00  0.00    -0.386 OA
ATOM     23  C13 <0> d          -2.760  -4.036  -0.241  0.00  0.00     0.201 C 
ENDBRANCH   1  18
TORSDOF 4
