REMARK  3 active torsions:
REMARK  status: ('A' for Active; 'I' for Inactive)
REMARK    1  A    between atoms: C2_2  and  O1_3 
REMARK    2  A    between atoms: O1_3  and  C3_4 
REMARK    3  A    between atoms: C8_9  and  N1_10 
REMARK       I    between atoms: N1_10  and  C9_11 
REMARK       I    between atoms: C9_11  and  N2_13 
ROOT
ATOM      1  N1  <0> d          -3.903  -1.565   0.031  0.00  0.00    -0.306 N 
ATOM      2  C9  <0> d          -5.138  -2.097  -0.062  0.00  0.00     0.323 C 
ATOM      3  O2  <0> d          -5.281  -3.304  -0.067  0.00  0.00    -0.247 OA
ATOM      4  N2  <0> d          -6.214  -1.290  -0.149  0.00  0.00    -0.332 N 
ATOM      5  C10 <0> d          -6.183   0.181  -0.160  0.00  0.00     0.129 C 
ATOM      6  C11 <0> d          -7.643   0.671  -0.297  0.00  0.00     0.046 C 
ATOM      7  C12 <0> d          -8.359  -0.554  -0.889  0.00  0.00     0.088 A 
ATOM      8  C13 <0> d          -7.618  -1.737  -0.255  0.00  0.00     0.152 C 
ATOM      9  C14 <0> d          -9.822  -0.561  -0.566  0.00  0.00    -0.012 A 
ATOM     10  C15 <0> d         -10.539  -0.549   0.610  0.00  0.00     0.011 A 
ATOM     11  C16 <0> d         -11.922  -0.559   0.579  0.00  0.00     0.001 A 
ATOM     12  C17 <0> d         -12.583  -0.581  -0.636  0.00  0.00     0.002 A 
ATOM     13  C18 <0> d         -11.870  -0.593  -1.816  0.00  0.00     0.030 A 
ATOM     14  C19 <0> d         -10.478  -0.584  -1.795  0.00  0.00     0.042 A 
ATOM     15  N3  <0> d          -9.549  -0.595  -2.838  0.00  0.00    -0.326 N 
ATOM     16  C20 <0> d          -8.278  -0.581  -2.387  0.00  0.00     0.237 A 
ATOM     17  O3  <0> d          -7.269  -0.587  -3.059  0.00  0.00    -0.272 OA
ATOM     18  H10 <0> d          -3.793  -0.606   0.118  0.00  0.00     0.171 HD
ATOM     19  H21 <0> d          -9.790  -0.612  -3.778  0.00  0.00     0.169 HD
ENDROOT
BRANCH   1  20
ATOM     20  C8  <0> d          -2.777  -2.400   0.002  0.00  0.00     0.069 A 
ATOM     21  C3  <0> d          -1.583  -1.982   0.585  0.00  0.00     0.095 A 
ATOM     22  C4  <0> d          -0.475  -2.813   0.559  0.00  0.00     0.039 A 
ATOM     23  C5  <0> d          -0.553  -4.051  -0.051  0.00  0.00     0.003 A 
ATOM     24  C6  <0> d          -1.737  -4.464  -0.635  0.00  0.00     0.002 A 
ATOM     25  C7  <0> d          -2.847  -3.641  -0.612  0.00  0.00     0.032 A 
BRANCH  21  26
ATOM     26  O1  <0> d          -1.507  -0.763   1.184  0.00  0.00    -0.349 OA
BRANCH  26  27
ATOM     27  C2  <0> d          -0.251  -0.401   1.761  0.00  0.00     0.171 C 
ATOM     28  C1  <0> d          -0.358   0.993   2.382  0.00  0.00     0.034 C 
ENDBRANCH  26  27
ENDBRANCH  21  26
ENDBRANCH   1  20
TORSDOF 3
