REMARK  3 active torsions:
REMARK  status: ('A' for Active; 'I' for Inactive)
REMARK    1  A    between atoms: C2_2  and  C10_16 
REMARK    2  A    between atoms: N1_5  and  C5_9 
REMARK    3  A    between atoms: C5_9  and  N3_10 
ROOT
ATOM      1  C1  <0> d          -0.019   1.526   0.010  0.00  0.00     0.055 C 
ATOM      2  C2  <0> d           0.002  -0.004   0.002  0.00  0.00     0.146 A 
ATOM      3  C3  <0> d          -1.404  -0.557   0.121  0.00  0.00     0.262 A 
ATOM      4  O1  <0> d          -2.324  -0.392  -0.652  0.00  0.00    -0.270 OA
ATOM      5  N1  <0> d          -1.419  -1.272   1.263  0.00  0.00    -0.239 N 
ATOM      6  C4  <0> d          -0.231  -1.248   1.876  0.00  0.00     0.328 A 
ATOM      7  O2  <0> d           0.001  -1.819   2.923  0.00  0.00    -0.247 OA
ATOM      8  N2  <0> d           0.679  -0.520   1.204  0.00  0.00    -0.320 N 
ATOM      9  H4  <0> d           1.602  -0.365   1.461  0.00  0.00     0.165 HD
ENDROOT
BRANCH   5  10
ATOM     10  C5  <0> d          -2.593  -1.987   1.771  0.00  0.00     0.409 C 
BRANCH  10  11
ATOM     11  N3  <0> d          -2.601  -3.356   1.239  0.00  0.00     0.110 N 
ATOM     12  C9  <0> d          -3.966  -3.901   1.207  0.00  0.00     0.300 C 
ATOM     13  C8  <0> d          -3.936  -5.303   0.592  0.00  0.00     0.198 C 
ATOM     14  O3  <0> d          -3.041  -6.128   1.342  0.00  0.00    -0.388 OA
ATOM     15  C7  <0> d          -1.702  -5.627   1.393  0.00  0.00     0.198 C 
ATOM     16  C6  <0> d          -1.709  -4.229   2.017  0.00  0.00     0.300 C 
ENDBRANCH  10  11
ENDBRANCH   5  10
BRANCH   2  17
ATOM     17  C10 <0> d           0.673  -0.517  -1.246  0.00  0.00     0.020 A 
ATOM     18  S1  <0> d          -0.052  -0.929  -2.824  0.00  0.00    -0.103 SA
ATOM     19  C13 <0> d           1.442  -1.429  -3.665  0.00  0.00     0.050 A 
ATOM     20  C12 <0> d           2.377  -1.258  -2.699  0.00  0.00     0.008 A 
ATOM     21  C11 <0> d           1.984  -0.790  -1.460  0.00  0.00     0.018 A 
ENDBRANCH   2  17
TORSDOF 3
