REMARK  5 active torsions:
REMARK  status: ('A' for Active; 'I' for Inactive)
REMARK    1  A    between atoms: C6_6  and  N1_7 
REMARK    2  A    between atoms: C7_8  and  C15_20 
REMARK    3  A    between atoms: C8_9  and  C9_12 
REMARK    4  A    between atoms: C9_12  and  N4_13 
REMARK    5  A    between atoms: C12_16  and  O1_19 
ROOT
ATOM      1  N1  <0> d          -1.303  -0.755   0.128  0.00  0.00    -0.213 N 
ATOM      2  C7  <0> d          -1.620  -1.910  -0.537  0.00  0.00     0.099 A 
ATOM      3  C8  <0> d          -2.954  -2.111  -0.313  0.00  0.00     0.114 A 
ATOM      4  N2  <0> d          -3.364  -1.098   0.453  0.00  0.00    -0.132 NA
ATOM      5  N3  <0> d          -2.371  -0.321   0.700  0.00  0.00    -0.060 NA
ENDROOT
BRANCH   3   6
ATOM      6  C9  <0> d          -3.794  -3.250  -0.830  0.00  0.00     0.298 C 
BRANCH   6   7
ATOM      7  N4  <0> d          -3.876  -4.301   0.194  0.00  0.00    -0.066 N 
ATOM      8  C14 <0> d          -4.575  -5.468  -0.360  0.00  0.00     0.237 C 
ATOM      9  C13 <0> d          -4.592  -6.595   0.675  0.00  0.00     0.059 C 
ATOM     10  C12 <0> d          -5.318  -6.114   1.934  0.00  0.00     0.121 C 
ATOM     11  C11 <0> d          -4.625  -4.853   2.461  0.00  0.00     0.059 C 
ATOM     12  C10 <0> d          -4.607  -3.791   1.360  0.00  0.00     0.237 C 
ATOM     13  H21 <0> d          -2.945  -4.570   0.474  0.00  0.00     0.280 HD
BRANCH  10  14
ATOM     14  O1  <0> d          -5.273  -7.136   2.932  0.00  0.00    -0.395 OA
ATOM     15  H16 <0> d          -5.694  -7.964   2.665  0.00  0.00     0.210 HD
ENDBRANCH  10  14
ENDBRANCH   6   7
ENDBRANCH   3   6
BRANCH   2  16
ATOM     16  C15 <0> d          -0.709  -2.762  -1.333  0.00  0.00    -0.002 A 
ATOM     17  C19 <0> d          -0.572  -4.126  -1.052  0.00  0.00     0.033 A 
ATOM     18  C18 <0> d           0.285  -4.884  -1.822  0.00  0.00     0.117 A 
ATOM     19  N5  <0> d           0.976  -4.338  -2.804  0.00  0.00    -0.273 NA
ATOM     20  C17 <0> d           0.880  -3.055  -3.099  0.00  0.00     0.117 A 
ATOM     21  C16 <0> d           0.043  -2.225  -2.383  0.00  0.00     0.033 A 
ENDBRANCH   2  16
BRANCH   1  22
ATOM     22  C6  <0> d          -0.037  -0.156   0.180  0.00  0.00     0.060 A 
ATOM     23  C1  <0> d           0.077   1.227   0.212  0.00  0.00     0.033 A 
ATOM     24  C2  <0> d           1.325   1.815   0.265  0.00  0.00     0.021 A 
ATOM     25  C3  <0> d           2.462   1.027   0.286  0.00  0.00     0.011 A 
ATOM     26  C4  <0> d           2.352  -0.352   0.254  0.00  0.00     0.021 A 
ATOM     27 Br1  <0> d           4.170   1.836   0.357  0.00  0.00    -0.051 Br
ATOM     28  C5  <0> d           1.105  -0.945   0.202  0.00  0.00     0.033 A 
ENDBRANCH   1  22
TORSDOF 5
