REMARK  7 active torsions:
REMARK  status: ('A' for Active; 'I' for Inactive)
REMARK    1  A    between atoms: C2_2  and  C3_3 
REMARK    2  A    between atoms: C4_5  and  C7_10 
REMARK    3  A    between atoms: C8_11  and  C14_24 
REMARK    4  A    between atoms: N4_14  and  C10_15 
REMARK    5  A    between atoms: C10_15  and  C11_16 
REMARK    6  A    between atoms: C11_16  and  S1_17 
REMARK    7  A    between atoms: S1_17  and  C12_18 
ROOT
ATOM      1  C7  <0> d           0.755  -1.529  -4.786  0.00  0.00     0.314 C 
ATOM      2  C8  <0> d           0.616  -3.063  -4.805  0.00  0.00     0.294 C 
ATOM      3  N3  <0> d          -0.755  -3.334  -5.298  0.00  0.00     0.123 N 
ATOM      4  C9  <0> d          -1.119  -2.118  -6.069  0.00  0.00     0.541 C 
ATOM      5  N4  <0> d          -0.544  -1.003  -5.271  0.00  0.00     0.130 N 
ATOM      6  H13 <0> d          -0.773  -4.154  -5.887  0.00  0.00     0.319 HD
ENDROOT
BRANCH   1   7
ATOM      7  C4  <0> d           1.021  -1.047  -3.384  0.00  0.00     0.069 A 
ATOM      8  N1  <0> d           0.097  -0.633  -2.504  0.00  0.00    -0.346 N 
ATOM      9  C3  <0> d           0.686  -0.289  -1.391  0.00  0.00     0.081 A 
ATOM     10  H26 <0> d          -0.858  -0.594  -2.669  0.00  0.00     0.167 HD
ATOM     11  N2  <0> d           2.017  -0.471  -1.531  0.00  0.00    -0.348 N 
ATOM     12  H1  <0> d           2.696  -0.294  -0.862  0.00  0.00     0.167 HD
ATOM     13  C5  <0> d           2.228  -0.957  -2.794  0.00  0.00     0.031 A 
ATOM     14  C6  <0> d           3.557  -1.317  -3.407  0.00  0.00     0.070 C 
BRANCH   9  15
ATOM     15  C2  <0> d          -0.004   0.230  -0.156  0.00  0.00     0.072 C 
ATOM     16  C1  <0> d          -0.104   1.755  -0.232  0.00  0.00     0.013 C 
ENDBRANCH   9  15
ENDBRANCH   1   7
BRANCH   5  17
ATOM     17  C10 <0> d          -0.351   0.195  -6.098  0.00  0.00     0.286 C 
BRANCH  17  18
ATOM     18  C11 <0> d          -1.706   0.850  -6.372  0.00  0.00     0.113 C 
BRANCH  18  19
ATOM     19  S1  <0> d          -1.468   2.330  -7.393  0.00  0.00    -0.087 SA
BRANCH  19  20
ATOM     20  C12 <0> d          -3.098   2.961  -7.617  0.00  0.00     0.208 A 
ATOM     21  N5  <0> d          -3.420   4.056  -8.312  0.00  0.00    -0.215 NA
ATOM     22  C13 <0> d          -4.716   4.238  -8.276  0.00  0.00     0.228 A 
ATOM     23  N6  <0> d          -5.259   3.249  -7.547  0.00  0.00    -0.269 N 
ATOM     24  H4  <0> d          -6.200   3.124  -7.348  0.00  0.00     0.190 HD
ATOM     25  N7  <0> d          -4.196   2.429  -7.133  0.00  0.00    -0.146 NA
ENDBRANCH  19  20
ENDBRANCH  18  19
ENDBRANCH  17  18
ENDBRANCH   5  17
BRANCH   2  26
ATOM     26  C14 <0> d           1.635  -3.667  -5.737  0.00  0.00    -0.023 A 
ATOM     27  C19 <0> d           1.405  -3.678  -7.100  0.00  0.00     0.009 A 
ATOM     28  C18 <0> d           2.341  -4.228  -7.955  0.00  0.00     0.001 A 
ATOM     29  C17 <0> d           3.505  -4.775  -7.446  0.00  0.00     0.000 A 
ATOM     30  C16 <0> d           3.733  -4.769  -6.082  0.00  0.00     0.001 A 
ATOM     31  C15 <0> d           2.798  -4.215  -5.228  0.00  0.00     0.009 A 
ENDBRANCH   2  26
TORSDOF 7
