REMARK  3 active torsions:
REMARK  status: ('A' for Active; 'I' for Inactive)
REMARK    1  A    between atoms: N1_9  and  N3_17 
REMARK    2  A    between atoms: C8_10  and  C9_12 
REMARK       I    between atoms: N3_17  and  C13_18 
REMARK    3  A    between atoms: C13_18  and  C14_20 
ROOT
ATOM      1  C1  <0> d          -0.017   1.375   0.010  0.00  0.00     0.001 A 
ATOM      2  C2  <0> d           1.168   2.095   0.002  0.00  0.00     0.002 A 
ATOM      3  C3  <0> d           2.386   1.444  -0.012  0.00  0.00     0.030 A 
ATOM      4  C4  <0> d           2.422   0.060  -0.018  0.00  0.00     0.045 A 
ATOM      5  C5  <0> d           1.223  -0.674  -0.013  0.00  0.00     0.060 A 
ATOM      6  C6  <0> d           0.002  -0.004   0.002  0.00  0.00     0.019 A 
ATOM      7  C7  <0> d           1.301  -2.146  -0.031  0.00  0.00     0.276 C 
ATOM      8  O1  <0> d           0.313  -2.811  -0.278  0.00  0.00    -0.266 OA
ATOM      9  N1  <0> d           2.480  -2.746   0.231  0.00  0.00    -0.225 N 
ATOM     10  C8  <0> d           3.660  -1.968   0.608  0.00  0.00     0.250 C 
ATOM     11  N2  <0> d           3.621  -0.645  -0.027  0.00  0.00    -0.362 N 
ATOM     12  H6  <0> d           4.413  -0.271  -0.443  0.00  0.00     0.162 HD
ENDROOT
BRANCH   9  13
ATOM     13  N3  <0> d           2.577  -4.141   0.139  0.00  0.00    -0.258 N 
ATOM     14  C13 <0> d           2.619  -4.736  -1.070  0.00  0.00     0.270 C 
ATOM     15  O2  <0> d           2.573  -4.062  -2.080  0.00  0.00    -0.266 OA
ATOM     16  H10 <0> d           2.613  -4.679   0.946  0.00  0.00     0.190 HD
BRANCH  14  17
ATOM     17  C14 <0> d           2.720  -6.207  -1.166  0.00  0.00     0.033 A 
ATOM     18  C19 <0> d           2.764  -6.826  -2.417  0.00  0.00     0.018 A 
ATOM     19  C18 <0> d           2.865  -8.199  -2.500  0.00  0.00     0.020 A 
ATOM     20  C17 <0> d           2.911  -8.964  -1.347  0.00  0.00     0.011 A 
ATOM     21  C16 <0> d           2.863  -8.356  -0.104  0.00  0.00     0.020 A 
ATOM     22 Br1  <0> d           3.042 -10.847  -1.470  0.00  0.00    -0.051 Br
ATOM     23  C15 <0> d           2.768  -6.984  -0.007  0.00  0.00     0.018 A 
ENDBRANCH  14  17
ENDBRANCH   9  13
BRANCH  10  24
ATOM     24  C9  <0> d           3.688  -1.800   2.105  0.00  0.00     0.026 A 
ATOM     25  S1  <0> d           3.058  -2.889   3.371  0.00  0.00    -0.102 SA
ATOM     26  C12 <0> d           3.519  -1.914   4.794  0.00  0.00     0.050 A 
ATOM     27  C11 <0> d           4.107  -0.837   4.218  0.00  0.00     0.008 A 
ATOM     28  C10 <0> d           4.194  -0.779   2.840  0.00  0.00     0.019 A 
ENDBRANCH  10  24
TORSDOF 3
