REMARK  3 active torsions:
REMARK  status: ('A' for Active; 'I' for Inactive)
REMARK    1  A    between atoms: C2_2  and  N1_9 
REMARK    2  A    between atoms: N1_9  and  S2_10 
REMARK    3  A    between atoms: S2_10  and  C6_13 
ROOT
ATOM      1  C6  <0> d          -5.374   3.381  -1.163  0.00  0.00     0.081 A 
ATOM      2  C7  <0> d          -6.091   2.981  -2.278  0.00  0.00     0.027 A 
ATOM      3  C8  <0> d          -6.655   3.921  -3.115  0.00  0.00     0.033 A 
ATOM      4  C9  <0> d          -6.504   5.276  -2.842  0.00  0.00     0.062 A 
ATOM      5  C10 <0> d          -5.780   5.679  -1.719  0.00  0.00     0.063 A 
ATOM      6  C11 <0> d          -5.223   4.722  -0.878  0.00  0.00     0.057 A 
ATOM      7  N2  <0> d          -5.618   7.031  -1.428  0.00  0.00    -0.317 N 
ATOM      8  H1  <0> d          -5.046   7.338  -0.540  0.00  0.00     0.169 HD
ATOM      9  C12 <0> d          -6.162   7.966  -2.234  0.00  0.00     0.314 A 
ATOM     10  O5  <0> d          -6.023   9.146  -1.985  0.00  0.00    -0.262 OA
ATOM     11  C13 <0> d          -6.935   7.535  -3.434  0.00  0.00     0.314 A 
ATOM     12  O6  <0> d          -7.433   8.361  -4.173  0.00  0.00    -0.262 OA
ATOM     13  N3  <0> d          -7.075   6.219  -3.692  0.00  0.00    -0.317 N 
ATOM     14  H2  <0> d          -7.642   5.891  -4.576  0.00  0.00     0.169 HD
ENDROOT
BRANCH   1  15
ATOM     15  S2  <0> d          -4.658   2.172  -0.099  0.00  0.00     0.259 S 
ATOM     16  O3  <0> d          -5.532   1.051  -0.112  0.00  0.00    -0.201 OA
ATOM     17  O4  <0> d          -4.301   2.846   1.100  0.00  0.00    -0.201 OA
BRANCH  15  18
ATOM     18  N1  <0> d          -3.244   1.676  -0.803  0.00  0.00    -0.305 N 
ATOM     19  H12 <0> d          -3.221   0.723  -1.352  0.00  0.00     0.173 HD
BRANCH  18  20
ATOM     20  C2  <0> d          -2.104   2.593  -0.881  0.00  0.00     0.050 C 
ATOM     21  C1  <0> d          -2.583   3.958  -1.378  0.00  0.00     0.040 C 
ATOM     22  C5  <0> d          -1.055   2.026  -1.868  0.00  0.00     0.171 C 
ATOM     23  S1  <0> d           0.052   1.054  -0.766  0.00  0.00     0.146 S 
ATOM     24  C4  <0> d          -0.725   1.434   0.861  0.00  0.00     0.143 C 
ATOM     25  O1  <0> d          -0.115  -0.329  -1.047  0.00  0.00    -0.228 OA
ATOM     26  O2  <0> d           1.354   1.623  -0.801  0.00  0.00    -0.228 OA
ATOM     27  C3  <0> d          -1.479   2.751   0.515  0.00  0.00     0.047 C 
ENDBRANCH  18  20
ENDBRANCH  15  18
ENDBRANCH   1  15
TORSDOF 3
