REMARK  3 active torsions:
REMARK  status: ('A' for Active; 'I' for Inactive)
REMARK    1  A    between atoms: C7_9  and  S1_13 
REMARK    2  A    between atoms: S1_13  and  N2_16 
REMARK       I    between atoms: N3_19  and  C14_22 
REMARK    3  A    between atoms: C14_22  and  C15_24 
ROOT
ATOM      1  S1  <0> d           5.263   0.445   4.372  0.00  0.00     0.262 S 
ATOM      2  O3  <0> d           6.251   1.458   4.244  0.00  0.00    -0.200 OA
ATOM      3  O4  <0> d           4.266   0.478   5.385  0.00  0.00    -0.200 OA
ENDROOT
BRANCH   1   4
ATOM      4  C7  <0> d           4.413   0.373   2.831  0.00  0.00     0.104 A 
ATOM      5  C6  <0> d           3.376  -0.528   2.657  0.00  0.00     0.059 A 
ATOM      6  C5  <0> d           2.704  -0.590   1.449  0.00  0.00     0.058 A 
ATOM      7 Cl1  <0> d           2.918  -1.582   3.958  0.00  0.00    -0.083 Cl
ATOM      8  C4  <0> d           3.071   0.253   0.413  0.00  0.00     0.070 A 
ATOM      9  N1  <0> d           2.403   0.207  -0.819  0.00  0.00    -0.323 N 
ATOM     10  C9  <0> d           4.116   1.159   0.588  0.00  0.00     0.098 A 
ATOM     11  C3  <0> d           2.970   0.797  -1.894  0.00  0.00     0.251 C 
ATOM     12  H5  <0> d           1.546  -0.240  -0.898  0.00  0.00     0.169 HD
ATOM     13  C2  <0> d           4.319   1.455  -1.760  0.00  0.00     0.217 C 
ATOM     14  O1  <0> d           2.395   0.797  -2.962  0.00  0.00    -0.270 OA
ATOM     15  C1  <0> d           5.418   0.424  -2.028  0.00  0.00     0.050 C 
ATOM     16  O2  <0> d           4.470   1.978  -0.438  0.00  0.00    -0.335 OA
ATOM     17  C8  <0> d           4.784   1.215   1.799  0.00  0.00     0.066 A 
ENDBRANCH   1   4
BRANCH   1  18
ATOM     18  N2  <0> d           6.074  -0.987   4.553  0.00  0.00    -0.304 N 
ATOM     19  C13 <0> d           7.423  -1.158   3.994  0.00  0.00     0.155 C 
ATOM     20  C12 <0> d           7.427  -2.383   3.079  0.00  0.00     0.146 C 
ATOM     21  N3  <0> d           6.809  -3.508   3.794  0.00  0.00    -0.345 N 
ATOM     22  C11 <0> d           5.458  -3.339   4.348  0.00  0.00     0.146 C 
ATOM     23  C14 <0> d           7.469  -4.674   3.941  0.00  0.00     0.254 C 
ATOM     24  C10 <0> d           5.455  -2.112   5.268  0.00  0.00     0.155 C 
ATOM     25  O5  <0> d           8.621  -4.772   3.565  0.00  0.00    -0.267 OA
BRANCH  23  26
ATOM     26  C15 <0> d           6.795  -5.829   4.556  0.00  0.00     0.039 A 
ATOM     27  C18 <0> d           5.442  -6.038   4.406  0.00  0.00     0.066 A 
ATOM     28  S2  <0> d           5.146  -7.448   5.266  0.00  0.00    -0.113 SA
ATOM     29  C17 <0> d           6.786  -7.803   5.857  0.00  0.00     0.050 A 
ATOM     30  C16 <0> d           7.520  -6.792   5.349  0.00  0.00     0.024 A 
ENDBRANCH  23  26
ENDBRANCH   1  18
TORSDOF 3
