REMARK  6 active torsions:
REMARK  status: ('A' for Active; 'I' for Inactive)
REMARK    1  A    between atoms: C4_4  and  C10_13 
REMARK    2  A    between atoms: C9_11  and  O3_12 
REMARK    3  A    between atoms: C10_13  and  S1_14 
REMARK    4  A    between atoms: S1_14  and  C11_15 
REMARK    5  A    between atoms: C11_15  and  C12_16 
REMARK    6  A    between atoms: C12_16  and  O4_17 
ROOT
ATOM      1  C1  <0> d          -0.017   1.389   0.010  0.00  0.00     0.037 A 
ATOM      2  C2  <0> d           1.151   2.096   0.002  0.00  0.00     0.017 A 
ATOM      3  C3  <0> d           2.374   1.418  -0.013  0.00  0.00     0.005 A 
ATOM      4  C4  <0> d           3.643   2.151  -0.021  0.00  0.00    -0.030 A 
ATOM      5  C5  <0> d           4.797   1.435  -0.035  0.00  0.00     0.091 A 
ATOM      6  C6  <0> d           4.748   0.026  -0.042  0.00  0.00     0.288 A 
ATOM      7  O1  <0> d           5.791  -0.604  -0.055  0.00  0.00    -0.260 OA
ATOM      8  O2  <0> d           3.583  -0.640  -0.035  0.00  0.00    -0.275 OA
ATOM      9  C7  <0> d           2.400   0.011  -0.021  0.00  0.00     0.092 A 
ATOM     10  C8  <0> d           1.205  -0.692  -0.013  0.00  0.00     0.074 A 
ATOM     11  C9  <0> d           0.002  -0.004   0.002  0.00  0.00     0.068 A 
ENDROOT
BRANCH   4  12
ATOM     12  C10 <0> d           3.666   3.657  -0.013  0.00  0.00     0.113 C 
BRANCH  12  13
ATOM     13  S1  <0> d           3.218   4.277  -1.658  0.00  0.00    -0.162 SA
BRANCH  13  14
ATOM     14  C11 <0> d           3.293   6.081  -1.483  0.00  0.00     0.100 C 
BRANCH  14  15
ATOM     15  C12 <0> d           2.932   6.739  -2.816  0.00  0.00     0.174 C 
BRANCH  15  16
ATOM     16  O4  <0> d           2.991   8.160  -2.678  0.00  0.00    -0.400 OA
ATOM     17  H12 <0> d           2.773   8.643  -3.487  0.00  0.00     0.209 HD
ENDBRANCH  15  16
ENDBRANCH  14  15
ENDBRANCH  13  14
ENDBRANCH  12  13
ENDBRANCH   4  12
BRANCH  11  18
ATOM     18  O3  <0> d          -1.167  -0.693   0.009  0.00  0.00    -0.361 OA
ATOM     19  H5  <0> d          -1.515  -0.888  -0.872  0.00  0.00     0.217 HD
ENDBRANCH  11  18
TORSDOF 6
