REMARK  4 active torsions:
REMARK  status: ('A' for Active; 'I' for Inactive)
REMARK    1  A    between atoms: C5_5  and  C8_8 
REMARK    2  A    between atoms: C10_11  and  C11_13 
REMARK    3  A    between atoms: C12_14  and  N3_28 
REMARK    4  A    between atoms: N2_15  and  C15_19 
ROOT
ATOM      1  C11 <0> d           1.951   2.842  -5.608  0.00  0.00     0.091 A 
ATOM      2  C12 <0> d           1.540   2.203  -4.443  0.00  0.00     0.114 A 
ATOM      3  N2  <0> d           1.202   3.097  -3.475  0.00  0.00    -0.355 N 
ATOM      4  C13 <0> d           1.390   4.449  -4.020  0.00  0.00     0.209 A 
ATOM      5  C14 <0> d           1.893   4.234  -5.432  0.00  0.00     0.183 A 
ATOM      6  O1  <0> d           2.182   5.090  -6.247  0.00  0.00    -0.290 OA
ENDROOT
BRANCH   1   7
ATOM      7  C10 <0> d           2.384   2.160  -6.843  0.00  0.00     0.116 A 
ATOM      8  S1  <0> d           2.499   0.410  -7.187  0.00  0.00    -0.079 SA
ATOM      9  C9  <0> d           3.092   0.552  -8.868  0.00  0.00     0.084 A 
ATOM     10  C8  <0> d           3.144   1.912  -9.006  0.00  0.00     0.075 A 
ATOM     11  N1  <0> d           2.784   2.682  -7.993  0.00  0.00    -0.239 NA
BRANCH  10  12
ATOM     12  C5  <0> d           3.596   2.517 -10.283  0.00  0.00    -0.007 A 
ATOM     13  C4  <0> d           3.648   3.903 -10.419  0.00  0.00     0.014 A 
ATOM     14  C3  <0> d           4.069   4.461 -11.610  0.00  0.00     0.007 A 
ATOM     15  C2  <0> d           4.439   3.647 -12.665  0.00  0.00    -0.062 A 
ATOM     16  C1  <0> d           4.898   4.262 -13.962  0.00  0.00     0.048 C 
ATOM     17  C7  <0> d           4.389   2.271 -12.535  0.00  0.00     0.007 A 
ATOM     18  C6  <0> d           3.974   1.702 -11.348  0.00  0.00     0.014 A 
ENDBRANCH  10  12
ENDBRANCH   1   7
BRANCH   2  19
ATOM     19  N3  <0> d           1.482   0.849  -4.290  0.00  0.00    -0.385 N 
ATOM     20  H28 <0> d           1.185   0.468  -3.449  0.00  0.00     0.157 HD
ATOM     21  H29 <0> d           1.738   0.267  -5.022  0.00  0.00     0.157 HD
ENDBRANCH   2  19
BRANCH   3  22
ATOM     22  C15 <0> d           0.727   2.770  -2.128  0.00  0.00     0.091 C 
ATOM     23  C19 <0> d          -0.543   1.927  -2.233  0.00  0.00     0.063 C 
ATOM     24  C18 <0> d          -1.048   1.551  -0.843  0.00  0.00     0.121 C 
ATOM     25  C20 <0> d          -2.143   0.475  -1.020  0.00  0.00     0.046 C 
ATOM     26  C21 <0> d          -1.713   2.771  -0.192  0.00  0.00     0.046 C 
ATOM     27  N4  <0> d          -0.027   0.945   0.053  0.00  0.00    -0.059 N 
ATOM     28  C17 <0> d           1.318   1.579  -0.002  0.00  0.00     0.121 C 
ATOM     29  H30 <0> d          -0.371   1.013   1.018  0.00  0.00     0.279 HD
ATOM     30  H31 <0> d           0.076  -0.043  -0.205  0.00  0.00     0.279 HD
ATOM     31  C16 <0> d           1.795   1.952  -1.403  0.00  0.00     0.063 C 
ATOM     32  C22 <0> d           1.397   2.808   0.911  0.00  0.00     0.046 C 
ATOM     33  C23 <0> d           2.301   0.528   0.560  0.00  0.00     0.046 C 
ENDBRANCH   3  22
TORSDOF 4
