REMARK  5 active torsions:
REMARK  status: ('A' for Active; 'I' for Inactive)
REMARK    1  A    between atoms: C5_5  and  O1_9 
REMARK    2  A    between atoms: O1_9  and  C8_10 
REMARK    3  A    between atoms: C8_10  and  C9_11 
REMARK       I    between atoms: C9_11  and  N1_13 
REMARK    4  A    between atoms: N1_13  and  C10_14 
REMARK    5  A    between atoms: C14_18  and  C16_20 
REMARK       I    between atoms: C16_20  and  N2_22 
ROOT
ATOM      1  C10 <0> d          -2.480   0.845   5.671  0.00  0.00     0.035 A 
ATOM      2  C11 <0> d          -2.773   2.199   5.781  0.00  0.00     0.029 A 
ATOM      3  C12 <0> d          -2.517   3.054   4.726  0.00  0.00     0.003 A 
ATOM      4  C13 <0> d          -1.965   2.570   3.557  0.00  0.00     0.017 A 
ATOM      5  C14 <0> d          -1.672   1.211   3.434  0.00  0.00     0.034 A 
ATOM      6  C15 <0> d          -1.929   0.348   4.500  0.00  0.00     0.046 A 
ENDROOT
BRANCH   1   7
ATOM      7  N1  <0> d          -2.740  -0.017   6.742  0.00  0.00    -0.325 N 
ATOM      8  C9  <0> d          -1.912  -1.050   6.992  0.00  0.00     0.246 C 
ATOM      9  O2  <0> d          -0.990  -1.285   6.239  0.00  0.00    -0.271 OA
ATOM     10  H9  <0> d          -3.516   0.130   7.305  0.00  0.00     0.169 HD
BRANCH   8  11
ATOM     11  C8  <0> d          -2.132  -1.916   8.206  0.00  0.00     0.278 C 
BRANCH  11  12
ATOM     12  O1  <0> d          -1.133  -2.936   8.251  0.00  0.00    -0.341 OA
BRANCH  12  13
ATOM     13  C5  <0> d          -1.188  -3.808   9.292  0.00  0.00     0.086 A 
ATOM     14  C4  <0> d          -2.184  -3.685  10.250  0.00  0.00     0.039 A 
ATOM     15  C3  <0> d          -2.238  -4.573  11.307  0.00  0.00     0.009 A 
ATOM     16  C2  <0> d          -1.302  -5.585  11.411  0.00  0.00    -0.061 A 
ATOM     17  C1  <0> d          -1.364  -6.552  12.564  0.00  0.00     0.048 C 
ATOM     18  C7  <0> d          -0.308  -5.711  10.457  0.00  0.00     0.028 A 
ATOM     19  C6  <0> d          -0.252  -4.828   9.396  0.00  0.00     0.044 A 
ATOM     20 Br1  <0> d           1.103  -5.005   8.088  0.00  0.00    -0.048 Br
ENDBRANCH  12  13
ENDBRANCH  11  12
ENDBRANCH   8  11
ENDBRANCH   1   7
BRANCH   5  21
ATOM     21  C16 <0> d          -1.085   0.689   2.182  0.00  0.00     0.254 C 
ATOM     22  O3  <0> d          -0.327  -0.261   2.215  0.00  0.00    -0.267 OA
ATOM     23  N2  <0> d          -1.391   1.266   1.003  0.00  0.00    -0.345 N 
ATOM     24  C20 <0> d          -2.405   2.328   0.921  0.00  0.00     0.154 C 
ATOM     25  C17 <0> d          -0.723   0.846  -0.239  0.00  0.00     0.154 C 
ATOM     26  C19 <0> d          -3.409   1.966  -0.179  0.00  0.00     0.254 C 
ATOM     27  N3  <0> d          -2.668   1.725  -1.436  0.00  0.00    -0.072 N 
ATOM     28  C18 <0> d          -1.792   0.541  -1.293  0.00  0.00     0.254 C 
ATOM     29  C21 <0> d          -3.618   1.517  -2.549  0.00  0.00     0.269 C 
ATOM     30  H25 <0> d          -2.087   2.546  -1.643  0.00  0.00     0.279 HD
ENDBRANCH   5  21
TORSDOF 5
