REMARK  6 active torsions:
REMARK  status: ('A' for Active; 'I' for Inactive)
REMARK    1  A    between atoms: N1_10  and  N3_14 
REMARK       I    between atoms: N3_14  and  C10_15 
REMARK    2  A    between atoms: C10_15  and  C11_17 
REMARK    3  A    between atoms: C11_17  and  N5_33 
REMARK    4  A    between atoms: C13_19  and  C14_20 
REMARK    5  A    between atoms: C13_19  and  N5_33 
REMARK       I    between atoms: C14_20  and  N4_22 
REMARK    6  A    between atoms: N4_22  and  C15_23 
ROOT
ATOM      1  N3  <0> d          -2.358  -2.758   0.677  0.00  0.00    -0.255 N 
ATOM      2  C10 <0> d          -1.243  -2.039   0.439  0.00  0.00     0.262 C 
ATOM      3  O3  <0> d          -0.163  -2.589   0.405  0.00  0.00    -0.270 OA
ATOM      4  H14 <0> d          -3.222  -2.318   0.704  0.00  0.00     0.191 HD
ENDROOT
BRANCH   2   5
ATOM      5  C11 <0> d          -1.339  -0.552   0.215  0.00  0.00     0.338 C 
BRANCH   5   6
ATOM      6  N5  <0> d           0.020  -0.013  -0.000  0.00  0.00    -0.058 N 
ATOM      7  C12 <0> d           0.564  -0.512  -1.281  0.00  0.00     0.270 C 
ATOM      8  H27 <0> d           0.628  -0.327   0.765  0.00  0.00     0.280 HD
BRANCH   6   9
ATOM      9  C13 <0> d          -0.017   1.464  -0.008  0.00  0.00     0.337 C 
BRANCH   9  10
ATOM     10  C14 <0> d           1.396   1.986  -0.007  0.00  0.00     0.248 C 
ATOM     11  O4  <0> d           2.329   1.211  -0.016  0.00  0.00    -0.271 OA
ATOM     12  N4  <0> d           1.624   3.315   0.004  0.00  0.00    -0.324 N 
ATOM     13  H22 <0> d           0.881   3.935  -0.054  0.00  0.00     0.169 HD
BRANCH  12  14
ATOM     14  C15 <0> d           2.934   3.799   0.100  0.00  0.00     0.056 A 
ATOM     15  C20 <0> d           3.194   4.968   0.805  0.00  0.00     0.060 A 
ATOM     16  C19 <0> d           4.489   5.444   0.898  0.00  0.00     0.026 A 
ATOM     17 Cl1  <0> d           1.895   5.829   1.570  0.00  0.00    -0.082 Cl
ATOM     18  C18 <0> d           5.524   4.758   0.289  0.00  0.00     0.002 A 
ATOM     19  C17 <0> d           5.267   3.594  -0.413  0.00  0.00     0.002 A 
ATOM     20  C16 <0> d           3.977   3.111  -0.505  0.00  0.00     0.031 A 
ENDBRANCH  12  14
ENDBRANCH   9  10
ENDBRANCH   6   9
ENDBRANCH   5   6
ENDBRANCH   2   5
BRANCH   1  21
ATOM     21  N1  <0> d          -2.268  -4.141   0.885  0.00  0.00    -0.167 N 
ATOM     22  C8  <0> d          -2.388  -4.736   2.090  0.00  0.00     0.275 A 
ATOM     23  C5  <0> d          -2.224  -6.215   1.828  0.00  0.00     0.117 A 
ATOM     24  O1  <0> d          -2.586  -4.197   3.158  0.00  0.00    -0.268 OA
ATOM     25  C4  <0> d          -1.013  -6.757   2.578  0.00  0.00     0.041 C 
ATOM     26  N2  <0> d          -2.012  -6.299   0.377  0.00  0.00    -0.323 N 
ATOM     27  C6  <0> d          -3.488  -6.969   2.228  0.00  0.00     0.041 C 
ATOM     28  C3  <0> d          -0.848  -8.249   2.278  0.00  0.00     0.007 C 
ATOM     29  C2  <0> d          -2.111  -8.997   2.708  0.00  0.00    -0.019 C 
ATOM     30  C1  <0> d          -1.942 -10.490   2.419  0.00  0.00     0.010 C 
ATOM     31  C7  <0> d          -3.313  -8.460   1.929  0.00  0.00     0.007 C 
ATOM     32  C9  <0> d          -2.060  -5.036  -0.088  0.00  0.00     0.345 A 
ATOM     33  H13 <0> d          -1.870  -7.105  -0.143  0.00  0.00     0.165 HD
ATOM     34  O2  <0> d          -1.925  -4.742  -1.260  0.00  0.00    -0.245 OA
ENDBRANCH   1  21
TORSDOF 6
