REMARK  8 active torsions:
REMARK  status: ('A' for Active; 'I' for Inactive)
REMARK    1  A    between atoms: C3_3  and  N2_15 
REMARK    2  A    between atoms: C5_5  and  S1_7 
REMARK    3  A    between atoms: S1_7  and  N1_10 
REMARK    4  A    between atoms: N1_10  and  C7_11 
REMARK       I    between atoms: N2_15  and  C11_16 
REMARK    5  A    between atoms: C11_16  and  C12_18 
REMARK    6  A    between atoms: C12_18  and  C13_19 
REMARK    7  A    between atoms: C13_19  and  C14_20 
REMARK    8  A    between atoms: C14_20  and  C15_22 
ROOT
ATOM      1  C1  <0> d           2.244  -0.124   5.704  0.00  0.00     0.004 A 
ATOM      2  C2  <0> d           1.491   0.277   4.618  0.00  0.00     0.029 A 
ATOM      3  C3  <0> d           0.309   0.980   4.816  0.00  0.00     0.036 A 
ATOM      4  C4  <0> d          -0.117   1.267   6.106  0.00  0.00     0.054 A 
ATOM      5  C5  <0> d           0.638   0.858   7.188  0.00  0.00     0.082 A 
ATOM      6  C6  <0> d           1.817   0.163   6.987  0.00  0.00     0.025 A 
ENDROOT
BRANCH   3   7
ATOM      7  N2  <0> d          -0.453   1.393   3.718  0.00  0.00    -0.327 N 
ATOM      8  C11 <0> d          -1.122   2.562   3.763  0.00  0.00     0.222 C 
ATOM      9  O3  <0> d          -1.131   3.216   4.785  0.00  0.00    -0.273 OA
ATOM     10  H12 <0> d          -0.500   0.838   2.924  0.00  0.00     0.169 HD
BRANCH   8  11
ATOM     11  C12 <0> d          -1.858   3.057   2.545  0.00  0.00     0.111 C 
BRANCH  11  12
ATOM     12  C13 <0> d          -2.527   4.396   2.862  0.00  0.00     0.093 C 
BRANCH  12  13
ATOM     13  C14 <0> d          -3.263   4.891   1.644  0.00  0.00     0.166 C 
ATOM     14  O4  <0> d          -3.253   4.236   0.621  0.00  0.00    -0.292 OA
BRANCH  13  15
ATOM     15  C15 <0> d          -3.963   6.115   1.691  0.00  0.00     0.052 A 
ATOM     16  S2  <0> d          -4.143   7.255   3.051  0.00  0.00    -0.074 SA
ATOM     17  C18 <0> d          -5.122   8.449   2.262  0.00  0.00     0.075 A 
ATOM     18  C17 <0> d          -5.283   7.941   1.008  0.00  0.00     0.033 A 
ATOM     19 Cl1  <0> d          -5.751   9.929   2.915  0.00  0.00    -0.076 Cl
ATOM     20  C16 <0> d          -4.698   6.744   0.691  0.00  0.00     0.025 A 
ENDBRANCH  13  15
ENDBRANCH  12  13
ENDBRANCH  11  12
ENDBRANCH   8  11
ENDBRANCH   3   7
BRANCH   5  21
ATOM     21  S1  <0> d           0.099   1.221   8.826  0.00  0.00     0.264 S 
ATOM     22  O1  <0> d           1.257   1.207   9.648  0.00  0.00    -0.200 OA
ATOM     23  O2  <0> d          -0.754   2.354   8.730  0.00  0.00    -0.200 OA
BRANCH  21  24
ATOM     24  N1  <0> d          -0.849  -0.044   9.321  0.00  0.00    -0.270 N 
ATOM     25  H5  <0> d          -1.792   0.097   9.498  0.00  0.00     0.180 HD
BRANCH  24  26
ATOM     26  C7  <0> d          -0.300  -1.289   9.480  0.00  0.00     0.086 C 
ATOM     27  C10 <0> d          -1.067  -2.512   9.932  0.00  0.00     0.078 C 
ATOM     28  C9  <0> d          -0.139  -3.692   9.551  0.00  0.00     0.027 C 
ATOM     29  C8  <0> d           1.237  -2.986   9.526  0.00  0.00     0.121 C 
ATOM     30  N3  <0> d           0.950  -1.560   9.265  0.00  0.00    -0.379 N 
ATOM     31  H19 <0> d           1.648  -0.874   8.954  0.00  0.00     0.160 HD
ENDBRANCH  24  26
ENDBRANCH  21  24
ENDBRANCH   5  21
TORSDOF 8
