REMARK  5 active torsions:
REMARK  status: ('A' for Active; 'I' for Inactive)
REMARK    1  A    between atoms: C6_7  and  C8_11 
REMARK    2  A    between atoms: C8_11  and  S1_13 
REMARK    3  A    between atoms: S1_13  and  C10_14 
REMARK    4  A    between atoms: C11_17  and  C15_22 
REMARK    5  A    between atoms: N5_18  and  C12_19 
ROOT
ATOM      1  C10 <0> d           7.579  -5.060  -0.490  0.00  0.00     0.268 A 
ATOM      2  N3  <0> d           6.554  -6.003  -0.011  0.00  0.00    -0.279 N 
ATOM      3  N4  <0> d           6.856  -6.263   1.331  0.00  0.00    -0.158 NA
ATOM      4  C11 <0> d           7.907  -5.615   1.715  0.00  0.00     0.158 A 
ATOM      5  N5  <0> d           8.442  -4.840   0.682  0.00  0.00    -0.328 N 
ATOM      6  H10 <0> d           5.817  -6.370  -0.523  0.00  0.00     0.185 HD
ENDROOT
BRANCH   1   7
ATOM      7  S1  <0> d           6.813  -3.502  -1.017  0.00  0.00    -0.109 SA
BRANCH   7   8
ATOM      8  C8  <0> d           5.726  -3.058   0.366  0.00  0.00     0.118 C 
ATOM      9  C9  <0> d           6.574  -2.595   1.552  0.00  0.00     0.029 C 
BRANCH   8  10
ATOM     10  C6  <0> d           4.804  -1.944  -0.058  0.00  0.00     0.144 A 
ATOM     11  N1  <0> d           4.001  -1.414   0.852  0.00  0.00    -0.224 NA
ATOM     12  C5  <0> d           3.175  -0.441   0.549  0.00  0.00     0.112 A 
ATOM     13  C4  <0> d           3.116   0.094  -0.828  0.00  0.00     0.073 A 
ATOM     14  S2  <0> d           1.974   0.506   1.453  0.00  0.00    -0.100 SA
ATOM     15  C3  <0> d           2.249   1.088  -1.073  0.00  0.00    -0.051 A 
ATOM     16  C7  <0> d           4.062  -0.570  -1.781  0.00  0.00     0.282 A 
ATOM     17  C2  <0> d           1.401   1.582   0.077  0.00  0.00     0.079 A 
ATOM     18  C20 <0> d           2.125   1.691  -2.449  0.00  0.00     0.046 C 
ATOM     19  C1  <0> d           1.688   3.054   0.377  0.00  0.00     0.026 C 
ATOM     20  N2  <0> d           4.839  -1.550  -1.308  0.00  0.00    -0.193 NA
ATOM     21  O1  <0> d           4.120  -0.229  -2.950  0.00  0.00    -0.265 OA
ENDBRANCH   8  10
ENDBRANCH   7   8
ENDBRANCH   1   7
BRANCH   5  22
ATOM     22  C12 <0> d           9.626  -3.980   0.751  0.00  0.00     0.089 A 
ATOM     23  C14 <0> d          10.842  -4.383  -0.086  0.00  0.00     0.027 A 
ATOM     24  C13 <0> d           9.992  -3.181  -0.502  0.00  0.00     0.027 A 
ENDBRANCH   5  22
BRANCH   4  25
ATOM     25  C15 <0> d           8.473  -5.685   3.078  0.00  0.00     0.014 A 
ATOM     26  C19 <0> d           9.777  -5.247   3.339  0.00  0.00     0.032 A 
ATOM     27  C18 <0> d          10.263  -5.324   4.627  0.00  0.00     0.088 A 
ATOM     28  N6  <0> d           9.521  -5.814   5.603  0.00  0.00    -0.375 N 
ATOM     29  C17 <0> d           8.290  -6.242   5.400  0.00  0.00     0.088 A 
ATOM     30  H23 <0> d           9.893  -5.859   6.498  0.00  0.00     0.164 HD
ATOM     31  C16 <0> d           7.722  -6.196   4.144  0.00  0.00     0.032 A 
ENDBRANCH   4  25
TORSDOF 5
