REMARK  4 active torsions:
REMARK  status: ('A' for Active; 'I' for Inactive)
REMARK    1  A    between atoms: C3_3  and  C10_12 
REMARK    2  A    between atoms: C5_5  and  C7_7 
REMARK    3  A    between atoms: C13_15  and  C14_17 
REMARK    4  A    between atoms: C16_20  and  N4_22 
ROOT
ATOM      1  C10 <0> d           3.656   2.159  -0.022  0.00  0.00     0.016 A 
ATOM      2  C11 <0> d           3.855   3.516  -0.011  0.00  0.00     0.021 A 
ATOM      3  C12 <0> d           5.141   3.998  -0.022  0.00  0.00     0.023 A 
ATOM      4  C13 <0> d           6.183   3.105  -0.043  0.00  0.00     0.035 A 
ATOM      5  S1  <0> d           5.329   1.537  -0.041  0.00  0.00    -0.087 SA
ENDROOT
BRANCH   1   6
ATOM      6  C3  <0> d           2.385   1.407  -0.013  0.00  0.00    -0.018 A 
ATOM      7  C2  <0> d           1.167   2.088   0.002  0.00  0.00     0.013 A 
ATOM      8  C1  <0> d          -0.017   1.379   0.010  0.00  0.00     0.002 A 
ATOM      9  C6  <0> d           0.002  -0.004   0.002  0.00  0.00     0.009 A 
ATOM     10  C5  <0> d           1.206  -0.686  -0.013  0.00  0.00    -0.029 A 
ATOM     11  C4  <0> d           2.397   0.010  -0.021  0.00  0.00     0.022 A 
BRANCH  10  12
ATOM     12  C7  <0> d           1.217  -2.193  -0.022  0.00  0.00     0.158 A 
ATOM     13  N2  <0> d           0.100  -2.717  -0.827  0.00  0.00    -0.301 N 
ATOM     14  N1  <0> d          -0.623  -3.381  -0.075  0.00  0.00    -0.191 NA
ATOM     15  H13 <0> d          -0.041  -2.566  -1.775  0.00  0.00     0.183 HD
ATOM     16  C9  <0> d          -0.199  -3.437   1.208  0.00  0.00     0.136 A 
ATOM     17  C8  <0> d           0.928  -2.740   1.365  0.00  0.00     0.025 A 
ENDBRANCH  10  12
ENDBRANCH   1   6
BRANCH   4  18
ATOM     18  C14 <0> d           7.636   3.373  -0.058  0.00  0.00     0.083 A 
ATOM     19  N3  <0> d           8.091   4.625  -0.052  0.00  0.00    -0.223 NA
ATOM     20  C16 <0> d           9.386   4.880  -0.060  0.00  0.00     0.164 A 
ATOM     21  S2  <0> d          10.078   3.233  -0.091  0.00  0.00    -0.062 SA
ATOM     22  C15 <0> d           8.530   2.337  -0.084  0.00  0.00     0.086 A 
BRANCH  20  23
ATOM     23  N4  <0> d          10.037   6.103  -0.051  0.00  0.00    -0.378 N 
ATOM     24  H11 <0> d          11.007   6.136  -0.063  0.00  0.00     0.158 HD
ATOM     25  H12 <0> d           9.524   6.926  -0.033  0.00  0.00     0.158 HD
ENDBRANCH  20  23
ENDBRANCH   4  18
TORSDOF 4
