REMARK  7 active torsions:
REMARK  status: ('A' for Active; 'I' for Inactive)
REMARK    1  A    between atoms: C4_4  and  C7_7 
REMARK    2  A    between atoms: C7_7  and  C8_8 
REMARK    3  A    between atoms: C7_7  and  C14_14 
REMARK    4  A    between atoms: C7_7  and  O2_27 
REMARK    5  A    between atoms: C14_14  and  N1_15 
REMARK    6  A    between atoms: C14_14  and  N2_18 
REMARK    7  A    between atoms: N1_15  and  C15_16 
ROOT
ATOM      1  C7  <0> d          -0.384   3.442  -1.101  0.00  0.00     0.152 C 
ENDROOT
BRANCH   1   2
ATOM      2  C4  <0> d          -1.462   2.976  -2.045  0.00  0.00    -0.015 A 
ATOM      3  C3  <0> d          -1.125   2.506  -3.300  0.00  0.00     0.011 A 
ATOM      4  C2  <0> d          -2.115   2.079  -4.167  0.00  0.00     0.001 A 
ATOM      5  C1  <0> d          -3.440   2.122  -3.777  0.00  0.00     0.000 A 
ATOM      6  C6  <0> d          -3.777   2.592  -2.522  0.00  0.00     0.001 A 
ATOM      7  C5  <0> d          -2.787   3.015  -1.654  0.00  0.00     0.011 A 
ENDBRANCH   1   2
BRANCH   1   8
ATOM      8  C8  <0> d          -0.134   4.913  -1.309  0.00  0.00    -0.015 A 
ATOM      9  C13 <0> d           0.888   5.330  -2.141  0.00  0.00     0.011 A 
ATOM     10  C12 <0> d           1.116   6.680  -2.333  0.00  0.00     0.001 A 
ATOM     11  C11 <0> d           0.322   7.613  -1.692  0.00  0.00     0.000 A 
ATOM     12  C10 <0> d          -0.700   7.196  -0.860  0.00  0.00     0.001 A 
ATOM     13  C9  <0> d          -0.931   5.846  -0.672  0.00  0.00     0.011 A 
ENDBRANCH   1   8
BRANCH   1  14
ATOM     14  C14 <0> d          -0.830   3.199   0.342  0.00  0.00     0.256 C 
BRANCH  14  15
ATOM     15  N1  <0> d          -0.988   1.761   0.570  0.00  0.00    -0.342 N 
ATOM     16  H12 <0> d          -1.872   1.386   0.708  0.00  0.00     0.164 HD
BRANCH  15  17
ATOM     17  C15 <0> d           0.095   0.958   0.587  0.00  0.00     0.350 C 
ATOM     18  O1  <0> d           1.191   1.414   0.340  0.00  0.00    -0.284 OA
ENDBRANCH  15  17
ENDBRANCH  14  15
BRANCH  14  19
ATOM     19  N2  <0> d           0.179   3.731   1.262  0.00  0.00    -0.222 N 
ATOM     20  N4  <0> d           1.507   3.297   1.393  0.00  0.00    -0.063 NA
ATOM     21  N3  <0> d           2.097   3.994   2.298  0.00  0.00    -0.130 NA
ATOM     22  C21 <0> d           1.249   4.905   2.816  0.00  0.00     0.109 A 
ATOM     23  C16 <0> d           0.013   4.757   2.161  0.00  0.00     0.087 A 
ATOM     24  C20 <0> d           1.384   5.887   3.806  0.00  0.00     0.036 A 
ATOM     25  C17 <0> d          -1.053   5.583   2.499  0.00  0.00     0.034 A 
ATOM     26  C18 <0> d          -0.894   6.537   3.465  0.00  0.00     0.002 A 
ATOM     27  C19 <0> d           0.325   6.690   4.113  0.00  0.00     0.003 A 
ENDBRANCH  14  19
ENDBRANCH   1  14
BRANCH   1  28
ATOM     28  O2  <0> d           0.819   2.714  -1.356  0.00  0.00    -0.376 OA
ATOM     29  H18 <0> d           0.689   1.761  -1.453  0.00  0.00     0.211 HD
ENDBRANCH   1  28
TORSDOF 7
