REMARK  5 active torsions:
REMARK  status: ('A' for Active; 'I' for Inactive)
REMARK    1  A    between atoms: C6_7  and  C9_11 
REMARK    2  A    between atoms: C9_11  and  N3_12 
REMARK       I    between atoms: N3_12  and  C10_13 
REMARK    3  A    between atoms: C10_13  and  C11_15 
REMARK    4  A    between atoms: C11_15  and  N4_24 
REMARK    5  A    between atoms: C12_16  and  C13_17 
ROOT
ATOM      1  N3  <0> d          -1.536  -5.980   2.296  0.00  0.00    -0.350 N 
ATOM      2  C10 <0> d          -1.617  -7.048   3.113  0.00  0.00     0.270 C 
ATOM      3  O1  <0> d          -0.629  -7.435   3.709  0.00  0.00    -0.266 OA
ATOM      4  H10 <0> d          -2.306  -5.710   1.772  0.00  0.00     0.163 HD
ENDROOT
BRANCH   2   5
ATOM      5  C11 <0> d          -2.898  -7.745   3.285  0.00  0.00     0.130 C 
ATOM      6  C12 <0> d          -2.999  -8.767   4.168  0.00  0.00     0.049 C 
BRANCH   6   7
ATOM      7  C13 <0> d          -4.310  -9.370   4.447  0.00  0.00    -0.034 A 
ATOM      8  C18 <0> d          -5.468  -8.585   4.402  0.00  0.00     0.014 A 
ATOM      9  C17 <0> d          -6.695  -9.158   4.659  0.00  0.00     0.043 A 
ATOM     10  C16 <0> d          -6.782 -10.505   4.974  0.00  0.00     0.116 A 
ATOM     11  C15 <0> d          -5.638 -11.287   5.027  0.00  0.00     0.043 A 
ATOM     12  F1  <0> d          -7.987 -11.059   5.231  0.00  0.00    -0.206 F 
ATOM     13  C14 <0> d          -4.406 -10.729   4.766  0.00  0.00     0.014 A 
ENDBRANCH   6   7
BRANCH   5  14
ATOM     14  N4  <0> d          -4.015  -7.353   2.536  0.00  0.00    -0.193 N 
ATOM     15  N7  <0> d          -4.681  -8.095   1.545  0.00  0.00    -0.039 NA
ATOM     16  N6  <0> d          -5.651  -7.359   1.121  0.00  0.00    -0.023 NA
ATOM     17  N5  <0> d          -5.654  -6.232   1.737  0.00  0.00    -0.114 NA
ATOM     18  C19 <0> d          -4.680  -6.179   2.607  0.00  0.00     0.150 A 
ATOM     19  C20 <0> d          -4.358  -5.025   3.520  0.00  0.00     0.095 C 
ENDBRANCH   5  14
ENDBRANCH   2   5
BRANCH   1  20
ATOM     20  C9  <0> d          -0.284  -5.225   2.198  0.00  0.00     0.183 C 
BRANCH  20  21
ATOM     21  C6  <0> d          -0.457  -4.089   1.224  0.00  0.00     0.070 A 
ATOM     22  N1  <0> d          -0.312  -4.170  -0.101  0.00  0.00    -0.232 NA
ATOM     23  C5  <0> d          -0.540  -2.979  -0.637  0.00  0.00     0.134 A 
ATOM     24  C4  <0> d          -0.522  -2.518  -1.969  0.00  0.00     0.051 A 
ATOM     25  N2  <0> d          -0.839  -2.107   0.378  0.00  0.00    -0.315 N 
ATOM     26  C3  <0> d          -0.803  -1.212  -2.226  0.00  0.00     0.012 A 
ATOM     27  C2  <0> d          -1.106  -0.344  -1.165  0.00  0.00    -0.046 A 
ATOM     28  C1  <0> d          -1.418   1.104  -1.446  0.00  0.00     0.049 C 
ATOM     29  C8  <0> d          -1.114  -0.798   0.106  0.00  0.00     0.105 A 
ATOM     30  C7  <0> d          -0.784  -2.818   1.546  0.00  0.00     0.127 A 
ENDBRANCH  20  21
ENDBRANCH   1  20
TORSDOF 5
