REMARK  4 active torsions:
REMARK  status: ('A' for Active; 'I' for Inactive)
REMARK    1  A    between atoms: C2_2  and  N1_3 
REMARK       I    between atoms: N1_3  and  C3_4 
REMARK    2  A    between atoms: C3_4  and  C4_6 
REMARK    3  A    between atoms: C4_6  and  N2_7 
REMARK       I    between atoms: N2_7  and  C6_9 
REMARK    4  A    between atoms: C6_9  and  C7_11 
ROOT
ATOM      1  C7  <0> d          -3.631  -6.005  -1.124  0.00  0.00     0.102 A 
ATOM      2  C8  <0> d          -3.793  -6.825  -2.195  0.00  0.00     0.049 A 
ATOM      3  C9  <0> d          -4.171  -8.100  -1.710  0.00  0.00    -0.006 A 
ATOM      4  C10 <0> d          -4.469  -9.318  -2.334  0.00  0.00     0.032 A 
ATOM      5  C11 <0> d          -4.810 -10.403  -1.579  0.00  0.00     0.011 A 
ATOM      6  C12 <0> d          -4.866 -10.311  -0.193  0.00  0.00     0.021 A 
ATOM      7  C13 <0> d          -4.577  -9.125   0.443  0.00  0.00     0.031 A 
ATOM      8  C14 <0> d          -4.227  -8.005  -0.305  0.00  0.00     0.043 A 
ATOM      9  N3  <0> d          -3.887  -6.716   0.033  0.00  0.00    -0.351 N 
ATOM     10  H1  <0> d          -3.838  -6.363   0.935  0.00  0.00     0.166 HD
ATOM     11 Br1  <0> d          -5.212 -12.045  -2.426  0.00  0.00    -0.051 Br
ENDROOT
BRANCH   1  12
ATOM     12  C6  <0> d          -3.238  -4.590  -1.185  0.00  0.00     0.270 C 
ATOM     13  N2  <0> d          -2.943  -3.922  -0.052  0.00  0.00    -0.342 N 
ATOM     14  C5  <0> d          -2.880  -4.638   1.224  0.00  0.00     0.153 C 
ATOM     15  O2  <0> d          -3.179  -4.021  -2.259  0.00  0.00    -0.266 OA
BRANCH  13  16
ATOM     16  C4  <0> d          -2.686  -2.481  -0.097  0.00  0.00     0.228 C 
BRANCH  16  17
ATOM     17  C3  <0> d          -1.216  -2.239  -0.323  0.00  0.00     0.235 C 
ATOM     18  N1  <0> d          -0.744  -0.979  -0.400  0.00  0.00    -0.360 N 
ATOM     19  H7  <0> d          -1.350  -0.228  -0.310  0.00  0.00     0.162 HD
ATOM     20  O1  <0> d          -0.457  -3.179  -0.435  0.00  0.00    -0.272 OA
BRANCH  18  21
ATOM     21  C2  <0> d           0.686  -0.745  -0.619  0.00  0.00     0.118 C 
ATOM     22  C1  <0> d           0.954   0.761  -0.666  0.00  0.00     0.026 C 
ENDBRANCH  18  21
ENDBRANCH  16  17
ENDBRANCH  13  16
ENDBRANCH   1  12
TORSDOF 4
