REMARK  4 active torsions:
REMARK  status: ('A' for Active; 'I' for Inactive)
REMARK    1  A    between atoms: C5_5  and  C6_7 
REMARK    2  A    between atoms: C7_10  and  C8_12 
REMARK    3  A    between atoms: C8_12  and  C9_13 
REMARK    4  A    between atoms: C9_13  and  N3_14 
ROOT
ATOM      1  C6  <0> d           1.044  -4.025  -0.026  0.00  0.00     0.209 A 
ATOM      2  N1  <0> d           0.336  -5.134  -0.035  0.00  0.00    -0.121 NA
ATOM      3  N2  <0> d           1.132  -6.145  -0.042  0.00  0.00    -0.126 NA
ATOM      4  C7  <0> d           2.367  -5.729  -0.039  0.00  0.00     0.171 A 
ATOM      5  O1  <0> d           2.345  -4.384  -0.035  0.00  0.00    -0.273 OA
ENDROOT
BRANCH   1   6
ATOM      6  C5  <0> d           0.517  -2.653  -0.016  0.00  0.00     0.060 A 
ATOM      7  C4  <0> d          -0.797  -2.224  -0.007  0.00  0.00     0.024 A 
ATOM      8  C3  <0> d          -1.044  -0.871   0.002  0.00  0.00     0.015 A 
ATOM      9  C2  <0> d           0.002  -0.004   0.002  0.00  0.00    -0.021 A 
ATOM     10  C1  <0> d          -0.018   1.503   0.010  0.00  0.00     0.056 C 
ATOM     11  S1  <0> d           1.407  -1.105  -0.018  0.00  0.00    -0.091 SA
ENDBRANCH   1   6
BRANCH   4  12
ATOM     12  C8  <0> d           3.598  -6.598  -0.045  0.00  0.00     0.115 C 
BRANCH  12  13
ATOM     13  C9  <0> d           4.015  -6.881  -1.490  0.00  0.00     0.237 C 
BRANCH  13  14
ATOM     14  N3  <0> d           5.215  -7.728  -1.496  0.00  0.00    -0.079 N 
ATOM     15  H10 <0> d           5.965  -7.253  -1.016  0.00  0.00     0.274 HD
ATOM     16  H11 <0> d           5.014  -8.599  -1.027  0.00  0.00     0.274 HD
ATOM     17  H12 <0> d           5.490  -7.915  -2.448  0.00  0.00     0.274 HD
ENDBRANCH  13  14
ENDBRANCH  12  13
ENDBRANCH   4  12
TORSDOF 4
