REMARK  2 active torsions:
REMARK  status: ('A' for Active; 'I' for Inactive)
REMARK    1  A    between atoms: S1_2  and  C2_3 
REMARK    2  A    between atoms: C6_9  and  C7_12 
ROOT
ATOM      1  C2  <0> d           2.425   5.555  -2.758  0.00  0.00     0.184 A 
ATOM      2  N1  <0> d           1.758   6.201  -3.692  0.00  0.00    -0.234 NA
ATOM      3  C3  <0> d           0.434   6.219  -3.745  0.00  0.00     0.146 A 
ATOM      4  C4  <0> d          -0.310   5.537  -2.787  0.00  0.00     0.109 A 
ATOM      5  C5  <0> d           0.424   4.809  -1.734  0.00  0.00     0.166 A 
ATOM      6  N2  <0> d          -0.013   4.096  -0.728  0.00  0.00    -0.243 NA
ATOM      7  C6  <0> d           1.154   3.595   0.010  0.00  0.00     0.239 A 
ATOM      8  N3  <0> d           2.318   4.128  -0.724  0.00  0.00    -0.200 NA
ATOM      9  N4  <0> d           1.801   4.852  -1.768  0.00  0.00    -0.233 N 
ATOM     10  C13 <0> d          -1.742   5.542  -2.822  0.00  0.00     0.105 C 
ATOM     11  N5  <0> d          -2.878   5.546  -2.850  0.00  0.00    -0.191 NA
ATOM     12  H6  <0> d           2.887   4.708  -0.126  0.00  0.00     0.150 HD
ENDROOT
BRANCH   1  13
ATOM     13  S1  <0> d           4.186   5.600  -2.786  0.00  0.00    -0.095 SA
ATOM     14  C1  <0> d           4.451   6.631  -4.250  0.00  0.00     0.099 C 
ENDBRANCH   1  13
BRANCH   7  15
ATOM     15  C7  <0> d           1.173   2.088   0.002  0.00  0.00     0.042 A 
ATOM     16  C12 <0> d           2.379   1.411  -0.013  0.00  0.00     0.046 A 
ATOM     17  C11 <0> d           2.396   0.028  -0.020  0.00  0.00     0.024 A 
ATOM     18 Cl1  <0> d           3.872   2.298  -0.021  0.00  0.00    -0.084 Cl
ATOM     19  C10 <0> d           1.208  -0.679  -0.013  0.00  0.00     0.005 A 
ATOM     20  C9  <0> d           0.002  -0.004   0.002  0.00  0.00     0.043 A 
ATOM     21  C8  <0> d          -0.017   1.380   0.010  0.00  0.00     0.127 A 
ATOM     22  F1  <0> d          -1.196   2.040   0.019  0.00  0.00    -0.205 F 
ENDBRANCH   7  15
TORSDOF 2
