REMARK  3 active torsions:
REMARK  status: ('A' for Active; 'I' for Inactive)
REMARK    1  A    between atoms: C6_7  and  C11_13 
REMARK    2  A    between atoms: C7_9  and  C8_10 
REMARK       I    between atoms: C11_13  and  N3_15 
REMARK    3  A    between atoms: N3_15  and  C12_16 
ROOT
ATOM      1  C1  <0> d          -0.016   1.359   0.009  0.00  0.00     0.004 A 
ATOM      2  C2  <0> d           1.195   2.068   0.002  0.00  0.00     0.018 A 
ATOM      3  C3  <0> d           2.374   1.409  -0.013  0.00  0.00     0.099 A 
ATOM      4  N1  <0> d           2.406   0.044  -0.022  0.00  0.00    -0.307 N 
ATOM      5  C4  <0> d           1.235  -0.671  -0.014  0.00  0.00     0.074 A 
ATOM      6  C5  <0> d           0.002  -0.004   0.002  0.00  0.00     0.032 A 
ATOM      7  C6  <0> d           1.601  -2.024  -0.025  0.00  0.00     0.153 A 
ATOM      8  N2  <0> d           2.949  -2.067  -0.039  0.00  0.00    -0.227 NA
ATOM      9  C7  <0> d           3.428  -0.857  -0.037  0.00  0.00     0.116 A 
ENDROOT
BRANCH   7  10
ATOM     10  C11 <0> d           0.694  -3.171  -0.022  0.00  0.00     0.273 C 
ATOM     11  O1  <0> d          -0.511  -2.994  -0.009  0.00  0.00    -0.266 OA
ATOM     12  N3  <0> d           1.191  -4.424  -0.035  0.00  0.00    -0.350 N 
ATOM     13  H11 <0> d           2.151  -4.565  -0.045  0.00  0.00     0.163 HD
BRANCH  12  14
ATOM     14  C12 <0> d           0.282  -5.573  -0.032  0.00  0.00     0.099 C 
ATOM     15  C15 <0> d           0.999  -6.794   0.592  0.00  0.00     0.165 C 
ATOM     16  S1  <0> d           0.250  -8.209  -0.312  0.00  0.00     0.146 S 
ATOM     17  C14 <0> d          -0.836  -7.285  -1.479  0.00  0.00     0.142 C 
ATOM     18  O2  <0> d           1.264  -8.873  -1.052  0.00  0.00    -0.228 OA
ATOM     19  O3  <0> d          -0.563  -8.954   0.585  0.00  0.00    -0.228 OA
ATOM     20  C13 <0> d          -0.139  -5.894  -1.476  0.00  0.00     0.041 C 
ENDBRANCH  12  14
ENDBRANCH   7  10
BRANCH   9  21
ATOM     21  C8  <0> d           4.893  -0.505  -0.050  0.00  0.00     0.056 A 
ATOM     22  C10 <0> d           5.751  -1.006   1.114  0.00  0.00     0.013 A 
ATOM     23  C9  <0> d           5.892  -1.643  -0.270  0.00  0.00     0.013 A 
ENDBRANCH   9  21
TORSDOF 3
