REMARK  7 active torsions:
REMARK  status: ('A' for Active; 'I' for Inactive)
REMARK    1  A    between atoms: C3_5  and  S1_14 
REMARK    2  A    between atoms: N3_6  and  C4_7 
REMARK    3  A    between atoms: C4_7  and  C5_8 
REMARK    4  A    between atoms: S1_14  and  C11_15 
REMARK    5  A    between atoms: C11_15  and  C12_16 
REMARK       I    between atoms: C12_16  and  N4_18 
REMARK    6  A    between atoms: N4_18  and  N5_19 
REMARK       I    between atoms: N5_19  and  C13_20 
REMARK    7  A    between atoms: C13_20  and  C14_22 
ROOT
ATOM      1  S1  <0> d           0.059  -3.580   1.560  0.00  0.00    -0.081 SA
ENDROOT
BRANCH   1   2
ATOM      2  C3  <0> d           0.034  -2.095   0.611  0.00  0.00     0.192 A 
ATOM      3  N2  <0> d           0.027  -2.006  -0.699  0.00  0.00    -0.123 NA
ATOM      4  N1  <0> d           0.008  -0.770  -1.052  0.00  0.00    -0.134 NA
ATOM      5  C2  <0> d           0.002  -0.004   0.002  0.00  0.00     0.127 A 
ATOM      6  C1  <0> d          -0.018   1.503   0.010  0.00  0.00     0.093 C 
ATOM      7  N3  <0> d           0.024  -0.820   1.099  0.00  0.00    -0.307 N 
BRANCH   7   8
ATOM      8  C4  <0> d           0.031  -0.411   2.506  0.00  0.00     0.171 C 
BRANCH   8   9
ATOM      9  C5  <0> d          -1.388  -0.291   3.001  0.00  0.00    -0.040 A 
ATOM     10  C10 <0> d          -2.019  -1.386   3.562  0.00  0.00     0.009 A 
ATOM     11  C9  <0> d          -3.318  -1.274   4.020  0.00  0.00     0.001 A 
ATOM     12  C8  <0> d          -3.990  -0.071   3.909  0.00  0.00     0.000 A 
ATOM     13  C7  <0> d          -3.360   1.022   3.343  0.00  0.00     0.001 A 
ATOM     14  C6  <0> d          -2.059   0.912   2.889  0.00  0.00     0.009 A 
ENDBRANCH   8   9
ENDBRANCH   7   8
ENDBRANCH   1   2
BRANCH   1  15
ATOM     15  C11 <0> d           0.073  -4.897   0.313  0.00  0.00     0.186 C 
BRANCH  15  16
ATOM     16  C12 <0> d           0.095  -6.239   0.999  0.00  0.00     0.245 C 
ATOM     17  O1  <0> d           0.101  -6.300   2.211  0.00  0.00    -0.271 OA
ATOM     18  N4  <0> d           0.108  -7.370   0.267  0.00  0.00    -0.267 N 
ATOM     19  H13 <0> d           0.104  -7.321  -0.701  0.00  0.00     0.190 HD
BRANCH  18  20
ATOM     20  N5  <0> d           0.129  -8.617   0.906  0.00  0.00    -0.263 N 
ATOM     21  C13 <0> d           0.142  -9.749   0.174  0.00  0.00     0.272 C 
ATOM     22  O2  <0> d           0.136  -9.688  -1.041  0.00  0.00    -0.266 OA
ATOM     23  H14 <0> d           0.134  -8.666   1.875  0.00  0.00     0.190 HD
BRANCH  21  24
ATOM     24  C14 <0> d           0.164 -11.061   0.845  0.00  0.00     0.057 A 
ATOM     25  C17 <0> d           0.173 -11.300   2.188  0.00  0.00     0.158 A 
ATOM     26  O3  <0> d           0.189 -12.622   2.381  0.00  0.00    -0.334 OA
ATOM     27  C16 <0> d           0.200 -13.277   1.210  0.00  0.00     0.142 A 
ATOM     28  C15 <0> d           0.186 -12.385   0.207  0.00  0.00     0.043 A 
ENDBRANCH  21  24
ENDBRANCH  18  20
ENDBRANCH  15  16
ENDBRANCH   1  15
TORSDOF 7
