REMARK  4 active torsions:
REMARK  status: ('A' for Active; 'I' for Inactive)
REMARK    1  A    between atoms: N2_6  and  C5_7 
REMARK    2  A    between atoms: C13_15  and  O1_16 
REMARK    3  A    between atoms: N3_19  and  C18_22 
REMARK    4  A    between atoms: C21_26  and  N6_28 
ROOT
ATOM      1  C5  <0> d           0.101  -0.553   2.547  0.00  0.00     0.154 C 
ATOM      2  C6  <0> d           1.397  -1.034   3.165  0.00  0.00    -0.025 A 
ATOM      3  C7  <0> d           2.670  -0.491   3.114  0.00  0.00     0.010 A 
ATOM      4  C8  <0> d           3.718  -1.113   3.764  0.00  0.00     0.001 A 
ATOM      5  C9  <0> d           3.496  -2.282   4.469  0.00  0.00     0.001 A 
ATOM      6  C10 <0> d           2.227  -2.824   4.522  0.00  0.00     0.009 A 
ATOM      7  C11 <0> d           1.174  -2.201   3.871  0.00  0.00    -0.038 A 
ATOM      8  C12 <0> d          -0.285  -2.579   3.779  0.00  0.00     0.019 C 
ATOM      9  C13 <0> d          -1.015  -1.306   3.305  0.00  0.00     0.159 C 
ATOM     10  C14 <0> d          -0.479  -3.700   2.761  0.00  0.00     0.037 C 
ATOM     11  C15 <0> d          -1.972  -4.025   2.638  0.00  0.00     0.125 C 
ATOM     12  N3  <0> d          -2.504  -4.310   3.978  0.00  0.00    -0.365 N 
ATOM     13  C16 <0> d          -2.306  -3.319   5.044  0.00  0.00     0.125 C 
ATOM     14  C17 <0> d          -0.811  -3.000   5.148  0.00  0.00     0.037 C 
ENDROOT
BRANCH   9  15
ATOM     15  O1  <0> d          -1.478  -0.540   4.419  0.00  0.00    -0.392 OA
ATOM     16  H12 <0> d          -1.864   0.313   4.176  0.00  0.00     0.210 HD
ENDBRANCH   9  15
BRANCH   1  17
ATOM     17  N2  <0> d           0.063  -0.890   1.121  0.00  0.00    -0.334 N 
ATOM     18  C2  <0> d           0.688  -0.227   0.125  0.00  0.00     0.079 A 
ATOM     19  C1  <0> d           1.553   0.996   0.290  0.00  0.00     0.089 C 
ATOM     20  N1  <0> d           0.424  -0.825  -1.005  0.00  0.00    -0.355 N 
ATOM     21  C3  <0> d          -0.375  -1.876  -0.773  0.00  0.00     0.106 A 
ATOM     22  H25 <0> d           0.755  -0.551  -1.875  0.00  0.00     0.166 HD
ATOM     23  C4  <0> d          -0.616  -1.933   0.551  0.00  0.00     0.110 A 
ENDBRANCH   1  17
BRANCH  12  24
ATOM     24  C18 <0> d          -3.180  -5.492   4.231  0.00  0.00     0.146 A 
ATOM     25  N5  <0> d          -3.820  -5.670   5.382  0.00  0.00    -0.046 NA
ATOM     26  C21 <0> d          -4.472  -6.798   5.624  0.00  0.00     0.721 A 
ATOM     27  N4  <0> d          -4.502  -7.786   4.743  0.00  0.00    -0.075 NA
ATOM     28  C20 <0> d          -3.882  -7.679   3.577  0.00  0.00     0.140 A 
ATOM     29  C19 <0> d          -3.195  -6.518   3.282  0.00  0.00     0.071 A 
BRANCH  26  30
ATOM     30  N6  <0> d          -5.133  -6.949   6.830  0.00  0.00    -0.231 N 
ATOM     31  H23 <0> d          -5.611  -7.771   7.022  0.00  0.00     0.174 HD
ATOM     32  H24 <0> d          -5.119  -6.233   7.485  0.00  0.00     0.174 HD
ENDBRANCH  26  30
ENDBRANCH  12  24
TORSDOF 4
