REMARK  6 active torsions:
REMARK  status: ('A' for Active; 'I' for Inactive)
REMARK    1  A    between atoms: C5_5  and  C9_9 
REMARK    2  A    between atoms: C13_14  and  N3_18 
REMARK    3  A    between atoms: N3_18  and  C15_19 
REMARK    4  A    between atoms: C15_19  and  C16_20 
REMARK    5  A    between atoms: C16_20  and  C17_21 
REMARK    6  A    between atoms: C17_21  and  N4_22 
ROOT
ATOM      1  C9  <0> d           1.469  -2.038  -0.020  0.00  0.00    -0.002 A 
ATOM      2  C10 <0> d           2.747  -2.443   0.171  0.00  0.00     0.065 A 
ATOM      3  S1  <0> d           3.681  -0.928   0.077  0.00  0.00    -0.080 SA
ATOM      4  C11 <0> d           2.350   0.207  -0.213  0.00  0.00     0.113 A 
ATOM      5  C12 <0> d           1.206  -0.618  -0.231  0.00  0.00     0.057 A 
ATOM      6  C13 <0> d          -0.026   0.052  -0.450  0.00  0.00     0.139 A 
ATOM      7  N1  <0> d          -0.027   1.365  -0.619  0.00  0.00    -0.224 NA
ATOM      8  C14 <0> d           1.085   2.077  -0.590  0.00  0.00     0.236 A 
ATOM      9  N2  <0> d           2.260   1.510  -0.391  0.00  0.00    -0.234 NA
ENDROOT
BRANCH   6  10
ATOM     10  N3  <0> d          -1.213  -0.658  -0.487  0.00  0.00    -0.374 N 
ATOM     11  H12 <0> d          -1.198  -1.757  -0.438  0.00  0.00     0.161 HD
BRANCH  10  12
ATOM     12  C15 <0> d          -2.490   0.053  -0.591  0.00  0.00     0.123 C 
BRANCH  12  13
ATOM     13  C16 <0> d          -3.637  -0.959  -0.612  0.00  0.00     0.047 C 
BRANCH  13  14
ATOM     14  C17 <0> d          -4.970  -0.216  -0.721  0.00  0.00     0.231 C 
BRANCH  14  15
ATOM     15  N4  <0> d          -6.072  -1.188  -0.741  0.00  0.00    -0.079 N 
ATOM     16  H19 <0> d          -7.030  -0.654  -0.819  0.00  0.00     0.274 HD
ATOM     17  H20 <0> d          -6.056  -1.780   0.186  0.00  0.00     0.274 HD
ATOM     18  H21 <0> d          -5.954  -1.858  -1.606  0.00  0.00     0.274 HD
ENDBRANCH  14  15
ENDBRANCH  13  14
ENDBRANCH  12  13
ENDBRANCH  10  12
ENDBRANCH   6  10
BRANCH   1  19
ATOM     19  C5  <0> d           0.357  -3.018  -0.013  0.00  0.00    -0.018 A 
ATOM     20  C4  <0> d           0.229  -3.937  -1.055  0.00  0.00     0.013 A 
ATOM     21  C3  <0> d          -0.808  -4.848  -1.044  0.00  0.00     0.007 A 
ATOM     22  C2  <0> d          -1.719  -4.850  -0.002  0.00  0.00    -0.061 A 
ATOM     23  C1  <0> d          -2.848  -5.848   0.004  0.00  0.00     0.048 C 
ATOM     24  C7  <0> d          -1.596  -3.942   1.034  0.00  0.00     0.014 A 
ATOM     25  C6  <0> d          -0.560  -3.030   1.036  0.00  0.00    -0.050 A 
ATOM     26  C8  <0> d          -0.424  -2.045   2.168  0.00  0.00     0.049 C 
ENDBRANCH   1  19
TORSDOF 6
