REMARK  3 active torsions:
REMARK  status: ('A' for Active; 'I' for Inactive)
REMARK    1  A    between atoms: C2_2  and  C3_3 
REMARK    2  A    between atoms: C3_3  and  N1_5 
REMARK    3  A    between atoms: C6_8  and  C9_14 
ROOT
ATOM      1  C9  <0> d          -5.005   1.598  -2.050  0.00  0.00     0.255 C 
ATOM      2  C10 <0> d          -6.072   0.727  -1.383  0.00  0.00     0.147 A 
ATOM      3  C11 <0> d          -5.577   0.463   0.035  0.00  0.00    -0.041 A 
ATOM      4  C12 <0> d          -5.590  -0.853   0.197  0.00  0.00    -0.005 A 
ATOM      5  C13 <0> d          -5.310  -1.701   1.366  0.00  0.00     0.014 A 
ATOM      6  C14 <0> d          -5.405  -3.043   1.171  0.00  0.00     0.001 A 
ATOM      7  C15 <0> d          -5.747  -3.619  -0.057  0.00  0.00     0.002 A 
ATOM      8  C16 <0> d          -6.027  -2.916  -1.183  0.00  0.00     0.030 A 
ATOM      9  C17 <0> d          -5.966  -1.494  -1.101  0.00  0.00     0.039 A 
ATOM     10  N3  <0> d          -6.213  -0.581  -2.019  0.00  0.00    -0.378 N 
ATOM     11  C18 <0> d          -5.099   1.584   0.925  0.00  0.00     0.065 C 
ATOM     12  C19 <0> d          -4.143   2.432   0.066  0.00  0.00     0.237 C 
ATOM     13  N4  <0> d          -4.778   2.782  -1.207  0.00  0.00    -0.064 N 
ATOM     14  H20 <0> d          -4.185   3.430  -1.704  0.00  0.00     0.278 HD
ATOM     15  H21 <0> d          -6.443  -0.739  -2.948  0.00  0.00     0.160 HD
ATOM     16  H22 <0> d          -5.664   3.227  -1.021  0.00  0.00     0.278 HD
ENDROOT
BRANCH   1  17
ATOM     17  C6  <0> d          -3.724   0.817  -2.185  0.00  0.00     0.097 A 
ATOM     18  C5  <0> d          -3.108   0.667  -3.441  0.00  0.00     0.263 A 
ATOM     19  N1  <0> d          -1.962  -0.035  -3.540  0.00  0.00    -0.286 N 
ATOM     20  O1  <0> d          -3.609   1.168  -4.433  0.00  0.00    -0.267 OA
ATOM     21  C8  <0> d          -1.408  -0.595  -2.449  0.00  0.00     0.183 A 
ATOM     22  N2  <0> d          -1.977  -0.459  -1.237  0.00  0.00    -0.310 N 
ATOM     23  S1  <0> d           0.044  -1.487  -2.605  0.00  0.00    -0.040 SA
ATOM     24  C7  <0> d          -3.143   0.247  -1.091  0.00  0.00     0.195 A 
ATOM     25  H23 <0> d          -1.560  -0.867  -0.461  0.00  0.00     0.170 HD
ATOM     26  O2  <0> d          -3.713   0.376   0.126  0.00  0.00    -0.171 OA
BRANCH  19  27
ATOM     27  C3  <0> d          -1.317  -0.194  -4.846  0.00  0.00     0.091 C 
ATOM     28  C4  <0> d          -2.293  -0.859  -5.819  0.00  0.00     0.033 C 
BRANCH  27  29
ATOM     29  C2  <0> d          -0.915   1.180  -5.387  0.00  0.00     0.021 C 
ATOM     30  C1  <0> d           0.163   1.787  -4.486  0.00  0.00     0.007 C 
ENDBRANCH  27  29
ENDBRANCH  19  27
ENDBRANCH   1  17
TORSDOF 3
