REMARK  4 active torsions:
REMARK  status: ('A' for Active; 'I' for Inactive)
REMARK    1  A    between atoms: N1_7  and  S1_8 
REMARK    2  A    between atoms: S1_8  and  C7_11 
REMARK    3  A    between atoms: C10_14  and  N3_18 
REMARK    4  A    between atoms: C12_16  and  N2_17 
ROOT
ATOM      1  C7  <0> d           2.747   1.512   1.059  0.00  0.00     0.105 A 
ATOM      2  C8  <0> d           2.620   2.887   1.004  0.00  0.00     0.030 A 
ATOM      3  C9  <0> d           3.382   3.618   0.112  0.00  0.00     0.038 A 
ATOM      4  C10 <0> d           4.275   2.977  -0.728  0.00  0.00     0.105 A 
ATOM      5  C11 <0> d           4.408   1.603  -0.678  0.00  0.00     0.066 A 
ATOM      6  C12 <0> d           3.647   0.866   0.221  0.00  0.00     0.051 A 
ENDROOT
BRANCH   1   7
ATOM      7  S1  <0> d           1.775   0.581   2.195  0.00  0.00     0.263 S 
ATOM      8  O1  <0> d           0.988   1.518   2.919  0.00  0.00    -0.200 OA
ATOM      9  O2  <0> d           2.659  -0.327   2.837  0.00  0.00    -0.200 OA
BRANCH   7  10
ATOM     10  N1  <0> d           0.721  -0.334   1.304  0.00  0.00    -0.298 N 
ATOM     11  C2  <0> d          -0.470   0.275   0.697  0.00  0.00     0.092 C 
ATOM     12  C1  <0> d          -0.603   1.724   1.169  0.00  0.00     0.033 C 
ATOM     13  C3  <0> d          -1.707  -0.520   1.128  0.00  0.00     0.026 C 
ATOM     14  C4  <0> d          -1.508  -1.996   0.777  0.00  0.00     0.004 C 
ATOM     15  C5  <0> d          -0.294  -2.543   1.533  0.00  0.00     0.026 C 
ATOM     16  C6  <0> d           0.958  -1.771   1.107  0.00  0.00     0.092 C 
ATOM     17  C13 <0> d           1.252  -2.045  -0.370  0.00  0.00     0.033 C 
ENDBRANCH   7  10
ENDBRANCH   1   7
BRANCH   6  18
ATOM     18  N2  <0> d           3.783  -0.523   0.278  0.00  0.00    -0.398 N 
ATOM     19  H15 <0> d           3.264  -1.035   0.919  0.00  0.00     0.156 HD
ATOM     20  H16 <0> d           4.395  -0.976  -0.323  0.00  0.00     0.156 HD
ENDBRANCH   6  18
BRANCH   4  21
ATOM     21  N3  <0> d           5.089   3.764  -1.681  0.00  0.00    -0.116 N 
ATOM     22  O3  <0> d           4.974   4.966  -1.725  0.00  0.00    -0.532 OA
ATOM     23  O4  <0> d           5.870   3.204  -2.415  0.00  0.00    -0.532 OA
ENDBRANCH   4  21
TORSDOF 4
