REMARK  2 active torsions:
REMARK  status: ('A' for Active; 'I' for Inactive)
REMARK    1  A    between atoms: C3_3  and  C6_8 
REMARK    2  A    between atoms: N4_12  and  C12_19 
ROOT
ATOM      1  C6  <0> d           0.032  -0.134  -2.579  0.00  0.00     0.122 C 
ATOM      2  C7  <0> d          -1.402   0.046  -2.967  0.00  0.00     0.025 A 
ATOM      3  C8  <0> d          -2.427   0.176  -2.006  0.00  0.00     0.151 A 
ATOM      4  N3  <0> d          -3.566   0.316  -2.621  0.00  0.00    -0.177 NA
ATOM      5  N4  <0> d          -3.326   0.281  -3.994  0.00  0.00    -0.217 N 
ATOM      6  C9  <0> d          -1.972   0.115  -4.190  0.00  0.00     0.141 A 
ATOM      7  N5  <0> d          -1.440   0.054  -5.455  0.00  0.00    -0.310 N 
ATOM      8  C10 <0> d          -0.251  -0.138  -5.942  0.00  0.00     0.232 C 
ATOM      9  O1  <0> d          -0.203  -0.227  -7.151  0.00  0.00    -0.272 OA
ATOM     10  C11 <0> d           1.053  -0.264  -5.258  0.00  0.00     0.178 C 
ATOM     11  S1  <0> d           0.946  -1.181  -3.714  0.00  0.00    -0.145 SA
ATOM     12  H10 <0> d          -2.108   0.184  -6.146  0.00  0.00     0.170 HD
ENDROOT
BRANCH   1  13
ATOM     13  C3  <0> d           0.087  -0.748  -1.204  0.00  0.00     0.003 A 
ATOM     14  C2  <0> d          -0.013  -0.060   0.010  0.00  0.00     0.060 A 
ATOM     15  C1  <0> d          -0.193   1.428   0.170  0.00  0.00     0.073 C 
ATOM     16  N2  <0> d           0.083  -0.930   0.982  0.00  0.00    -0.178 NA
ATOM     17  N1  <0> d           0.239  -2.202   0.417  0.00  0.00    -0.284 N 
ATOM     18  C4  <0> d           0.241  -2.063  -0.925  0.00  0.00     0.122 A 
ATOM     19  C5  <0> d           0.379  -3.461   1.154  0.00  0.00     0.179 C 
ENDBRANCH   1  13
BRANCH   5  20
ATOM     20  C12 <0> d          -4.294   0.395  -5.001  0.00  0.00     0.060 A 
ATOM     21  C17 <0> d          -4.253  -0.447  -6.104  0.00  0.00     0.031 A 
ATOM     22  C16 <0> d          -5.212  -0.336  -7.092  0.00  0.00     0.002 A 
ATOM     23  C15 <0> d          -6.205   0.620  -6.989  0.00  0.00     0.000 A 
ATOM     24  C14 <0> d          -6.246   1.463  -5.894  0.00  0.00     0.002 A 
ATOM     25  C13 <0> d          -5.294   1.353  -4.900  0.00  0.00     0.031 A 
ENDBRANCH   5  20
TORSDOF 2
