REMARK  6 active torsions:
REMARK  status: ('A' for Active; 'I' for Inactive)
REMARK    1  A    between atoms: C4_4  and  C10_14 
REMARK    2  A    between atoms: C6_6  and  S1_9 
REMARK    3  A    between atoms: S1_9  and  N1_12 
REMARK       I    between atoms: C10_14  and  N2_16 
REMARK    4  A    between atoms: N2_16  and  C11_17 
REMARK    5  A    between atoms: C11_17  and  C12_18 
REMARK    6  A    between atoms: C12_18  and  N3_25 
ROOT
ATOM      1  C10 <0> d           1.769   4.149   0.696  0.00  0.00     0.251 C 
ATOM      2  O3  <0> d           0.699   4.695   0.508  0.00  0.00    -0.268 OA
ATOM      3  N2  <0> d           2.916   4.827   0.497  0.00  0.00    -0.354 N 
ATOM      4  H13 <0> d           3.884   4.333   0.667  0.00  0.00     0.162 HD
ENDROOT
BRANCH   1   5
ATOM      5  C4  <0> d           1.811   2.740   1.141  0.00  0.00     0.034 A 
ATOM      6  C3  <0> d           3.037   2.110   1.357  0.00  0.00     0.024 A 
ATOM      7  C2  <0> d           3.070   0.794   1.773  0.00  0.00    -0.054 A 
ATOM      8  C1  <0> d           4.393   0.112   2.007  0.00  0.00     0.049 C 
ATOM      9  C7  <0> d           1.890   0.100   1.975  0.00  0.00    -0.033 A 
ATOM     10  C6  <0> d           0.671   0.719   1.763  0.00  0.00     0.086 A 
ATOM     11  C8  <0> d           1.933  -1.336   2.430  0.00  0.00     0.050 C 
ATOM     12  C5  <0> d           0.624   2.034   1.347  0.00  0.00     0.042 A 
BRANCH  10  13
ATOM     13  S1  <0> d          -0.826  -0.174   2.023  0.00  0.00     0.259 S 
ATOM     14  O1  <0> d          -1.889   0.737   1.782  0.00  0.00    -0.201 OA
ATOM     15  O2  <0> d          -0.697  -1.398   1.314  0.00  0.00    -0.201 OA
BRANCH  13  16
ATOM     16  N1  <0> d          -0.890  -0.563   3.631  0.00  0.00    -0.320 N 
ATOM     17  C9  <0> d          -0.992   0.497   4.638  0.00  0.00     0.159 C 
ATOM     18  H9  <0> d          -0.692  -1.599   3.942  0.00  0.00     0.171 HD
ENDBRANCH  13  16
ENDBRANCH  10  13
ENDBRANCH   1   5
BRANCH   3  19
ATOM     19  C11 <0> d           2.874   6.224   0.056  0.00  0.00     0.162 C 
BRANCH  19  20
ATOM     20  C12 <0> d           4.301   6.745  -0.125  0.00  0.00     0.142 C 
ATOM     21  C18 <0> d           4.701   6.653  -1.612  0.00  0.00     0.041 C 
ATOM     22  C17 <0> d           3.610   7.018  -2.503  0.00  0.00     0.002 C 
ATOM     23  C16 <0> d           3.151   8.477  -2.305  0.00  0.00     0.000 C 
ATOM     24  C15 <0> d           2.251   8.536  -1.101  0.00  0.00     0.000 C 
ATOM     25  C14 <0> d           3.012   8.901   0.188  0.00  0.00     0.002 C 
ATOM     26  C13 <0> d           4.373   8.184   0.306  0.00  0.00     0.041 C 
BRANCH  20  27
ATOM     27  N3  <0> d           5.226   5.941   0.685  0.00  0.00    -0.068 N 
ATOM     28  C19 <0> d           6.618   6.356   0.463  0.00  0.00     0.270 C 
ATOM     29  C20 <0> d           4.877   6.012   2.110  0.00  0.00     0.270 C 
ATOM     30  H34 <0> d           5.131   4.892   0.366  0.00  0.00     0.280 HD
ENDBRANCH  20  27
ENDBRANCH  19  20
ENDBRANCH   3  19
TORSDOF 6
