REMARK  3 active torsions:
REMARK  status: ('A' for Active; 'I' for Inactive)
REMARK    1  A    between atoms: C8_11  and  S1_13 
REMARK    2  A    between atoms: S1_13  and  C9_14 
REMARK    3  A    between atoms: C9_14  and  C10_15 
ROOT
ATOM      1  S1  <0> d           5.234  -2.693  -0.062  0.00  0.00    -0.088 SA
ENDROOT
BRANCH   1   2
ATOM      2  C8  <0> d           3.654  -1.911  -0.043  0.00  0.00     0.169 A 
ATOM      3  N1  <0> d           2.538  -2.699  -0.036  0.00  0.00    -0.302 N 
ATOM      4  C7  <0> d           1.305  -2.141  -0.021  0.00  0.00     0.260 A 
ATOM      5  H1  <0> d           2.630  -3.664  -0.042  0.00  0.00     0.171 HD
ATOM      6  C5  <0> d           1.224  -0.674  -0.013  0.00  0.00     0.061 A 
ATOM      7  O1  <0> d           0.301  -2.829  -0.015  0.00  0.00    -0.267 OA
ATOM      8  C4  <0> d           2.432   0.061  -0.021  0.00  0.00     0.075 A 
ATOM      9  C6  <0> d           0.002  -0.004   0.002  0.00  0.00     0.019 A 
ATOM     10  C3  <0> d           2.379   1.458  -0.013  0.00  0.00     0.032 A 
ATOM     11  N2  <0> d           3.605  -0.602  -0.036  0.00  0.00    -0.224 NA
ATOM     12  C2  <0> d           1.168   2.089   0.002  0.00  0.00     0.002 A 
ATOM     13  C1  <0> d          -0.017   1.363   0.009  0.00  0.00     0.001 A 
ENDBRANCH   1   2
BRANCH   1  14
ATOM     14  C9  <0> d           6.407  -1.310  -0.066  0.00  0.00     0.129 C 
BRANCH  14  15
ATOM     15  C10 <0> d           7.837  -1.854  -0.082  0.00  0.00     0.191 A 
ATOM     16  N4  <0> d           8.074  -2.684   1.106  0.00  0.00    -0.366 N 
ATOM     17  C16 <0> d           8.365  -3.883   0.693  0.00  0.00     0.056 A 
ATOM     18  H14 <0> d           8.023  -2.391   2.029  0.00  0.00     0.162 HD
ATOM     19  C11 <0> d           8.337  -3.913  -0.795  0.00  0.00     0.056 A 
ATOM     20  C15 <0> d           8.694  -5.130   1.398  0.00  0.00     0.031 A 
ATOM     21  N3  <0> d           8.029  -2.731  -1.244  0.00  0.00    -0.366 N 
ATOM     22  C12 <0> d           8.641  -5.188  -1.461  0.00  0.00     0.031 A 
ATOM     23  H13 <0> d           7.942  -2.476  -2.176  0.00  0.00     0.162 HD
ATOM     24  C13 <0> d           8.931  -6.274  -0.717  0.00  0.00     0.002 A 
ATOM     25  C14 <0> d           8.958  -6.246   0.689  0.00  0.00     0.002 A 
ENDBRANCH  14  15
ENDBRANCH   1  14
TORSDOF 3
