REMARK  5 active torsions:
REMARK  status: ('A' for Active; 'I' for Inactive)
REMARK    1  A    between atoms: C2_2  and  C3_3 
REMARK    2  A    between atoms: C3_3  and  N1_5 
REMARK    3  A    between atoms: N2_8  and  S1_11 
REMARK    4  A    between atoms: S1_11  and  C9_14 
REMARK    5  A    between atoms: C12_17  and  N4_20 
ROOT
ATOM      1  S1  <0> d          -5.163   2.530  -2.823  0.00  0.00     0.262 S 
ATOM      2  O1  <0> d          -4.595   3.605  -3.558  0.00  0.00    -0.200 OA
ATOM      3  O2  <0> d          -6.252   1.761  -3.316  0.00  0.00    -0.200 OA
ENDROOT
BRANCH   1   4
ATOM      4  N2  <0> d          -3.933   1.465  -2.514  0.00  0.00    -0.303 N 
ATOM      5  C6  <0> d          -4.210   0.045  -2.251  0.00  0.00     0.163 C 
ATOM      6  C5  <0> d          -3.480  -0.363  -0.967  0.00  0.00     0.256 C 
ATOM      7  N1  <0> d          -2.053  -0.037  -1.093  0.00  0.00    -0.064 N 
ATOM      8  C8  <0> d          -1.880   1.417  -1.201  0.00  0.00     0.256 C 
ATOM      9  H25 <0> d          -1.681  -0.481  -1.919  0.00  0.00     0.280 HD
ATOM     10  C7  <0> d          -2.532   1.913  -2.496  0.00  0.00     0.163 C 
BRANCH   7  11
ATOM     11  C3  <0> d          -1.335  -0.527   0.091  0.00  0.00     0.184 C 
ATOM     12  C4  <0> d          -1.990   0.034   1.354  0.00  0.00     0.040 C 
BRANCH  11  13
ATOM     13  C2  <0> d          -1.390  -2.056   0.124  0.00  0.00     0.028 C 
ATOM     14  C1  <0> d          -0.620  -2.620  -1.071  0.00  0.00     0.007 C 
ENDBRANCH  11  13
ENDBRANCH   7  11
ENDBRANCH   1   4
BRANCH   1  15
ATOM     15  C9  <0> d          -5.677   3.195  -1.274  0.00  0.00     0.097 A 
ATOM     16  C13 <0> d          -5.088   4.340  -0.777  0.00  0.00     0.144 A 
ATOM     17  N3  <0> d          -5.470   4.850   0.379  0.00  0.00    -0.242 NA
ATOM     18  C12 <0> d          -6.417   4.283   1.109  0.00  0.00     0.122 A 
ATOM     19  C11 <0> d          -7.050   3.123   0.671  0.00  0.00     0.051 A 
ATOM     20  C10 <0> d          -6.676   2.569  -0.539  0.00  0.00     0.030 A 
BRANCH  18  21
ATOM     21  N4  <0> d          -6.784   4.851   2.324  0.00  0.00    -0.379 N 
ATOM     22  C14 <0> d          -7.832   4.229   3.136  0.00  0.00     0.147 C 
ATOM     23  H21 <0> d          -6.346   5.660   2.633  0.00  0.00     0.160 HD
ENDBRANCH  18  21
ENDBRANCH   1  15
TORSDOF 5
