REMARK  3 active torsions:
REMARK  status: ('A' for Active; 'I' for Inactive)
REMARK    1  A    between atoms: C2_2  and  C5_5 
REMARK    2  A    between atoms: C8_8  and  O2_18 
REMARK    3  A    between atoms: C9_9  and  N1_11 
ROOT
ATOM      1  C5  <0> d           1.098  -0.495  -0.765  0.00  0.00    -0.005 C 
ATOM      2  C6  <0> d           0.074   0.007  -1.786  0.00  0.00     0.008 C 
ATOM      3  C7  <0> d           0.459  -0.490  -3.180  0.00  0.00     0.034 C 
ATOM      4  C8  <0> d           1.846   0.041  -3.547  0.00  0.00     0.149 C 
ATOM      5  C9  <0> d           2.870  -0.461  -2.526  0.00  0.00     0.217 C 
ATOM      6  C10 <0> d           2.485   0.036  -1.131  0.00  0.00     0.041 C 
ENDROOT
BRANCH   5   7
ATOM      7  N1  <0> d           2.890  -1.930  -2.534  0.00  0.00    -0.062 N 
ATOM      8  C15 <0> d           3.702  -2.425  -1.410  0.00  0.00     0.261 C 
ATOM      9  C14 <0> d           3.362  -3.791  -1.010  0.00  0.00     0.195 C 
ATOM     10  O1  <0> d           3.565  -4.714  -2.108  0.00  0.00    -0.389 OA
ATOM     11  C13 <0> d           2.545  -4.667  -3.067  0.00  0.00     0.169 C 
ATOM     12  C12 <0> d           2.847  -3.716  -4.245  0.00  0.00     0.054 C 
ATOM     13  C11 <0> d           3.497  -2.405  -3.753  0.00  0.00     0.237 C 
ATOM     14  H30 <0> d           1.948  -2.286  -2.459  0.00  0.00     0.280 HD
ENDBRANCH   5   7
BRANCH   4  15
ATOM     15  O2  <0> d           2.205  -0.424  -4.850  0.00  0.00    -0.393 OA
ATOM     16  H29 <0> d           1.598  -0.143  -5.548  0.00  0.00     0.210 HD
ENDBRANCH   4  15
BRANCH   1  17
ATOM     17  C2  <0> d           0.714   0.002   0.630  0.00  0.00    -0.048 C 
ATOM     18  C1  <0> d           0.693   1.532   0.638  0.00  0.00     0.015 C 
ATOM     19  C3  <0> d           1.737  -0.500   1.650  0.00  0.00     0.015 C 
ATOM     20  C4  <0> d          -0.674  -0.529   0.996  0.00  0.00     0.015 C 
ENDBRANCH   1  17
TORSDOF 3
