REMARK  5 active torsions:
REMARK  status: ('A' for Active; 'I' for Inactive)
REMARK    1  A    between atoms: C9_9  and  C11_14 
REMARK    2  A    between atoms: C11_14  and  C12_15 
REMARK    3  A    between atoms: C11_14  and  N6_28 
REMARK    4  A    between atoms: N5_19  and  C13_20 
REMARK    5  A    between atoms: C13_20  and  C14_21 
ROOT
ATOM      1  C11 <0> d          -1.831   7.596  -0.158  0.00  0.00     0.334 C 
ENDROOT
BRANCH   1   2
ATOM      2  C9  <0> d          -1.977   6.099  -0.056  0.00  0.00     0.051 A 
ATOM      3  C8  <0> d          -2.272   5.372  -1.161  0.00  0.00     0.029 A 
ATOM      4  C6  <0> d          -2.406   3.920  -1.028  0.00  0.00    -0.008 A 
ATOM      5  C5  <0> d          -2.225   3.331   0.237  0.00  0.00     0.051 A 
ATOM      6  C7  <0> d          -2.709   3.117  -2.133  0.00  0.00     0.020 A 
ATOM      7  C4  <0> d          -2.355   1.953   0.375  0.00  0.00    -0.034 A 
ATOM      8  N1  <0> d          -1.925   4.127   1.323  0.00  0.00    -0.322 N 
ATOM      9  C3  <0> d          -2.648   1.181  -0.728  0.00  0.00     0.015 A 
ATOM     10  C24 <0> d          -2.170   1.306   1.723  0.00  0.00     0.050 C 
ATOM     11  C2  <0> d          -2.827   1.765  -1.975  0.00  0.00    -0.061 A 
ATOM     12  C1  <0> d          -3.153   0.900  -3.165  0.00  0.00     0.048 C 
ATOM     13  C10 <0> d          -1.805   5.460   1.191  0.00  0.00     0.254 A 
ATOM     14  H1  <0> d          -1.782   3.674   2.314  0.00  0.00     0.169 HD
ATOM     15  O1  <0> d          -1.540   6.133   2.172  0.00  0.00    -0.268 OA
ENDBRANCH   1   2
BRANCH   1  16
ATOM     16  C12 <0> d          -2.165   8.038  -1.560  0.00  0.00     0.186 A 
ATOM     17  N5  <0> d          -1.302   8.494  -2.486  0.00  0.00    -0.228 N 
ATOM     18  N4  <0> d          -1.987   8.762  -3.545  0.00  0.00    -0.044 NA
ATOM     19  N3  <0> d          -3.226   8.494  -3.317  0.00  0.00    -0.023 NA
ATOM     20  N2  <0> d          -3.353   8.048  -2.115  0.00  0.00    -0.111 NA
BRANCH  17  21
ATOM     21  C13 <0> d           0.145   8.655  -2.322  0.00  0.00     0.193 C 
BRANCH  21  22
ATOM     22  C14 <0> d           0.848   7.419  -2.821  0.00  0.00    -0.038 A 
ATOM     23  C19 <0> d           1.171   7.300  -4.160  0.00  0.00     0.012 A 
ATOM     24  C18 <0> d           1.815   6.167  -4.618  0.00  0.00     0.043 A 
ATOM     25  C17 <0> d           2.139   5.150  -3.735  0.00  0.00     0.116 A 
ATOM     26  C16 <0> d           1.815   5.270  -2.394  0.00  0.00     0.043 A 
ATOM     27  F1  <0> d           2.768   4.042  -4.182  0.00  0.00    -0.206 F 
ATOM     28  C15 <0> d           1.175   6.407  -1.937  0.00  0.00     0.012 A 
ENDBRANCH  21  22
ENDBRANCH  17  21
ENDBRANCH   1  16
BRANCH   1  29
ATOM     29  N6  <0> d          -2.747   8.243   0.791  0.00  0.00     0.109 N 
ATOM     30  C23 <0> d          -2.622   9.706   0.728  0.00  0.00     0.300 C 
ATOM     31  C22 <0> d          -3.548  10.337   1.772  0.00  0.00     0.198 C 
ATOM     32  O2  <0> d          -4.889   9.897   1.541  0.00  0.00    -0.388 OA
ATOM     33  C21 <0> d          -5.046   8.477   1.595  0.00  0.00     0.198 C 
ATOM     34  C20 <0> d          -4.136   7.827   0.549  0.00  0.00     0.300 C 
ENDBRANCH   1  29
TORSDOF 5
