REMARK  6 active torsions:
REMARK  status: ('A' for Active; 'I' for Inactive)
REMARK    1  A    between atoms: N1_2  and  C2_3 
REMARK       I    between atoms: N1_2  and  C6_10 
REMARK    2  A    between atoms: C6_10  and  C7_12 
REMARK    3  A    between atoms: C7_12  and  S2_13 
REMARK    4  A    between atoms: S2_13  and  C8_14 
REMARK    5  A    between atoms: C9_16  and  C11_20 
REMARK    6  A    between atoms: N3_18  and  N4_19 
ROOT
ATOM      1  C8  <0> d          -3.352   0.661  -5.577  0.00  0.00     0.184 A 
ATOM      2  N2  <0> d          -3.458   1.963  -5.688  0.00  0.00    -0.221 NA
ATOM      3  C9  <0> d          -4.146   2.258  -6.819  0.00  0.00     0.087 A 
ATOM      4  C10 <0> d          -4.474   1.090  -7.425  0.00  0.00     0.145 A 
ATOM      5  N3  <0> d          -3.968   0.080  -6.643  0.00  0.00    -0.266 N 
ENDROOT
BRANCH   1   6
ATOM      6  S2  <0> d          -2.540  -0.195  -4.268  0.00  0.00    -0.081 SA
BRANCH   6   7
ATOM      7  C7  <0> d          -1.984   1.210  -3.271  0.00  0.00     0.185 C 
BRANCH   7   8
ATOM      8  C6  <0> d          -1.243   0.704  -2.061  0.00  0.00     0.229 C 
ATOM      9  N1  <0> d          -0.734   1.577  -1.169  0.00  0.00    -0.350 N 
ATOM     10  C1  <0> d          -0.902   3.018  -1.376  0.00  0.00     0.153 C 
ATOM     11  O3  <0> d          -1.103  -0.488  -1.889  0.00  0.00    -0.273 OA
BRANCH   9  12
ATOM     12  C2  <0> d          -0.013   1.086   0.008  0.00  0.00     0.101 C 
ATOM     13  C5  <0> d          -0.711   1.595   1.302  0.00  0.00     0.165 C 
ATOM     14  S1  <0> d           0.655   1.393   2.522  0.00  0.00     0.146 S 
ATOM     15  C4  <0> d           2.091   1.384   1.374  0.00  0.00     0.142 C 
ATOM     16  O1  <0> d           0.543   0.116   3.134  0.00  0.00    -0.228 OA
ATOM     17  O2  <0> d           0.722   2.555   3.338  0.00  0.00    -0.228 OA
ATOM     18  C3  <0> d           1.427   1.625  -0.003  0.00  0.00     0.041 C 
ENDBRANCH   9  12
ENDBRANCH   7   8
ENDBRANCH   6   7
ENDBRANCH   1   6
BRANCH   5  19
ATOM     19  N4  <0> d          -4.066  -1.260  -6.889  0.00  0.00    -0.241 NA
ATOM     20  H14 <0> d          -4.901  -1.644  -6.471  0.00  0.00     0.143 HD
ATOM     21  H15 <0> d          -4.038  -1.449  -7.880  0.00  0.00     0.143 HD
ENDBRANCH   5  19
BRANCH   3  22
ATOM     22  C11 <0> d          -4.479   3.618  -7.309  0.00  0.00    -0.006 A 
ATOM     23  C16 <0> d          -4.078   4.740  -6.585  0.00  0.00     0.014 A 
ATOM     24  C15 <0> d          -4.390   6.003  -7.045  0.00  0.00     0.001 A 
ATOM     25  C14 <0> d          -5.101   6.157  -8.222  0.00  0.00     0.000 A 
ATOM     26  C13 <0> d          -5.502   5.047  -8.944  0.00  0.00     0.001 A 
ATOM     27  C12 <0> d          -5.190   3.780  -8.497  0.00  0.00     0.014 A 
ENDBRANCH   3  22
TORSDOF 6
