REMARK  4 active torsions:
REMARK  status: ('A' for Active; 'I' for Inactive)
REMARK    1  A    between atoms: C5_6  and  N3_8 
REMARK    2  A    between atoms: N3_8  and  N4_9 
REMARK       I    between atoms: N4_9  and  C6_10 
REMARK    3  A    between atoms: C6_10  and  C7_12 
REMARK    4  A    between atoms: C8_13  and  C9_14 
ROOT
ATOM      1  N4  <0> d           1.496  -2.239   3.757  0.00  0.00    -0.252 N 
ATOM      2  C6  <0> d           1.308  -2.857   4.940  0.00  0.00     0.260 C 
ATOM      3  O1  <0> d           1.322  -4.073   5.000  0.00  0.00    -0.267 OA
ATOM      4  H6  <0> d           1.485  -1.270   3.709  0.00  0.00     0.191 HD
ENDROOT
BRANCH   2   5
ATOM      5  C7  <0> d           1.088  -2.067   6.151  0.00  0.00     0.076 C 
ATOM      6  C8  <0> d           0.900  -2.686   7.336  0.00  0.00     0.017 C 
BRANCH   6   7
ATOM      7  C9  <0> d           0.679  -1.893   8.552  0.00  0.00    -0.035 A 
ATOM      8  C14 <0> d           0.484  -2.532   9.781  0.00  0.00     0.021 A 
ATOM      9  C13 <0> d           0.281  -1.785  10.924  0.00  0.00    -0.031 A 
ATOM     10  C12 <0> d           0.265  -0.397  10.844  0.00  0.00     0.036 A 
ATOM     11  C15 <0> d           0.070  -2.501  12.232  0.00  0.00     0.042 C 
ATOM     12  C11 <0> d           0.453   0.238   9.617  0.00  0.00     0.031 A 
ATOM     13  N5  <0> d           0.063   0.380  11.983  0.00  0.00    -0.385 N 
ATOM     14  C10 <0> d           0.657  -0.494   8.484  0.00  0.00     0.013 A 
ATOM     15  C17 <0> d          -0.432  -0.264  13.207  0.00  0.00     0.123 C 
ATOM     16  C18 <0> d           0.342   1.819  11.961  0.00  0.00     0.149 C 
ATOM     17  C16 <0> d           0.357  -1.564  13.406  0.00  0.00     0.024 C 
ENDBRANCH   6   7
ENDBRANCH   2   5
BRANCH   1  18
ATOM     18  N3  <0> d           1.707  -2.996   2.597  0.00  0.00    -0.126 N 
ATOM     19  H5  <0> d           1.718  -3.965   2.645  0.00  0.00     0.206 HD
BRANCH  18  20
ATOM     20  C5  <0> d           1.900  -2.361   1.382  0.00  0.00     0.741 A 
ATOM     21  N1  <0> d           2.098  -3.092   0.295  0.00  0.00    -0.067 NA
ATOM     22  C4  <0> d           2.286  -2.517  -0.881  0.00  0.00     0.051 A 
ATOM     23  C3  <0> d           2.273  -1.134  -0.967  0.00  0.00     0.054 A 
ATOM     24  C19 <0> d           2.510  -3.356  -2.113  0.00  0.00     0.071 C 
ATOM     25  C2  <0> d           2.063  -0.400   0.190  0.00  0.00     0.051 A 
ATOM     26  C1  <0> d           2.042   1.106   0.144  0.00  0.00     0.071 C 
ATOM     27  N2  <0> d           1.887  -1.037   1.335  0.00  0.00    -0.067 NA
ENDBRANCH  18  20
ENDBRANCH   1  18
TORSDOF 4
