REMARK  5 active torsions:
REMARK  status: ('A' for Active; 'I' for Inactive)
REMARK    1  A    between atoms: C7_8  and  N2_20 
REMARK    2  A    between atoms: C8_9  and  C9_10 
REMARK       I    between atoms: C9_10  and  N1_12 
REMARK    3  A    between atoms: N1_12  and  C10_13 
REMARK       I    between atoms: N2_20  and  C14_21 
REMARK    4  A    between atoms: C14_21  and  C15_23 
REMARK    5  A    between atoms: C16_24  and  C17_25 
ROOT
ATOM      1  C1  <0> d         -10.733  -5.675   0.160  0.00  0.00     0.010 C 
ATOM      2  C2  <0> d          -9.869  -4.445   0.446  0.00  0.00    -0.014 C 
ATOM      3  C3  <0> d         -10.375  -3.258  -0.380  0.00  0.00     0.009 C 
ATOM      4  C4  <0> d          -9.683  -1.973   0.078  0.00  0.00     0.041 C 
ATOM      5  C5  <0> d          -8.176  -2.196   0.064  0.00  0.00    -0.026 A 
ATOM      6  C6  <0> d          -7.657  -3.443   0.051  0.00  0.00    -0.008 A 
ATOM      7  S1  <0> d          -5.903  -3.204   0.030  0.00  0.00    -0.075 SA
ATOM      8  C7  <0> d          -5.857  -1.472   0.047  0.00  0.00     0.093 A 
ATOM      9  C8  <0> d          -7.199  -1.120   0.062  0.00  0.00     0.073 A 
ATOM     10  C21 <0> d          -8.413  -4.736   0.052  0.00  0.00     0.051 C 
ENDROOT
BRANCH   8  11
ATOM     11  N2  <0> d          -4.749  -0.641   0.042  0.00  0.00    -0.317 N 
ATOM     12  C14 <0> d          -3.510  -1.170   0.028  0.00  0.00     0.246 C 
ATOM     13  O4  <0> d          -3.364  -2.379   0.019  0.00  0.00    -0.268 OA
ATOM     14  H17 <0> d          -4.865   0.322   0.049  0.00  0.00     0.169 HD
BRANCH  12  15
ATOM     15  C15 <0> d          -2.378  -0.321   0.022  0.00  0.00     0.077 C 
ATOM     16  C16 <0> d          -1.130  -0.854   0.008  0.00  0.00     0.042 C 
BRANCH  16  17
ATOM     17  C17 <0> d           0.002  -0.004   0.002  0.00  0.00     0.075 A 
ATOM     18  O5  <0> d          -0.016   1.345   0.009  0.00  0.00    -0.323 OA
ATOM     19  C20 <0> d           1.241   1.808  -0.000  0.00  0.00     0.142 A 
ATOM     20  C19 <0> d           2.096   0.762  -0.014  0.00  0.00     0.027 A 
ATOM     21  C18 <0> d           1.321  -0.408  -0.013  0.00  0.00     0.039 A 
ENDBRANCH  16  17
ENDBRANCH  12  15
ENDBRANCH   8  11
BRANCH   9  22
ATOM     22  C9  <0> d          -7.617   0.285   0.075  0.00  0.00     0.255 C 
ATOM     23  O1  <0> d          -7.800   0.875  -0.974  0.00  0.00    -0.268 OA
ATOM     24  N1  <0> d          -7.798   0.923   1.248  0.00  0.00    -0.351 N 
ATOM     25  H10 <0> d          -7.652   0.453   2.084  0.00  0.00     0.163 HD
BRANCH  24  26
ATOM     26  C10 <0> d          -8.215   2.328   1.261  0.00  0.00     0.099 C 
ATOM     27  C13 <0> d          -8.945   2.646   2.597  0.00  0.00     0.165 C 
ATOM     28  S2  <0> d          -8.802   4.483   2.630  0.00  0.00     0.146 S 
ATOM     29  C12 <0> d          -7.371   4.697   1.495  0.00  0.00     0.142 C 
ATOM     30  O2  <0> d          -9.958   5.048   2.027  0.00  0.00    -0.228 OA
ATOM     31  O3  <0> d          -8.422   4.894   3.936  0.00  0.00    -0.228 OA
ATOM     32  C11 <0> d          -6.979   3.237   1.162  0.00  0.00     0.041 C 
ENDBRANCH  24  26
ENDBRANCH   9  22
TORSDOF 5
