REMARK  4 active torsions:
REMARK  status: ('A' for Active; 'I' for Inactive)
REMARK    1  A    between atoms: N1_5  and  C9_11 
REMARK    2  A    between atoms: C9_11  and  C10_12 
REMARK    3  A    between atoms: C10_12  and  C11_13 
REMARK    4  A    between atoms: C11_13  and  C12_14 
ROOT
ATOM      1  C1  <0> d          -0.019   1.526   0.010  0.00  0.00     0.040 C 
ATOM      2  C2  <0> d           0.002  -0.004   0.002  0.00  0.00     0.183 C 
ATOM      3  C3  <0> d          -1.433  -0.534   0.013  0.00  0.00     0.060 C 
ATOM      4  C4  <0> d          -1.435  -2.009  -0.392  0.00  0.00     0.236 C 
ATOM      5  N1  <0> d          -0.961  -2.826   0.733  0.00  0.00    -0.071 N 
ATOM      6  C5  <0> d           0.334  -3.430   0.390  0.00  0.00     0.240 C 
ATOM      7  C6  <0> d           1.225  -2.381  -0.279  0.00  0.00     0.033 C 
ATOM      8  C7  <0> d           1.771  -1.424   0.784  0.00  0.00     0.238 C 
ATOM      9  N2  <0> d           0.713  -0.491   1.192  0.00  0.00    -0.071 N 
ATOM     10  C8  <0> d           2.389  -3.076  -0.986  0.00  0.00     0.013 C 
ATOM     11  H14 <0> d           1.124   0.290   1.681  0.00  0.00     0.277 HD
ATOM     12  H31 <0> d          -0.854  -2.243   1.550  0.00  0.00     0.279 HD
ATOM     13  H32 <0> d           0.063  -0.965   1.801  0.00  0.00     0.277 HD
ENDROOT
BRANCH   5  14
ATOM     14  C9  <0> d          -1.937  -3.887   1.013  0.00  0.00     0.235 C 
BRANCH  14  15
ATOM     15  C10 <0> d          -3.248  -3.260   1.492  0.00  0.00     0.028 C 
BRANCH  15  16
ATOM     16  C11 <0> d          -4.265  -4.365   1.784  0.00  0.00     0.005 C 
BRANCH  16  17
ATOM     17  C12 <0> d          -5.576  -3.739   2.263  0.00  0.00    -0.023 C 
ATOM     18  C13 <0> d          -6.190  -2.913   1.131  0.00  0.00     0.009 C 
ATOM     19  C14 <0> d          -6.550  -4.845   2.673  0.00  0.00     0.009 C 
ENDBRANCH  16  17
ENDBRANCH  15  16
ENDBRANCH  14  15
ENDBRANCH   5  14
TORSDOF 4
