REMARK  3 active torsions:
REMARK  status: ('A' for Active; 'I' for Inactive)
REMARK    1  A    between atoms: C5_5  and  C8_8 
REMARK       I    between atoms: C8_8  and  N1_10 
REMARK    2  A    between atoms: N1_10  and  C9_11 
REMARK    3  A    between atoms: C9_11  and  C11_13 
REMARK       I    between atoms: C11_13  and  N2_15 
ROOT
ATOM      1  C11 <0> d          -0.541  -6.799   2.441  0.00  0.00     0.242 C 
ATOM      2  O2  <0> d          -1.026  -5.955   3.165  0.00  0.00    -0.271 OA
ATOM      3  N2  <0> d          -0.571  -8.097   2.805  0.00  0.00    -0.350 N 
ATOM      4  C12 <0> d           0.111  -9.117   1.997  0.00  0.00     0.129 C 
ATOM      5  C13 <0> d           1.057  -9.912   2.903  0.00  0.00     0.068 C 
ATOM      6  C14 <0> d           0.272 -10.469   4.091  0.00  0.00     0.204 C 
ATOM      7  C15 <0> d          -0.326  -9.319   4.902  0.00  0.00     0.068 C 
ATOM      8  C16 <0> d          -1.281  -8.518   4.020  0.00  0.00     0.129 C 
ATOM      9  C17 <0> d           1.185 -11.288   4.964  0.00  0.00     0.072 A 
ATOM     10  C18 <0> d           0.849 -12.493   5.478  0.00  0.00     0.037 A 
ATOM     11  N3  <0> d           1.881 -12.938   6.195  0.00  0.00    -0.354 N 
ATOM     12  C19 <0> d           2.846 -12.056   6.149  0.00  0.00     0.181 A 
ATOM     13  N4  <0> d           2.446 -11.010   5.389  0.00  0.00    -0.352 N 
ATOM     14  H2  <0> d           2.961 -10.214   5.185  0.00  0.00     0.166 HD
ATOM     15  C20 <0> d          -0.488 -13.147   5.234  0.00  0.00     0.089 C 
ATOM     16  C21 <0> d          -1.448 -12.074   4.702  0.00  0.00     0.277 C 
ATOM     17  N5  <0> d          -0.809 -11.340   3.601  0.00  0.00     0.099 N 
ATOM     18  H27 <0> d          -1.490 -10.811   3.076  0.00  0.00     0.317 HD
ATOM     19  H28 <0> d           1.912 -13.780   6.675  0.00  0.00     0.166 HD
ENDROOT
BRANCH   1  20
ATOM     20  C9  <0> d           0.093  -6.397   1.134  0.00  0.00     0.173 C 
ATOM     21  C10 <0> d           1.595  -6.187   1.340  0.00  0.00     0.042 C 
BRANCH  20  22
ATOM     22  N1  <0> d          -0.513  -5.152   0.659  0.00  0.00    -0.344 N 
ATOM     23  C8  <0> d          -0.506  -4.857  -0.656  0.00  0.00     0.252 C 
ATOM     24  O1  <0> d           0.005  -5.625  -1.448  0.00  0.00    -0.268 OA
ATOM     25  H10 <0> d          -0.921  -4.539   1.292  0.00  0.00     0.163 HD
BRANCH  23  26
ATOM     26  C5  <0> d          -1.118  -3.599  -1.135  0.00  0.00     0.032 A 
ATOM     27  C4  <0> d          -1.112  -3.291  -2.496  0.00  0.00     0.017 A 
ATOM     28  C3  <0> d          -1.685  -2.116  -2.937  0.00  0.00     0.007 A 
ATOM     29  C2  <0> d          -2.266  -1.244  -2.033  0.00  0.00    -0.062 A 
ATOM     30  C1  <0> d          -2.891   0.037  -2.521  0.00  0.00     0.048 C 
ATOM     31  C7  <0> d          -2.271  -1.542  -0.681  0.00  0.00     0.007 A 
ATOM     32  C6  <0> d          -1.706  -2.716  -0.228  0.00  0.00     0.017 A 
ENDBRANCH  23  26
ENDBRANCH  20  22
ENDBRANCH   1  20
TORSDOF 3
