REMARK  3 active torsions:
REMARK  status: ('A' for Active; 'I' for Inactive)
REMARK    1  A    between atoms: C3_3  and  C11_17 
REMARK    2  A    between atoms: N1_4  and  C5_6 
REMARK    3  A    between atoms: C8_9  and  C10_12 
ROOT
ATOM      1  C1  <0> d           0.039   1.419   0.029  0.00  0.00     0.020 A 
ATOM      2  C2  <0> d           1.400   1.759  -0.046  0.00  0.00     0.035 A 
ATOM      3  C3  <0> d           2.110   0.597  -0.061  0.00  0.00     0.090 A 
ATOM      4  N1  <0> d           1.215  -0.444   0.004  0.00  0.00    -0.302 N 
ATOM      5  C4  <0> d          -0.048   0.072   0.058  0.00  0.00     0.099 A 
ENDROOT
BRANCH   4   6
ATOM      6  C5  <0> d           1.543  -1.802   0.011  0.00  0.00     0.156 A 
ATOM      7  N2  <0> d           2.427  -2.258   0.883  0.00  0.00    -0.240 NA
ATOM      8  C9  <0> d           2.761  -3.534   0.928  0.00  0.00     0.135 A 
ATOM      9  C8  <0> d           2.203  -4.444   0.052  0.00  0.00     0.067 A 
ATOM     10  C7  <0> d           1.274  -4.006  -0.882  0.00  0.00     0.045 A 
ATOM     11  C6  <0> d           0.940  -2.662  -0.901  0.00  0.00     0.081 A 
ATOM     12 Cl1  <0> d          -0.216  -2.059  -2.047  0.00  0.00    -0.080 Cl
BRANCH   9  13
ATOM     13  C10 <0> d           2.597  -5.897   0.110  0.00  0.00     0.418 C 
ATOM     14  F1  <0> d           3.693  -6.117  -0.732  0.00  0.00    -0.166 F 
ATOM     15  F2  <0> d           2.943  -6.234   1.423  0.00  0.00    -0.166 F 
ATOM     16  F3  <0> d           1.522  -6.689  -0.307  0.00  0.00    -0.166 F 
ENDBRANCH   9  13
ENDBRANCH   4   6
BRANCH   3  17
ATOM     17  C11 <0> d           3.582   0.477  -0.134  0.00  0.00     0.197 A 
ATOM     18  N5  <0> d           4.428   1.476  -0.270  0.00  0.00    -0.151 NA
ATOM     19  N4  <0> d           5.715   0.915  -0.291  0.00  0.00    -0.270 N 
ATOM     20  C12 <0> d           5.555  -0.415  -0.172  0.00  0.00     0.228 A 
ATOM     21  H1  <0> d           6.555   1.392  -0.378  0.00  0.00     0.190 HD
ATOM     22  N3  <0> d           4.277  -0.669  -0.078  0.00  0.00    -0.220 NA
ENDBRANCH   3  17
TORSDOF 3
