REMARK  4 active torsions:
REMARK  status: ('A' for Active; 'I' for Inactive)
REMARK       I    between atoms: N1_2  and  C3_4 
REMARK    1  A    between atoms: C3_4  and  C4_6 
REMARK    2  A    between atoms: C4_6  and  N2_7 
REMARK    3  A    between atoms: N2_7  and  C6_9 
REMARK    4  A    between atoms: C7_10  and  C10_15 
ROOT
ATOM      1  C6  <0> d          -1.162  -2.933  -3.233  0.00  0.00     0.157 A 
ATOM      2  C7  <0> d          -1.829  -4.158  -3.058  0.00  0.00     0.139 A 
ATOM      3  N3  <0> d          -2.983  -4.374  -3.683  0.00  0.00    -0.253 NA
ATOM      4  C8  <0> d          -3.496  -3.442  -4.461  0.00  0.00     0.137 A 
ATOM      5  C9  <0> d          -2.838  -2.234  -4.634  0.00  0.00     0.138 A 
ATOM      6  N4  <0> d          -1.693  -2.002  -4.016  0.00  0.00    -0.240 NA
ENDROOT
BRANCH   1   7
ATOM      7  N2  <0> d           0.040  -2.697  -2.589  0.00  0.00    -0.359 N 
ATOM      8  C5  <0> d           1.303  -3.050  -3.242  0.00  0.00     0.152 C 
BRANCH   7   9
ATOM      9  C4  <0> d           0.049  -2.093  -1.254  0.00  0.00     0.227 C 
BRANCH   9  10
ATOM     10  C3  <0> d           0.111  -0.593  -1.382  0.00  0.00     0.236 C 
ATOM     11  N1  <0> d           0.130   0.177  -0.276  0.00  0.00    -0.359 N 
ATOM     12  C1  <0> d           0.190   1.636  -0.400  0.00  0.00     0.152 C 
ATOM     13  C2  <0> d           0.089  -0.444   1.050  0.00  0.00     0.152 C 
ATOM     14  O1  <0> d           0.145  -0.078  -2.480  0.00  0.00    -0.272 OA
ENDBRANCH   9  10
ENDBRANCH   7   9
ENDBRANCH   1   7
BRANCH   2  15
ATOM     15  C10 <0> d          -1.251  -5.198  -2.186  0.00  0.00     0.127 C 
ATOM     16  S1  <0> d           0.150  -4.860  -1.263  0.00  0.00    -0.058 SA
ATOM     17  N5  <0> d          -1.827  -6.415  -2.117  0.00  0.00    -0.388 N 
ATOM     18  H14 <0> d          -2.620  -6.606  -2.640  0.00  0.00     0.157 HD
ATOM     19  H15 <0> d          -1.447  -7.099  -1.544  0.00  0.00     0.157 HD
ENDBRANCH   2  15
TORSDOF 4
