REMARK  4 active torsions:
REMARK  status: ('A' for Active; 'I' for Inactive)
REMARK    1  A    between atoms: N1_6  and  S1_8 
REMARK    2  A    between atoms: S1_8  and  C7_11 
REMARK    3  A    between atoms: C9_13  and  N3_22 
REMARK    4  A    between atoms: C12_16  and  N2_17 
ROOT
ATOM      1  C7  <0> d          -2.826   4.535   2.407  0.00  0.00     0.103 A 
ATOM      2  C8  <0> d          -3.930   4.929   3.138  0.00  0.00     0.056 A 
ATOM      3  C9  <0> d          -5.179   4.397   2.849  0.00  0.00     0.027 A 
ATOM      4  C10 <0> d          -5.321   3.474   1.822  0.00  0.00     0.031 A 
ATOM      5  C11 <0> d          -4.218   3.085   1.087  0.00  0.00     0.027 A 
ATOM      6  C12 <0> d          -2.968   3.616   1.376  0.00  0.00     0.034 A 
ENDROOT
BRANCH   1   7
ATOM      7  S1  <0> d          -1.239   5.205   2.778  0.00  0.00     0.262 S 
ATOM      8  O1  <0> d          -1.419   6.093   3.872  0.00  0.00    -0.200 OA
ATOM      9  O2  <0> d          -0.337   4.108   2.828  0.00  0.00    -0.200 OA
BRANCH   7  10
ATOM     10  N1  <0> d          -0.784   6.133   1.484  0.00  0.00    -0.306 N 
ATOM     11  C5  <0> d           0.091   5.584   0.439  0.00  0.00     0.135 C 
ATOM     12  C4  <0> d           1.291   6.511   0.257  0.00  0.00     0.021 C 
ATOM     13  C3  <0> d           0.797   7.933  -0.019  0.00  0.00     0.007 C 
ATOM     14  C2  <0> d          -0.023   8.430   1.173  0.00  0.00     0.000 C 
ATOM     15  C1  <0> d          -0.488   9.864   0.909  0.00  0.00     0.011 C 
ATOM     16  C6  <0> d          -1.243   7.523   1.362  0.00  0.00     0.139 C 
ENDBRANCH   7  10
ENDBRANCH   1   7
BRANCH   6  17
ATOM     17  N2  <0> d          -1.850   3.221   0.632  0.00  0.00    -0.282 NA
ATOM     18  C16 <0> d          -2.082   3.412  -0.812  0.00  0.00     0.096 C 
ATOM     19  C15 <0> d          -1.870   2.044  -1.494  0.00  0.00     0.016 C 
ATOM     20  C14 <0> d          -0.977   1.282  -0.479  0.00  0.00     0.016 C 
ATOM     21  C13 <0> d          -1.528   1.798   0.873  0.00  0.00     0.096 C 
ENDBRANCH   6  17
BRANCH   3  22
ATOM     22  N3  <0> d          -6.297   4.792   3.595  0.00  0.00    -0.399 N 
ATOM     23  H24 <0> d          -7.287   4.370   3.366  0.00  0.00     0.156 HD
ATOM     24  H25 <0> d          -6.185   5.523   4.409  0.00  0.00     0.156 HD
ENDBRANCH   3  22
TORSDOF 4
