REMARK  3 active torsions:
REMARK  status: ('A' for Active; 'I' for Inactive)
REMARK    1  A    between atoms: C3_3  and  C6_8 
REMARK    2  A    between atoms: C6_8  and  N2_9 
REMARK       I    between atoms: N3_12  and  C11_15 
REMARK       I    between atoms: C11_15  and  N4_17 
REMARK    3  A    between atoms: N4_17  and  C12_18 
ROOT
ATOM      1  N2  <0> d           1.120  -0.052  -3.240  0.00  0.00     0.096 N 
ATOM      2  C7  <0> d           1.586   1.180  -2.589  0.00  0.00     0.292 C 
ATOM      3  C8  <0> d           3.103   1.304  -2.766  0.00  0.00     0.158 C 
ATOM      4  N3  <0> d           3.416   1.202  -4.200  0.00  0.00    -0.331 N 
ATOM      5  C9  <0> d           2.867   0.064  -4.952  0.00  0.00     0.158 C 
ATOM      6  C10 <0> d           1.359  -0.012  -4.689  0.00  0.00     0.292 C 
ATOM      7  C11 <0> d           4.186   2.127  -4.807  0.00  0.00     0.323 C 
ATOM      8  O2  <0> d           4.555   3.109  -4.193  0.00  0.00    -0.247 OA
ATOM      9  N4  <0> d           4.547   1.962  -6.095  0.00  0.00    -0.307 N 
ATOM     10  H17 <0> d           4.200   1.212  -6.604  0.00  0.00     0.170 HD
ENDROOT
BRANCH   9  11
ATOM     11  C12 <0> d           5.421   2.870  -6.697  0.00  0.00     0.066 A 
ATOM     12  C17 <0> d           5.510   2.946  -8.104  0.00  0.00     0.093 A 
ATOM     13  C16 <0> d           6.401   3.880  -8.688  0.00  0.00    -0.005 A 
ATOM     14  N5  <0> d           4.767   2.157  -8.885  0.00  0.00    -0.258 NA
ATOM     15  C15 <0> d           7.184   4.704  -7.864  0.00  0.00     0.014 A 
ATOM     16  C20 <0> d           6.483   3.958 -10.091  0.00  0.00     0.015 A 
ATOM     17  C14 <0> d           7.081   4.605  -6.510  0.00  0.00     0.003 A 
ATOM     18  C13 <0> d           6.207   3.695  -5.923  0.00  0.00     0.032 A 
ATOM     19  C19 <0> d           5.704   3.115 -10.831  0.00  0.00     0.020 A 
ATOM     20  C18 <0> d           4.845   2.223 -10.192  0.00  0.00     0.117 A 
ENDBRANCH   9  11
BRANCH   1  21
ATOM     21  C6  <0> d          -0.299  -0.297  -2.948  0.00  0.00     0.315 C 
BRANCH  21  22
ATOM     22  C3  <0> d          -0.467  -0.575  -1.476  0.00  0.00     0.028 A 
ATOM     23  C2  <0> d          -0.713   0.384  -0.478  0.00  0.00     0.069 A 
ATOM     24  C1  <0> d          -0.852   1.869  -0.693  0.00  0.00     0.073 C 
ATOM     25  N1  <0> d          -0.793  -0.234   0.666  0.00  0.00    -0.133 NA
ATOM     26  O1  <0> d          -0.609  -1.618   0.427  0.00  0.00    -0.217 OA
ATOM     27  C4  <0> d          -0.410  -1.786  -0.889  0.00  0.00     0.085 A 
ATOM     28  C5  <0> d          -0.166  -3.099  -1.587  0.00  0.00     0.079 C 
ENDBRANCH  21  22
ENDBRANCH   1  21
TORSDOF 3
