REMARK  4 active torsions:
REMARK  status: ('A' for Active; 'I' for Inactive)
REMARK    1  A    between atoms: C3_3  and  C6_8 
REMARK       I    between atoms: C6_8  and  N2_10 
REMARK    2  A    between atoms: C8_12  and  C15_20 
REMARK       I    between atoms: C15_20  and  N4_22 
REMARK    3  A    between atoms: N4_22  and  C16_23 
REMARK    4  A    between atoms: C16_23  and  C17_24 
ROOT
ATOM      1  C6  <0> d          -0.008  -0.434  -2.582  0.00  0.00     0.258 C 
ATOM      2  O2  <0> d           1.041  -0.239  -3.166  0.00  0.00    -0.267 OA
ATOM      3  N2  <0> d          -1.179  -0.249  -3.222  0.00  0.00    -0.346 N 
ATOM      4  C7  <0> d          -2.548  -0.427  -2.681  0.00  0.00     0.141 C 
ATOM      5  C8  <0> d          -3.361   0.741  -3.283  0.00  0.00     0.106 C 
ATOM      6  C9  <0> d          -2.598   1.133  -4.560  0.00  0.00    -0.007 C 
ATOM      7  C10 <0> d          -1.391   0.185  -4.623  0.00  0.00     0.136 C 
ATOM      8  C11 <0> d          -2.121   2.579  -4.468  0.00  0.00     0.039 C 
ATOM      9  C12 <0> d          -1.415   2.962  -5.772  0.00  0.00     0.233 C 
ATOM     10  N3  <0> d          -2.343   2.803  -6.898  0.00  0.00    -0.075 N 
ATOM     11  C13 <0> d          -2.725   1.392  -7.036  0.00  0.00     0.233 C 
ATOM     12  C14 <0> d          -3.486   0.942  -5.786  0.00  0.00     0.039 C 
ATOM     13  H17 <0> d          -3.169   3.358  -6.733  0.00  0.00     0.277 HD
ATOM     14  H33 <0> d          -1.896   3.114  -7.747  0.00  0.00     0.277 HD
ENDROOT
BRANCH   5  15
ATOM     15  C15 <0> d          -3.407   1.900  -2.321  0.00  0.00     0.224 C 
ATOM     16  O3  <0> d          -2.531   2.037  -1.494  0.00  0.00    -0.273 OA
ATOM     17  N4  <0> d          -4.423   2.784  -2.379  0.00  0.00    -0.358 N 
ATOM     18  H22 <0> d          -5.124   2.674  -3.041  0.00  0.00     0.162 HD
BRANCH  17  19
ATOM     19  C16 <0> d          -4.468   3.910  -1.444  0.00  0.00     0.156 C 
BRANCH  19  20
ATOM     20  C17 <0> d          -5.714   4.755  -1.722  0.00  0.00     0.166 C 
ATOM     21  O5  <0> d          -6.917   4.041  -1.350  0.00  0.00    -0.347 OA
ATOM     22  C19 <0> d          -7.881   5.070  -1.065  0.00  0.00     0.157 C 
ATOM     23  O4  <0> d          -7.183   6.270  -0.705  0.00  0.00    -0.353 OA
ATOM     24  C20 <0> d          -8.777   4.629   0.093  0.00  0.00     0.078 C 
ATOM     25  C21 <0> d          -8.738   5.328  -2.306  0.00  0.00     0.078 C 
ATOM     26  C18 <0> d          -5.772   5.984  -0.782  0.00  0.00     0.205 C 
ENDBRANCH  19  20
ENDBRANCH  17  19
ENDBRANCH   5  15
BRANCH   1  27
ATOM     27  C3  <0> d           0.003  -0.872  -1.175  0.00  0.00     0.089 A 
ATOM     28  C2  <0> d          -0.004  -0.009   0.008  0.00  0.00     0.076 A 
ATOM     29  C1  <0> d          -0.023   1.498   0.016  0.00  0.00     0.074 C 
ATOM     30  N1  <0> d           0.013  -0.787   1.050  0.00  0.00    -0.132 NA
ATOM     31  O1  <0> d           0.024  -2.131   0.612  0.00  0.00    -0.217 OA
ATOM     32  C4  <0> d           0.021  -2.160  -0.723  0.00  0.00     0.092 A 
ATOM     33  C5  <0> d           0.034  -3.399  -1.582  0.00  0.00     0.080 C 
ENDBRANCH   1  27
TORSDOF 4
