REMARK  5 active torsions:
REMARK  status: ('A' for Active; 'I' for Inactive)
REMARK    1  A    between atoms: C2_2  and  C3_3 
REMARK    2  A    between atoms: C2_2  and  C7_10 
REMARK    3  A    between atoms: C3_3  and  N1_4 
REMARK       I    between atoms: C7_10  and  N3_12 
REMARK    4  A    between atoms: N3_12  and  N4_13 
REMARK       I    between atoms: N4_13  and  C8_14 
REMARK    5  A    between atoms: C8_14  and  C9_16 
ROOT
ATOM      1  C7  <0> d           3.217   5.588   1.255  0.00  0.00     0.241 C 
ATOM      2  O1  <0> d           3.016   6.471   0.448  0.00  0.00    -0.271 OA
ATOM      3  N3  <0> d           4.148   5.752   2.215  0.00  0.00    -0.267 N 
ATOM      4  H9  <0> d           4.308   5.046   2.861  0.00  0.00     0.190 HD
ENDROOT
BRANCH   3   5
ATOM      5  N4  <0> d           4.883   6.942   2.282  0.00  0.00    -0.262 N 
ATOM      6  C8  <0> d           5.814   7.107   3.242  0.00  0.00     0.291 C 
ATOM      7  O2  <0> d           6.016   6.222   4.051  0.00  0.00    -0.264 OA
ATOM      8  H10 <0> d           4.723   7.649   1.636  0.00  0.00     0.190 HD
BRANCH   6   9
ATOM      9  C9  <0> d           6.590   8.362   3.312  0.00  0.00     0.164 A 
ATOM     10  N6  <0> d           6.482   9.397   2.503  0.00  0.00    -0.166 NA
ATOM     11  N5  <0> d           7.305  10.319   2.854  0.00  0.00    -0.283 N 
ATOM     12  C11 <0> d           8.018   9.923   3.931  0.00  0.00     0.132 A 
ATOM     13  C12 <0> d           7.452  11.611   2.180  0.00  0.00     0.179 C 
ATOM     14  C10 <0> d           7.595   8.679   4.257  0.00  0.00     0.059 A 
ATOM     15  I1  <0> d           8.282   7.478   5.830  0.00  0.00    -0.040 I 
ENDBRANCH   6   9
ENDBRANCH   3   5
BRANCH   1  16
ATOM     16  C2  <0> d           2.425   4.307   1.183  0.00  0.00     0.095 C 
ATOM     17  C1  <0> d           3.380   3.129   0.979  0.00  0.00     0.022 C 
BRANCH  16  18
ATOM     18  C3  <0> d           1.444   4.379   0.011  0.00  0.00     0.164 C 
BRANCH  18  19
ATOM     19  N1  <0> d           0.594   3.186   0.013  0.00  0.00    -0.279 N 
ATOM     20  N2  <0> d           1.037   1.857   0.002  0.00  0.00    -0.184 NA
ATOM     21  C6  <0> d          -0.013   1.076   0.008  0.00  0.00     0.159 A 
ATOM     22  C5  <0> d          -1.157   1.881   0.017  0.00  0.00     0.047 A 
ATOM     23  C4  <0> d          -0.756   3.174   0.026  0.00  0.00     0.133 A 
ATOM     24 Br1  <0> d          -2.947   1.270   0.021  0.00  0.00    -0.048 Br
ENDBRANCH  18  19
ENDBRANCH  16  18
ENDBRANCH   1  16
TORSDOF 5
