REMARK  8 active torsions:
REMARK  status: ('A' for Active; 'I' for Inactive)
REMARK    1  A    between atoms: C2_2  and  C5_5 
REMARK    2  A    between atoms: C6_6  and  C8_11 
REMARK    3  A    between atoms: C8_11  and  N3_12 
REMARK    4  A    between atoms: N3_12  and  C9_13 
REMARK    5  A    between atoms: C9_13  and  C10_14 
REMARK    6  A    between atoms: C13_17  and  C16_20 
REMARK    7  A    between atoms: C16_20  and  S1_21 
REMARK    8  A    between atoms: S1_21  and  N4_24 
ROOT
ATOM      1  N3  <0> d          -1.470  -2.477  -1.432  0.00  0.00    -0.067 N 
ATOM      2  H14 <0> d          -1.818  -1.704  -0.884  0.00  0.00     0.277 HD
ATOM      3  H27 <0> d          -1.808  -2.397  -2.379  0.00  0.00     0.277 HD
ENDROOT
BRANCH   1   4
ATOM      4  C8  <0> d          -0.001  -2.453  -1.433  0.00  0.00     0.274 C 
BRANCH   4   5
ATOM      5  C6  <0> d           0.480  -1.118  -1.941  0.00  0.00     0.011 A 
ATOM      6  C5  <0> d           0.659   0.038  -1.175  0.00  0.00     0.071 A 
ATOM      7  N2  <0> d           1.081   0.991  -1.965  0.00  0.00    -0.178 NA
ATOM      8  N1  <0> d           1.193   0.469  -3.260  0.00  0.00    -0.288 N 
ATOM      9  C7  <0> d           0.815  -0.826  -3.219  0.00  0.00     0.120 A 
ATOM     10  H1  <0> d           1.487   0.953  -4.047  0.00  0.00     0.188 HD
BRANCH   6  11
ATOM     11  C2  <0> d           0.403   0.166   0.305  0.00  0.00    -0.004 C 
ATOM     12  C1  <0> d           0.523   1.634   0.719  0.00  0.00     0.021 C 
ATOM     13  C3  <0> d           1.432  -0.666   1.074  0.00  0.00     0.021 C 
ATOM     14  C4  <0> d          -1.005  -0.341   0.625  0.00  0.00     0.021 C 
ENDBRANCH   6  11
ENDBRANCH   4   5
ENDBRANCH   1   4
BRANCH   1  15
ATOM     15  C9  <0> d          -1.939  -3.741  -0.849  0.00  0.00     0.271 C 
BRANCH  15  16
ATOM     16  C10 <0> d          -3.446  -3.765  -0.848  0.00  0.00    -0.033 A 
ATOM     17  C15 <0> d          -4.129  -4.279  -1.934  0.00  0.00     0.009 A 
ATOM     18  C14 <0> d          -5.511  -4.305  -1.931  0.00  0.00     0.009 A 
ATOM     19  C13 <0> d          -6.210  -3.809  -0.846  0.00  0.00    -0.043 A 
ATOM     20  C12 <0> d          -5.526  -3.289   0.237  0.00  0.00     0.009 A 
ATOM     21  C11 <0> d          -4.144  -3.267   0.236  0.00  0.00     0.009 A 
BRANCH  19  22
ATOM     22  C16 <0> d          -7.717  -3.834  -0.845  0.00  0.00     0.201 C 
BRANCH  22  23
ATOM     23  S1  <0> d          -8.348  -2.295  -1.569  0.00  0.00     0.230 S 
ATOM     24  O1  <0> d          -8.052  -1.196  -0.719  0.00  0.00    -0.206 OA
ATOM     25  O2  <0> d          -8.037  -2.243  -2.955  0.00  0.00    -0.206 OA
BRANCH  23  26
ATOM     26  N4  <0> d          -9.996  -2.442  -1.512  0.00  0.00    -0.324 N 
ATOM     27  C17 <0> d         -10.681  -2.503  -0.218  0.00  0.00     0.159 C 
ATOM     28  H23 <0> d         -10.508  -2.488  -2.334  0.00  0.00     0.171 HD
ENDBRANCH  23  26
ENDBRANCH  22  23
ENDBRANCH  19  22
ENDBRANCH  15  16
ENDBRANCH   1  15
TORSDOF 8
