REMARK  6 active torsions:
REMARK  status: ('A' for Active; 'I' for Inactive)
REMARK    1  A    between atoms: C2_2  and  C3_3 
REMARK    2  A    between atoms: C3_3  and  C4_4 
REMARK    3  A    between atoms: C3_3  and  N2_7 
REMARK    4  A    between atoms: N2_7  and  S2_8 
REMARK    5  A    between atoms: S2_8  and  C5_11 
REMARK    6  A    between atoms: N3_13  and  C9_17 
ROOT
ATOM      1  S2  <0> d           0.213   1.244  -3.337  0.00  0.00     0.278 S 
ATOM      2  O1  <0> d          -0.718   1.336  -4.407  0.00  0.00    -0.199 OA
ATOM      3  O2  <0> d           0.427   2.309  -2.420  0.00  0.00    -0.199 OA
ENDROOT
BRANCH   1   4
ATOM      4  N2  <0> d          -0.229  -0.074  -2.438  0.00  0.00    -0.303 N 
ATOM      5  H9  <0> d          -1.008  -0.594  -2.689  0.00  0.00     0.173 HD
BRANCH   4   6
ATOM      6  C3  <0> d           0.557  -0.455  -1.261  0.00  0.00     0.153 C 
BRANCH   6   7
ATOM      7  C2  <0> d          -0.362  -0.547  -0.042  0.00  0.00     0.028 C 
ATOM      8  C1  <0> d          -0.917   0.842   0.285  0.00  0.00     0.007 C 
ENDBRANCH   6   7
BRANCH   6   9
ATOM      9  C4  <0> d           1.206  -1.793  -1.503  0.00  0.00     0.094 C 
ATOM     10  S1  <0> d           0.879  -2.611  -2.837  0.00  0.00    -0.064 SA
ATOM     11  N1  <0> d           2.062  -2.301  -0.594  0.00  0.00    -0.392 N 
ATOM     12  H7  <0> d           2.261  -1.804   0.215  0.00  0.00     0.156 HD
ATOM     13  H8  <0> d           2.480  -3.162  -0.750  0.00  0.00     0.156 HD
ENDBRANCH   6   9
ENDBRANCH   4   6
ENDBRANCH   1   4
BRANCH   1  14
ATOM     14  C5  <0> d           1.778   0.881  -4.061  0.00  0.00     0.188 A 
ATOM     15  N4  <0> d           1.979   0.294  -5.250  0.00  0.00    -0.221 NA
ATOM     16  C7  <0> d           3.262   0.185  -5.465  0.00  0.00     0.103 A 
ATOM     17  N3  <0> d           3.923   0.697  -4.404  0.00  0.00    -0.343 N 
ATOM     18  C8  <0> d           3.899  -0.417  -6.690  0.00  0.00     0.091 C 
ATOM     19  C6  <0> d           2.981   1.138  -3.514  0.00  0.00     0.138 A 
BRANCH  17  20
ATOM     20  C9  <0> d           5.377   0.766  -4.238  0.00  0.00     0.125 C 
ATOM     21  C10 <0> d           5.909   2.028  -4.921  0.00  0.00     0.027 C 
ENDBRANCH  17  20
ENDBRANCH   1  14
TORSDOF 6
