REMARK  4 active torsions:
REMARK  status: ('A' for Active; 'I' for Inactive)
REMARK    1  A    between atoms: C3_3  and  C6_8 
REMARK       I    between atoms: C6_8  and  N2_10 
REMARK    2  A    between atoms: N2_10  and  C7_11 
REMARK    3  A    between atoms: C7_11  and  C8_12 
REMARK    4  A    between atoms: C8_12  and  N3_13 
ROOT
ATOM      1  C7  <0> d          -0.014  -0.661  -4.963  0.00  0.00     0.145 C 
ENDROOT
BRANCH   1   2
ATOM      2  N2  <0> d          -0.001  -1.134  -3.577  0.00  0.00    -0.355 N 
ATOM      3  C6  <0> d          -0.008  -0.248  -2.562  0.00  0.00     0.260 C 
ATOM      4  O1  <0> d          -0.025   0.946  -2.797  0.00  0.00    -0.267 OA
ATOM      5  H7  <0> d           0.013  -2.086  -3.389  0.00  0.00     0.162 HD
BRANCH   3   6
ATOM      6  C3  <0> d           0.006  -0.722  -1.174  0.00  0.00     0.098 A 
ATOM      7  C2  <0> d           0.002  -0.004   0.002  0.00  0.00     0.054 A 
ATOM      8  C1  <0> d          -0.018   1.503   0.010  0.00  0.00     0.072 C 
ATOM      9  N1  <0> d           0.022  -0.699   1.113  0.00  0.00    -0.250 NA
ATOM     10  C4  <0> d           0.035  -2.012   1.103  0.00  0.00     0.072 A 
ATOM     11  S1  <0> d           0.032  -2.390  -0.537  0.00  0.00    -0.068 SA
ATOM     12  C5  <0> d           0.053  -2.955   2.278  0.00  0.00     0.078 C 
ENDBRANCH   3   6
ENDBRANCH   1   2
BRANCH   1  13
ATOM     13  C8  <0> d          -0.003  -1.861  -5.912  0.00  0.00     0.176 C 
BRANCH  13  14
ATOM     14  N3  <0> d          -0.016  -1.387  -7.298  0.00  0.00    -0.216 N 
ATOM     15  N5  <0> d          -1.155  -1.136  -8.076  0.00  0.00    -0.149 NA
ATOM     16  C14 <0> d          -0.754  -0.724  -9.256  0.00  0.00     0.158 A 
ATOM     17  N4  <0> d           0.629  -0.710  -9.268  0.00  0.00    -0.256 N 
ATOM     18  C13 <0> d          -1.467  -0.332 -10.418  0.00  0.00     0.053 A 
ATOM     19  C9  <0> d           1.065  -1.120  -8.060  0.00  0.00     0.350 A 
ATOM     20  C10 <0> d           1.302  -0.319 -10.401  0.00  0.00     0.103 A 
ATOM     21  O2  <0> d           2.229  -1.229  -7.716  0.00  0.00    -0.244 OA
ATOM     22  C11 <0> d           0.630   0.054 -11.504  0.00  0.00     0.018 A 
ATOM     23  C12 <0> d          -0.780   0.050 -11.521  0.00  0.00     0.005 A 
ENDBRANCH  13  14
ENDBRANCH   1  13
TORSDOF 4
