REMARK  7 active torsions:
REMARK  status: ('A' for Active; 'I' for Inactive)
REMARK    1  A    between atoms: C4_4  and  C7_7 
REMARK    2  A    between atoms: C7_7  and  C8_8 
REMARK    3  A    between atoms: C9_9  and  C13_17 
REMARK    4  A    between atoms: C10_10  and  N3_16 
REMARK    5  A    between atoms: N1_11  and  C11_13 
REMARK    6  A    between atoms: C11_13  and  C12_14 
REMARK    7  A    between atoms: C12_14  and  O1_15 
ROOT
ATOM      1  C8  <0> d           1.257   1.133   4.236  0.00  0.00     0.077 A 
ATOM      2  C9  <0> d           0.449  -0.025   4.272  0.00  0.00     0.082 A 
ATOM      3  C10 <0> d          -0.216  -0.096   3.054  0.00  0.00     0.134 A 
ATOM      4  N1  <0> d           0.183   0.964   2.320  0.00  0.00    -0.251 N 
ATOM      5  N2  <0> d           1.093   1.710   3.078  0.00  0.00    -0.174 NA
ENDROOT
BRANCH   2   6
ATOM      6  C13 <0> d           0.329  -0.975   5.393  0.00  0.00     0.145 A 
ATOM      7  N5  <0> d           1.073  -0.966   6.474  0.00  0.00    -0.228 NA
ATOM      8  C19 <0> d           0.691  -1.973   7.299  0.00  0.00     0.086 A 
ATOM      9  C14 <0> d          -0.362  -2.653   6.664  0.00  0.00     0.062 A 
ATOM     10  C18 <0> d           1.135  -2.408   8.551  0.00  0.00     0.034 A 
ATOM     11  N4  <0> d          -0.573  -2.003   5.461  0.00  0.00    -0.338 N 
ATOM     12  C15 <0> d          -0.953  -3.746   7.282  0.00  0.00     0.032 A 
ATOM     13  H1  <0> d          -1.282  -2.169   4.636  0.00  0.00     0.167 HD
ATOM     14  C16 <0> d          -0.503  -4.162   8.518  0.00  0.00     0.002 A 
ATOM     15  C17 <0> d           0.537  -3.494   9.149  0.00  0.00     0.002 A 
ENDBRANCH   2   6
BRANCH   1  16
ATOM     16  C7  <0> d           2.156   1.617   5.345  0.00  0.00     0.100 C 
BRANCH  16  17
ATOM     17  C4  <0> d           1.383   2.544   6.248  0.00  0.00    -0.052 A 
ATOM     18  C3  <0> d           0.700   2.036   7.337  0.00  0.00     0.007 A 
ATOM     19  C2  <0> d          -0.008   2.886   8.166  0.00  0.00     0.001 A 
ATOM     20  C1  <0> d          -0.033   4.244   7.906  0.00  0.00     0.000 A 
ATOM     21  C6  <0> d           0.651   4.751   6.817  0.00  0.00     0.001 A 
ATOM     22  C5  <0> d           1.363   3.902   5.991  0.00  0.00     0.007 A 
ENDBRANCH  16  17
ENDBRANCH   1  16
BRANCH   3  23
ATOM     23  N3  <0> d          -1.116  -1.073   2.666  0.00  0.00    -0.383 N 
ATOM     24  H14 <0> d          -1.583  -1.026   1.671  0.00  0.00     0.157 HD
ATOM     25  H15 <0> d          -1.365  -1.897   3.352  0.00  0.00     0.157 HD
ENDBRANCH   3  23
BRANCH   4  26
ATOM     26  C11 <0> d          -0.265   1.283   0.962  0.00  0.00     0.179 C 
BRANCH  26  27
ATOM     27  C12 <0> d           0.667   0.617  -0.052  0.00  0.00     0.186 C 
BRANCH  27  28
ATOM     28  O1  <0> d           0.230   0.928  -1.377  0.00  0.00    -0.399 OA
ATOM     29  H13 <0> d           0.781   0.534  -2.244  0.00  0.00     0.209 HD
ENDBRANCH  27  28
ENDBRANCH  26  27
ENDBRANCH   4  26
TORSDOF 7
