REMARK  4 active torsions:
REMARK  status: ('A' for Active; 'I' for Inactive)
REMARK       I    between atoms: C2_2  and  N1_4 
REMARK    1  A    between atoms: N1_4  and  C3_5 
REMARK    2  A    between atoms: C4_8  and  S2_10 
REMARK    3  A    between atoms: S2_10  and  N4_13 
REMARK    4  A    between atoms: N4_13  and  C6_15 
ROOT
ATOM      1  S2  <0> d          -1.981  -6.349  -0.018  0.00  0.00     0.287 S 
ATOM      2  O2  <0> d          -1.957  -6.787   1.333  0.00  0.00    -0.198 OA
ATOM      3  O3  <0> d          -3.155  -6.407  -0.818  0.00  0.00    -0.198 OA
ENDROOT
BRANCH   1   4
ATOM      4  C4  <0> d          -1.460  -4.666  -0.011  0.00  0.00     0.238 A 
ATOM      5  N3  <0> d          -0.244  -4.157  -0.013  0.00  0.00    -0.126 NA
ATOM      6  N2  <0> d          -0.103  -2.902  -0.007  0.00  0.00    -0.122 NA
ATOM      7  C3  <0> d          -1.137  -2.084   0.002  0.00  0.00     0.197 A 
ATOM      8  S1  <0> d          -2.431  -3.165   0.008  0.00  0.00    -0.015 SA
BRANCH   7   9
ATOM      9  N1  <0> d          -1.156  -0.694   0.009  0.00  0.00    -0.305 N 
ATOM     10  C2  <0> d           0.002  -0.004   0.002  0.00  0.00     0.219 C 
ATOM     11  C1  <0> d          -0.018   1.503   0.010  0.00  0.00     0.117 C 
ATOM     12  O1  <0> d           1.060  -0.596  -0.011  0.00  0.00    -0.274 OA
ATOM     13  H5  <0> d          -2.002  -0.220   0.020  0.00  0.00     0.171 HD
ENDBRANCH   7   9
ENDBRANCH   1   4
BRANCH   1  14
ATOM     14  N4  <0> d          -0.820  -7.218  -0.818  0.00  0.00    -0.304 N 
ATOM     15  C5  <0> d           0.303  -7.795  -0.076  0.00  0.00     0.163 C 
BRANCH  14  16
ATOM     16  C6  <0> d          -0.916  -7.409  -2.267  0.00  0.00     0.110 C 
ATOM     17  C9  <0> d          -1.020  -8.921  -2.581  0.00  0.00     0.166 C 
ATOM     18  S3  <0> d          -0.177  -9.055  -4.209  0.00  0.00     0.146 S 
ATOM     19  C8  <0> d           0.359  -7.305  -4.421  0.00  0.00     0.142 C 
ATOM     20  O4  <0> d           0.974  -9.877  -4.066  0.00  0.00    -0.228 OA
ATOM     21  O5  <0> d          -1.140  -9.368  -5.206  0.00  0.00    -0.228 OA
ATOM     22  C7  <0> d           0.333  -6.819  -2.944  0.00  0.00     0.042 C 
ENDBRANCH  14  16
ENDBRANCH   1  14
TORSDOF 4
