REMARK  6 active torsions:
REMARK  status: ('A' for Active; 'I' for Inactive)
REMARK    1  A    between atoms: C2_2  and  N1_3 
REMARK    2  A    between atoms: N1_3  and  C3_4 
REMARK    3  A    between atoms: N1_3  and  C5_6 
REMARK    4  A    between atoms: C10_11  and  C14_17 
REMARK       I    between atoms: C14_17  and  N3_19 
REMARK    5  A    between atoms: N3_19  and  C15_20 
REMARK    6  A    between atoms: C15_20  and  C16_21 
ROOT
ATOM      1  C5  <0> d          -1.889  -0.564   1.490  0.00  0.00     0.032 A 
ATOM      2  C6  <0> d          -1.314  -0.368   2.747  0.00  0.00     0.030 A 
ATOM      3  C7  <0> d          -2.001  -0.693   3.878  0.00  0.00     0.016 A 
ATOM      4  C8  <0> d          -3.290  -1.239   3.783  0.00  0.00    -0.001 A 
ATOM      5  C9  <0> d          -3.998  -1.614   4.952  0.00  0.00     0.035 C 
ATOM      6  C10 <0> d          -5.177  -2.329   4.805  0.00  0.00     0.083 C 
ATOM      7  C11 <0> d          -5.592  -2.677   3.428  0.00  0.00     0.157 C 
ATOM      8  N2  <0> d          -6.354  -3.711   3.191  0.00  0.00    -0.379 N 
ATOM      9  O1  <0> d          -5.153  -1.881   2.418  0.00  0.00    -0.292 OA
ATOM     10  C12 <0> d          -3.885  -1.410   2.517  0.00  0.00     0.090 A 
ATOM     11  C13 <0> d          -3.175  -1.077   1.377  0.00  0.00     0.067 A 
ATOM     12  H14 <0> d          -6.713  -4.228   3.929  0.00  0.00     0.158 HD
ATOM     13  H23 <0> d          -6.562  -3.961   2.277  0.00  0.00     0.158 HD
ENDROOT
BRANCH   6  14
ATOM     14  C14 <0> d          -5.981  -2.727   5.969  0.00  0.00     0.256 C 
ATOM     15  O2  <0> d          -7.063  -3.260   5.808  0.00  0.00    -0.268 OA
ATOM     16  N3  <0> d          -5.519  -2.503   7.215  0.00  0.00    -0.352 N 
ATOM     17  H16 <0> d          -4.692  -2.013   7.345  0.00  0.00     0.163 HD
BRANCH  16  18
ATOM     18  C15 <0> d          -6.267  -2.998   8.374  0.00  0.00     0.161 C 
BRANCH  18  19
ATOM     19  C16 <0> d          -5.543  -2.617   9.639  0.00  0.00    -0.040 A 
ATOM     20  C21 <0> d          -5.826  -1.415  10.262  0.00  0.00     0.012 A 
ATOM     21  C20 <0> d          -5.166  -1.067  11.425  0.00  0.00     0.043 A 
ATOM     22  C19 <0> d          -4.213  -1.917  11.961  0.00  0.00     0.116 A 
ATOM     23  C18 <0> d          -3.927  -3.118  11.334  0.00  0.00     0.043 A 
ATOM     24  F1  <0> d          -3.564  -1.575  13.096  0.00  0.00    -0.206 F 
ATOM     25  C17 <0> d          -4.592  -3.466  10.174  0.00  0.00     0.012 A 
ENDBRANCH  18  19
ENDBRANCH  16  18
ENDBRANCH   6  14
BRANCH   1  26
ATOM     26  N1  <0> d          -1.172  -0.240   0.344  0.00  0.00    -0.382 N 
BRANCH  26  27
ATOM     27  C2  <0> d           0.185   0.301   0.458  0.00  0.00     0.118 C 
ATOM     28  C1  <0> d           0.120   1.828   0.540  0.00  0.00     0.026 C 
ENDBRANCH  26  27
BRANCH  26  29
ATOM     29  C3  <0> d          -1.773  -0.439  -0.977  0.00  0.00     0.118 C 
ATOM     30  C4  <0> d          -1.445  -1.846  -1.480  0.00  0.00     0.026 C 
ENDBRANCH  26  29
ENDBRANCH   1  26
TORSDOF 6
