REMARK  5 active torsions:
REMARK  status: ('A' for Active; 'I' for Inactive)
REMARK    1  A    between atoms: C5_5  and  N1_8 
REMARK    2  A    between atoms: N1_8  and  C8_9 
REMARK    3  A    between atoms: N2_11  and  N3_12 
REMARK    4  A    between atoms: C9_13  and  C11_15 
REMARK    5  A    between atoms: C15_19  and  N4_21 
ROOT
ATOM      1  C8  <0> d          -3.593   6.032   0.167  0.00  0.00     0.192 C 
ATOM      2  S1  <0> d          -5.086   5.364   0.675  0.00  0.00    -0.039 SA
ATOM      3  N2  <0> d          -2.448   5.349   0.362  0.00  0.00    -0.253 N 
ATOM      4  H9  <0> d          -2.470   4.479   0.790  0.00  0.00     0.191 HD
ENDROOT
BRANCH   3   5
ATOM      5  N3  <0> d          -1.227   5.895  -0.053  0.00  0.00    -0.177 NA
ATOM      6  C9  <0> d          -0.135   5.204   0.060  0.00  0.00     0.061 C 
ATOM      7  C10 <0> d           1.184   5.805  -0.354  0.00  0.00     0.073 C 
BRANCH   6   8
ATOM      8  C11 <0> d          -0.184   3.830   0.594  0.00  0.00    -0.008 A 
ATOM      9  C16 <0> d          -0.762   3.583   1.839  0.00  0.00     0.042 A 
ATOM     10  C15 <0> d          -0.809   2.287   2.332  0.00  0.00     0.026 A 
ATOM     11  C14 <0> d          -0.271   1.242   1.590  0.00  0.00     0.029 A 
ATOM     12  C13 <0> d           0.302   1.487   0.356  0.00  0.00     0.003 A 
ATOM     13  C12 <0> d           0.349   2.771  -0.146  0.00  0.00     0.013 A 
BRANCH  10  14
ATOM     14  N4  <0> d          -1.393   2.034   3.575  0.00  0.00    -0.399 N 
ATOM     15  H17 <0> d          -1.422   1.128   3.921  0.00  0.00     0.156 HD
ATOM     16  H18 <0> d          -1.768   2.763   4.093  0.00  0.00     0.156 HD
ENDBRANCH  10  14
ENDBRANCH   6   8
ENDBRANCH   3   5
BRANCH   1  17
ATOM     17  N1  <0> d          -3.564   7.241  -0.428  0.00  0.00    -0.332 N 
ATOM     18  H8  <0> d          -2.713   7.652  -0.649  0.00  0.00     0.168 HD
BRANCH  17  19
ATOM     19  C5  <0> d          -4.759   7.903  -0.727  0.00  0.00     0.034 A 
ATOM     20  C4  <0> d          -5.784   7.946   0.210  0.00  0.00     0.030 A 
ATOM     21  C3  <0> d          -6.963   8.600  -0.089  0.00  0.00     0.009 A 
ATOM     22  C2  <0> d          -7.124   9.212  -1.318  0.00  0.00    -0.062 A 
ATOM     23  C1  <0> d          -8.412   9.925  -1.641  0.00  0.00     0.048 C 
ATOM     24  C7  <0> d          -6.106   9.171  -2.253  0.00  0.00     0.009 A 
ATOM     25  C6  <0> d          -4.922   8.524  -1.959  0.00  0.00     0.030 A 
ENDBRANCH  17  19
ENDBRANCH   1  17
TORSDOF 5
