REMARK  4 active torsions:
REMARK  status: ('A' for Active; 'I' for Inactive)
REMARK    1  A    between atoms: C4_4  and  C5_8 
REMARK       I    between atoms: C5_8  and  N3_10 
REMARK    2  A    between atoms: N3_10  and  C6_11 
REMARK    3  A    between atoms: C6_11  and  C8_13 
REMARK    4  A    between atoms: C8_13  and  N4_14 
ROOT
ATOM      1  C5  <0> d           0.041  -3.356  -1.443  0.00  0.00     0.271 C 
ATOM      2  O1  <0> d           0.034  -3.300  -2.658  0.00  0.00    -0.266 OA
ATOM      3  N3  <0> d           0.061  -4.554  -0.825  0.00  0.00    -0.350 N 
ATOM      4  H6  <0> d           0.067  -4.599   0.144  0.00  0.00     0.163 HD
ENDROOT
BRANCH   1   5
ATOM      5  C4  <0> d           0.028  -2.119  -0.649  0.00  0.00     0.137 A 
ATOM      6  C3  <0> d           0.008  -0.821  -1.132  0.00  0.00     0.070 A 
ATOM      7  C2  <0> d           0.002  -0.004   0.002  0.00  0.00     0.070 A 
ATOM      8 Br1  <0> d          -0.009  -0.271  -2.942  0.00  0.00    -0.046 Br
ATOM      9  C1  <0> d          -0.018   1.503   0.010  0.00  0.00     0.074 C 
ATOM     10  N2  <0> d           0.023  -0.780   1.055  0.00  0.00    -0.178 NA
ATOM     11  N1  <0> d           0.033  -2.018   0.714  0.00  0.00    -0.271 N 
ATOM     12  H1  <0> d           0.047  -2.768   1.330  0.00  0.00     0.189 HD
ENDBRANCH   1   5
BRANCH   3  13
ATOM     13  C6  <0> d           0.073  -5.787  -1.616  0.00  0.00     0.100 C 
ATOM     14  C7  <0> d           1.513  -6.128  -2.005  0.00  0.00     0.034 C 
BRANCH  13  15
ATOM     15  C8  <0> d          -0.516  -6.930  -0.788  0.00  0.00     0.175 C 
BRANCH  15  16
ATOM     16  N4  <0> d          -1.930  -6.658  -0.517  0.00  0.00    -0.279 N 
ATOM     17  N5  <0> d          -2.446  -5.504   0.086  0.00  0.00    -0.185 NA
ATOM     18  C11 <0> d          -3.747  -5.625   0.154  0.00  0.00     0.140 A 
ATOM     19  C10 <0> d          -4.100  -6.863  -0.394  0.00  0.00     0.040 A 
ATOM     20  C9  <0> d          -2.964  -7.478  -0.798  0.00  0.00     0.113 A 
ENDBRANCH  15  16
ENDBRANCH  13  15
ENDBRANCH   3  13
TORSDOF 4
