REMARK  6 active torsions:
REMARK  status: ('A' for Active; 'I' for Inactive)
REMARK    1  A    between atoms: C3_3  and  N1_9 
REMARK       I    between atoms: N1_9  and  C8_10 
REMARK    2  A    between atoms: C8_10  and  C9_12 
REMARK    3  A    between atoms: C9_12  and  S1_13 
REMARK    4  A    between atoms: S1_13  and  C10_16 
REMARK    5  A    between atoms: C10_16  and  C11_17 
REMARK    6  A    between atoms: N5_21  and  C12_22 
ROOT
ATOM      1  C9  <0> d           0.192   0.111  -4.876  0.00  0.00     0.243 C 
ENDROOT
BRANCH   1   2
ATOM      2  C8  <0> d           0.095  -0.653  -3.581  0.00  0.00     0.236 C 
ATOM      3  N1  <0> d          -0.010   0.011  -2.413  0.00  0.00    -0.326 N 
ATOM      4  H7  <0> d          -0.104   0.977  -2.411  0.00  0.00     0.169 HD
ATOM      5  O1  <0> d           0.112  -1.866  -3.590  0.00  0.00    -0.272 OA
BRANCH   3   6
ATOM      6  C3  <0> d           0.017  -0.692  -1.204  0.00  0.00     0.042 A 
ATOM      7  C2  <0> d          -0.583  -0.153  -0.073  0.00  0.00    -0.013 A 
ATOM      8  C1  <0> d          -1.263   1.190  -0.146  0.00  0.00     0.052 C 
ATOM      9  C7  <0> d          -0.550  -0.848   1.122  0.00  0.00     0.042 A 
ATOM     10  C6  <0> d           0.069  -2.084   1.188  0.00  0.00     0.024 A 
ATOM     11 Cl1  <0> d          -1.293  -0.173   2.538  0.00  0.00    -0.084 Cl
ATOM     12  C5  <0> d           0.667  -2.621   0.064  0.00  0.00     0.004 A 
ATOM     13  C4  <0> d           0.642  -1.929  -1.132  0.00  0.00     0.030 A 
ENDBRANCH   3   6
ENDBRANCH   1   2
BRANCH   1  14
ATOM     14  S1  <0> d           0.322  -1.057  -6.259  0.00  0.00     0.159 S 
ATOM     15  O2  <0> d           1.550  -1.760  -6.139  0.00  0.00    -0.227 OA
ATOM     16  O3  <0> d          -0.891  -1.793  -6.340  0.00  0.00    -0.227 OA
BRANCH  14  17
ATOM     17  C10 <0> d           0.426   0.039  -7.700  0.00  0.00     0.222 C 
BRANCH  17  18
ATOM     18  C11 <0> d           0.540  -0.789  -8.954  0.00  0.00     0.162 A 
ATOM     19  N5  <0> d          -0.474  -1.246  -9.711  0.00  0.00    -0.229 N 
ATOM     20  N4  <0> d           0.048  -1.906 -10.689  0.00  0.00    -0.044 NA
ATOM     21  N3  <0> d           1.329  -1.885 -10.566  0.00  0.00    -0.023 NA
ATOM     22  N2  <0> d           1.647  -1.210  -9.515  0.00  0.00    -0.113 NA
BRANCH  19  23
ATOM     23  C12 <0> d          -1.904  -1.030  -9.473  0.00  0.00     0.114 A 
ATOM     24  C14 <0> d          -2.700  -0.304 -10.559  0.00  0.00     0.029 A 
ATOM     25  C13 <0> d          -2.891  -1.807 -10.345  0.00  0.00     0.029 A 
ENDBRANCH  19  23
ENDBRANCH  17  18
ENDBRANCH  14  17
ENDBRANCH   1  14
TORSDOF 6
