REMARK  6 active torsions:
REMARK  status: ('A' for Active; 'I' for Inactive)
REMARK    1  A    between atoms: C3_5  and  N3_7 
REMARK       I    between atoms: N3_7  and  C4_8 
REMARK       I    between atoms: C4_8  and  N4_10 
REMARK    2  A    between atoms: N4_10  and  C5_11 
REMARK    3  A    between atoms: C5_11  and  C6_12 
REMARK    4  A    between atoms: C6_12  and  C7_13 
REMARK    5  A    between atoms: C6_12  and  O2_20 
REMARK    6  A    between atoms: C7_13  and  N5_14 
ROOT
ATOM      1  N3  <0> d           0.060  -3.893   0.865  0.00  0.00    -0.286 N 
ATOM      2  C4  <0> d           0.070  -4.889  -0.043  0.00  0.00     0.322 C 
ATOM      3  O1  <0> d           0.062  -4.630  -1.230  0.00  0.00    -0.247 OA
ATOM      4  N4  <0> d           0.089  -6.173   0.366  0.00  0.00    -0.340 N 
ATOM      5  H5  <0> d           0.066  -4.100   1.813  0.00  0.00     0.172 HD
ATOM      6  H6  <0> d           0.096  -6.380   1.314  0.00  0.00     0.164 HD
ENDROOT
BRANCH   4   7
ATOM      7  C5  <0> d           0.101  -7.256  -0.620  0.00  0.00     0.157 C 
BRANCH   7   8
ATOM      8  C6  <0> d           0.122  -8.604   0.102  0.00  0.00     0.161 C 
BRANCH   8   9
ATOM      9  C7  <0> d           0.260  -9.731  -0.924  0.00  0.00     0.268 C 
BRANCH   9  10
ATOM     10  N5  <0> d           0.280 -11.026  -0.230  0.00  0.00    -0.069 N 
ATOM     11  C12 <0> d           0.291 -12.110  -1.219  0.00  0.00     0.235 C 
ATOM     12  C11 <0> d           0.231 -13.460  -0.503  0.00  0.00     0.028 C 
ATOM     13  C10 <0> d           1.445 -13.597   0.420  0.00  0.00     0.003 C 
ATOM     14  C9  <0> d           1.464 -12.420   1.400  0.00  0.00     0.028 C 
ATOM     15  C8  <0> d           1.479 -11.108   0.613  0.00  0.00     0.235 C 
ATOM     16  H22 <0> d          -0.542 -11.109   0.349  0.00  0.00     0.280 HD
ENDBRANCH   9  10
ENDBRANCH   8   9
BRANCH   8  17
ATOM     17  O2  <0> d          -1.094  -8.772   0.834  0.00  0.00    -0.392 OA
ATOM     18  H21 <0> d          -1.889  -8.756   0.284  0.00  0.00     0.210 HD
ENDBRANCH   8  17
ENDBRANCH   7   8
ENDBRANCH   4   7
BRANCH   1  19
ATOM     19  C3  <0> d           0.040  -2.568   0.443  0.00  0.00     0.197 A 
ATOM     20  N2  <0> d           0.028  -2.086  -0.784  0.00  0.00    -0.123 NA
ATOM     21  N1  <0> d           0.010  -0.844  -1.014  0.00  0.00    -0.145 NA
ATOM     22  C2  <0> d           0.002  -0.004   0.002  0.00  0.00     0.097 A 
ATOM     23  C1  <0> d          -0.018   1.503   0.010  0.00  0.00     0.081 C 
ATOM     24  S1  <0> d           0.031  -1.158   1.367  0.00  0.00    -0.034 SA
ENDBRANCH   1  19
TORSDOF 6
