REMARK  2 active torsions:
REMARK  status: ('A' for Active; 'I' for Inactive)
REMARK    1  A    between atoms: C2_2  and  C3_3 
REMARK    2  A    between atoms: C2_2  and  N2_6 
ROOT
ATOM      1  N2  <0> d           0.688  -0.476  -1.203  0.00  0.00    -0.277 N 
ATOM      2  C4  <0> d           1.967  -0.121  -1.395  0.00  0.00     0.227 C 
ATOM      3  O1  <0> d           2.524   0.564  -0.565  0.00  0.00    -0.273 OA
ATOM      4  C5  <0> d           2.724  -0.557  -2.622  0.00  0.00     0.113 C 
ATOM      5  C6  <0> d           2.156  -1.886  -3.118  0.00  0.00    -0.024 C 
ATOM      6  C7  <0> d           2.445  -2.998  -2.100  0.00  0.00     0.010 C 
ATOM      7  C8  <0> d           3.300  -4.052  -2.835  0.00  0.00     0.001 C 
ATOM      8  C9  <0> d           3.965  -3.263  -3.991  0.00  0.00     0.001 C 
ATOM      9  C10 <0> d           2.841  -2.292  -4.434  0.00  0.00     0.010 C 
ATOM     10  C11 <0> d           0.649  -1.750  -3.335  0.00  0.00     0.113 C 
ATOM     11  C12 <0> d           0.011  -1.250  -2.065  0.00  0.00     0.227 C 
ATOM     12  O2  <0> d          -1.138  -1.549  -1.819  0.00  0.00    -0.273 OA
ENDROOT
BRANCH   1  13
ATOM     13  C2  <0> d           0.002  -0.004   0.002  0.00  0.00     0.152 C 
ATOM     14  C1  <0> d          -0.019   1.526   0.010  0.00  0.00     0.040 C 
BRANCH  13  15
ATOM     15  C3  <0> d           0.731  -0.503   1.223  0.00  0.00     0.094 C 
ATOM     16  S1  <0> d           2.164  -1.196   1.071  0.00  0.00    -0.064 SA
ATOM     17  N1  <0> d           0.175  -0.366   2.443  0.00  0.00    -0.392 N 
ATOM     18  H5  <0> d          -0.694   0.054   2.535  0.00  0.00     0.156 HD
ATOM     19  H6  <0> d           0.644  -0.687   3.229  0.00  0.00     0.156 HD
ENDBRANCH  13  15
ENDBRANCH   1  13
TORSDOF 2
