REMARK  3 active torsions:
REMARK  status: ('A' for Active; 'I' for Inactive)
REMARK    1  A    between atoms: C3_4  and  C4_7 
REMARK    2  A    between atoms: C4_7  and  N3_8 
REMARK    3  A    between atoms: N3_8  and  C5_9 
ROOT
ATOM      1  C5  <0> d           1.689  -4.634  -2.877  0.00  0.00     0.048 A 
ATOM      2  C6  <0> d           0.641  -5.346  -3.444  0.00  0.00     0.070 A 
ATOM      3  C7  <0> d           0.905  -6.402  -4.303  0.00  0.00     0.104 A 
ATOM      4  C8  <0> d           2.220  -6.745  -4.596  0.00  0.00     0.103 A 
ATOM      5  C9  <0> d           3.264  -6.032  -4.027  0.00  0.00     0.061 A 
ATOM      6  C10 <0> d           3.002  -4.976  -3.175  0.00  0.00     0.040 A 
ATOM      7 Br1  <0> d           4.430  -4.003  -2.407  0.00  0.00    -0.049 Br
ATOM      8  O2  <0> d           2.498  -7.774  -5.444  0.00  0.00    -0.346 OA
ATOM      9  C11 <0> d           1.438  -8.700  -5.703  0.00  0.00     0.202 C 
ATOM     10  C12 <0> d           0.161  -7.899  -5.994  0.00  0.00     0.202 C 
ATOM     11  O3  <0> d          -0.133  -7.093  -4.848  0.00  0.00    -0.346 OA
ENDROOT
BRANCH   1  12
ATOM     12  N3  <0> d           1.423  -3.567  -2.011  0.00  0.00    -0.381 N 
ATOM     13  H6  <0> d           2.155  -3.067  -1.618  0.00  0.00     0.160 HD
BRANCH  12  14
ATOM     14  C4  <0> d           0.038  -3.206  -1.697  0.00  0.00     0.208 C 
BRANCH  14  15
ATOM     15  C3  <0> d           0.026  -2.034  -0.750  0.00  0.00     0.190 A 
ATOM     16  N1  <0> d           0.008  -0.776  -1.091  0.00  0.00    -0.208 NA
ATOM     17  C2  <0> d           0.002  -0.004   0.002  0.00  0.00     0.152 A 
ATOM     18  C1  <0> d          -0.018   1.503   0.010  0.00  0.00     0.096 C 
ATOM     19  N2  <0> d           0.023  -0.767   1.057  0.00  0.00    -0.112 NA
ATOM     20  O1  <0> d           0.033  -2.107   0.587  0.00  0.00    -0.194 OA
ENDBRANCH  14  15
ENDBRANCH  12  14
ENDBRANCH   1  12
TORSDOF 3
