REMARK  9 active torsions:
REMARK  status: ('A' for Active; 'I' for Inactive)
REMARK    1  A    between atoms: C2_2  and  C3_3 
REMARK    2  A    between atoms: C3_3  and  C4_4 
REMARK    3  A    between atoms: C3_3  and  N2_20 
REMARK    4  A    between atoms: C4_4  and  C5_5 
REMARK    5  A    between atoms: C4_4  and  N1_11 
REMARK    6  A    between atoms: N1_11  and  C9_12 
REMARK    7  A    between atoms: N1_11  and  C11_15 
REMARK    8  A    between atoms: C9_12  and  C10_13 
REMARK    9  A    between atoms: C10_13  and  O1_14 
ROOT
ATOM      1  C4  <0> d           1.020  -1.950  -1.261  0.00  0.00     0.293 C 
ENDROOT
BRANCH   1   2
ATOM      2  C3  <0> d           1.805  -2.216  -2.547  0.00  0.00     0.221 C 
BRANCH   2   3
ATOM      3  C2  <0> d           3.064  -1.346  -2.566  0.00  0.00     0.031 C 
ATOM      4  C1  <0> d           3.935  -1.735  -3.762  0.00  0.00     0.007 C 
ENDBRANCH   2   3
BRANCH   2   5
ATOM      5  N2  <0> d           0.967  -1.891  -3.709  0.00  0.00    -0.073 N 
ATOM      6  H24 <0> d           0.704  -0.917  -3.671  0.00  0.00     0.274 HD
ATOM      7  H25 <0> d           1.485  -2.067  -4.557  0.00  0.00     0.274 HD
ATOM      8  H26 <0> d           0.137  -2.465  -3.696  0.00  0.00     0.274 HD
ENDBRANCH   2   5
ENDBRANCH   1   2
BRANCH   1   9
ATOM      9  C5  <0> d          -0.328  -2.618  -1.348  0.00  0.00     0.019 A 
ATOM     10  S1  <0> d          -0.780  -4.294  -0.934  0.00  0.00    -0.103 SA
ATOM     11  C8  <0> d          -2.517  -4.193  -1.336  0.00  0.00     0.069 A 
ATOM     12  C7  <0> d          -2.632  -2.910  -1.760  0.00  0.00     0.018 A 
ATOM     13  C6  <0> d          -1.510  -2.103  -1.766  0.00  0.00     0.036 A 
ATOM     14 Br1  <0> d          -4.303  -2.235  -2.333  0.00  0.00    -0.051 Br
ENDBRANCH   1   9
BRANCH   1  15
ATOM     15  N1  <0> d           1.762  -2.490  -0.114  0.00  0.00     0.106 N 
BRANCH  15  16
ATOM     16  C9  <0> d           1.023  -2.278   1.138  0.00  0.00     0.299 C 
BRANCH  16  17
ATOM     17  C10 <0> d           0.897  -0.778   1.408  0.00  0.00     0.194 C 
BRANCH  17  18
ATOM     18  O1  <0> d           0.028  -0.190   0.437  0.00  0.00    -0.399 OA
ATOM     19  H14 <0> d          -0.099   0.762   0.548  0.00  0.00     0.209 HD
ENDBRANCH  17  18
ENDBRANCH  16  17
ENDBRANCH  15  16
BRANCH  15  20
ATOM     20  C11 <0> d           2.069  -3.913  -0.309  0.00  0.00     0.224 C 
ATOM     21  C15 <0> d           3.372  -4.066  -1.113  0.00  0.00     0.036 C 
ATOM     22  C14 <0> d           4.360  -4.833  -0.210  0.00  0.00     0.002 C 
ATOM     23  C13 <0> d           3.451  -5.605   0.777  0.00  0.00     0.002 C 
ATOM     24  C12 <0> d           2.311  -4.594   1.054  0.00  0.00     0.036 C 
ENDBRANCH  15  20
ENDBRANCH   1  15
TORSDOF 9
