REMARK  5 active torsions:
REMARK  status: ('A' for Active; 'I' for Inactive)
REMARK    1  A    between atoms: N1_2  and  C2_3 
REMARK    2  A    between atoms: N1_2  and  C7_10 
REMARK    3  A    between atoms: C2_3  and  C3_4 
REMARK    4  A    between atoms: C7_10  and  C8_11 
REMARK       I    between atoms: C8_11  and  N2_13 
REMARK       I    between atoms: N2_13  and  C9_14 
REMARK       I    between atoms: C9_14  and  N3_16 
REMARK    5  A    between atoms: N3_16  and  C10_17 
ROOT
ATOM      1  C7  <0> d           0.713  -0.491   1.192  0.00  0.00     0.337 C 
ENDROOT
BRANCH   1   2
ATOM      2  N1  <0> d           0.002  -0.004   0.002  0.00  0.00    -0.062 N 
ATOM      3  C1  <0> d          -0.018   1.465   0.010  0.00  0.00     0.270 C 
ATOM      4  H17 <0> d          -0.945  -0.353   0.009  0.00  0.00     0.280 HD
BRANCH   2   5
ATOM      5  C2  <0> d           0.690  -0.478  -1.207  0.00  0.00     0.280 C 
BRANCH   5   6
ATOM      6  C3  <0> d          -0.106  -0.083  -2.424  0.00  0.00     0.009 A 
ATOM      7  S1  <0> d          -1.399  -0.984  -3.263  0.00  0.00    -0.103 SA
ATOM      8  C6  <0> d          -1.746   0.208  -4.545  0.00  0.00     0.069 A 
ATOM      9  C5  <0> d          -0.862   1.195  -4.258  0.00  0.00     0.018 A 
ATOM     10  C4  <0> d          -0.021   1.045  -3.170  0.00  0.00     0.035 A 
ATOM     11 Br1  <0> d          -0.780   2.752  -5.327  0.00  0.00    -0.051 Br
ENDBRANCH   5   6
ENDBRANCH   2   5
ENDBRANCH   1   2
BRANCH   1  12
ATOM     12  C8  <0> d          -0.059  -0.109   2.429  0.00  0.00     0.251 C 
ATOM     13  O1  <0> d          -1.099   0.507   2.329  0.00  0.00    -0.271 OA
ATOM     14  N2  <0> d           0.406  -0.453   3.646  0.00  0.00    -0.278 N 
ATOM     15  C9  <0> d          -0.285  -0.112   4.752  0.00  0.00     0.323 C 
ATOM     16  H10 <0> d           1.237  -0.946   3.726  0.00  0.00     0.173 HD
ATOM     17  O2  <0> d          -1.327   0.506   4.652  0.00  0.00    -0.247 OA
ATOM     18  N3  <0> d           0.180  -0.456   5.970  0.00  0.00    -0.338 N 
ATOM     19  H11 <0> d           1.012  -0.949   6.050  0.00  0.00     0.164 HD
BRANCH  18  20
ATOM     20  C10 <0> d          -0.570  -0.085   7.172  0.00  0.00     0.086 A 
ATOM     21  C12 <0> d          -0.368  -0.943   8.423  0.00  0.00     0.027 A 
ATOM     22  C11 <0> d           0.224   0.467   8.358  0.00  0.00     0.027 A 
ENDBRANCH  18  20
ENDBRANCH   1  12
TORSDOF 5
