REMARK  6 active torsions:
REMARK  status: ('A' for Active; 'I' for Inactive)
REMARK    1  A    between atoms: C7_10  and  N5_12 
REMARK    2  A    between atoms: C10_15  and  C13_18 
REMARK       I    between atoms: C13_18  and  N6_20 
REMARK    3  A    between atoms: N6_20  and  C14_21 
REMARK    4  A    between atoms: C14_21  and  C15_22 
REMARK    5  A    between atoms: C15_22  and  C18_25 
REMARK    6  A    between atoms: C18_25  and  N7_26 
ROOT
ATOM      1  N5  <0> d           0.540  -2.943   2.655  0.00  0.00    -0.365 N 
ATOM      2  C8  <0> d           0.365  -4.401   2.639  0.00  0.00     0.125 C 
ATOM      3  C9  <0> d          -0.849  -4.762   3.500  0.00  0.00     0.034 C 
ATOM      4  C10 <0> d          -0.673  -4.166   4.899  0.00  0.00     0.081 C 
ATOM      5  C11 <0> d          -0.588  -2.641   4.798  0.00  0.00     0.034 C 
ATOM      6  C12 <0> d           0.635  -2.257   3.951  0.00  0.00     0.125 C 
ENDROOT
BRANCH   4   7
ATOM      7  C13 <0> d          -1.851  -4.547   5.759  0.00  0.00     0.222 C 
ATOM      8  O1  <0> d          -2.742  -5.228   5.299  0.00  0.00    -0.273 OA
ATOM      9  N6  <0> d          -1.912  -4.131   7.039  0.00  0.00    -0.360 N 
ATOM     10  H17 <0> d          -1.199  -3.586   7.407  0.00  0.00     0.162 HD
BRANCH   9  11
ATOM     11  C14 <0> d          -3.057  -4.502   7.875  0.00  0.00     0.133 C 
BRANCH  11  12
ATOM     12  C15 <0> d          -2.881  -3.905   9.274  0.00  0.00    -0.008 C 
ATOM     13  C16 <0> d          -1.595  -4.447   9.901  0.00  0.00     0.018 C 
ATOM     14  C17 <0> d          -2.797  -2.381   9.171  0.00  0.00     0.018 C 
BRANCH  12  15
ATOM     15  C18 <0> d          -4.076  -4.293  10.147  0.00  0.00     0.244 C 
BRANCH  15  16
ATOM     16  N7  <0> d          -3.905  -3.725  11.491  0.00  0.00    -0.078 N 
ATOM     17  C19 <0> d          -4.456  -2.364  11.521  0.00  0.00     0.269 C 
ATOM     18  C20 <0> d          -4.612  -4.562  12.469  0.00  0.00     0.269 C 
ATOM     19  H34 <0> d          -2.923  -3.696  11.721  0.00  0.00     0.279 HD
ENDBRANCH  15  16
ENDBRANCH  12  15
ENDBRANCH  11  12
ENDBRANCH   9  11
ENDBRANCH   4   7
BRANCH   1  20
ATOM     20  C7  <0> d           0.620  -2.230   1.475  0.00  0.00     0.143 A 
ATOM     21  C4  <0> d           1.869  -1.924   0.900  0.00  0.00     0.076 A 
ATOM     22  C3  <0> d           1.888  -1.194  -0.305  0.00  0.00     0.163 A 
ATOM     23  C5  <0> d           3.212  -2.180   1.250  0.00  0.00     0.158 A 
ATOM     24  N1  <0> d           0.730  -0.825  -0.850  0.00  0.00    -0.214 NA
ATOM     25  N3  <0> d           3.199  -1.034  -0.641  0.00  0.00    -0.256 N 
ATOM     26  C2  <0> d          -0.412  -1.135  -0.276  0.00  0.00     0.127 A 
ATOM     27  C1  <0> d          -1.695  -0.694  -0.932  0.00  0.00     0.093 C 
ATOM     28  N4  <0> d          -0.479  -1.813   0.857  0.00  0.00    -0.215 NA
ATOM     29  N2  <0> d           3.982  -1.655   0.340  0.00  0.00    -0.182 NA
ATOM     30  C6  <0> d           3.702  -0.335  -1.826  0.00  0.00     0.182 C 
ENDBRANCH   1  20
TORSDOF 6
