REMARK  3 active torsions:
REMARK  status: ('A' for Active; 'I' for Inactive)
REMARK       I    between atoms: C2_2  and  N1_4 
REMARK    1  A    between atoms: C4_6  and  C12_15 
REMARK    2  A    between atoms: C5_7  and  C6_9 
REMARK    3  A    between atoms: N3_19  and  C16_23 
ROOT
ATOM      1  C1  <0> d           2.330   8.334   1.721  0.00  0.00     0.119 C 
ATOM      2  C2  <0> d           1.096   8.520   0.876  0.00  0.00     0.240 C 
ATOM      3  O1  <0> d           0.701   9.633   0.621  0.00  0.00    -0.272 OA
ATOM      4  N1  <0> d           0.433   7.445   0.406  0.00  0.00    -0.211 N 
ATOM      5  C3  <0> d          -0.687   7.488  -0.362  0.00  0.00     0.135 A 
ATOM      6  C4  <0> d          -1.054   6.188  -0.639  0.00  0.00     0.014 A 
ATOM      7  C5  <0> d          -0.070   5.326   0.030  0.00  0.00     0.099 A 
ATOM      8  N2  <0> d           0.790   6.113   0.632  0.00  0.00    -0.164 NA
ENDROOT
BRANCH   6   9
ATOM      9  C12 <0> d          -2.202   5.752  -1.442  0.00  0.00     0.040 C 
ATOM     10  C13 <0> d          -3.029   6.672  -2.002  0.00  0.00     0.078 A 
ATOM     11  S1  <0> d          -2.954   8.456  -1.925  0.00  0.00    -0.046 SA
ATOM     12  C14 <0> d          -4.222   6.468  -2.841  0.00  0.00     0.273 A 
ATOM     13  C15 <0> d          -4.395   8.809  -2.919  0.00  0.00     0.175 A 
ATOM     14  N3  <0> d          -4.857   7.550  -3.258  0.00  0.00    -0.233 N 
ATOM     15  N4  <0> d          -4.890   9.971  -3.247  0.00  0.00    -0.277 NA
ATOM     16  H11 <0> d          -4.462  10.785  -2.938  0.00  0.00     0.189 HD
ATOM     17  O2  <0> d          -4.609   5.352  -3.133  0.00  0.00    -0.266 OA
BRANCH  14  18
ATOM     18  C16 <0> d          -5.996   7.422  -4.049  0.00  0.00     0.181 A 
ATOM     19  S2  <0> d          -6.999   8.666  -4.727  0.00  0.00    -0.062 SA
ATOM     20  C18 <0> d          -8.169   7.597  -5.553  0.00  0.00     0.072 A 
ATOM     21  C17 <0> d          -7.672   6.379  -5.225  0.00  0.00     0.127 A 
ATOM     22  N5  <0> d          -6.585   6.324  -4.480  0.00  0.00    -0.236 NA
ENDBRANCH  14  18
ENDBRANCH   6   9
BRANCH   7  23
ATOM     23  C6  <0> d          -0.050   3.844   0.022  0.00  0.00    -0.005 A 
ATOM     24  C11 <0> d          -1.246   3.128   0.030  0.00  0.00     0.014 A 
ATOM     25  C10 <0> d          -1.221   1.748   0.017  0.00  0.00     0.001 A 
ATOM     26  C9  <0> d          -0.013   1.076   0.008  0.00  0.00     0.000 A 
ATOM     27  C8  <0> d           1.177   1.781   0.000  0.00  0.00     0.001 A 
ATOM     28  C7  <0> d           1.165   3.161   0.007  0.00  0.00     0.014 A 
ENDBRANCH   7  23
TORSDOF 3
