REMARK  4 active torsions:
REMARK  status: ('A' for Active; 'I' for Inactive)
REMARK    1  A    between atoms: C2_3  and  C4_8 
REMARK    2  A    between atoms: C4_8  and  N4_9 
REMARK       I    between atoms: N4_9  and  C5_10 
REMARK    3  A    between atoms: C5_10  and  C6_12 
REMARK    4  A    between atoms: C6_12  and  N5_13 
ROOT
ATOM      1  N4  <0> d          -0.882   5.311  -1.377  0.00  0.00    -0.352 N 
ATOM      2  C5  <0> d          -0.576   6.507  -0.837  0.00  0.00     0.236 C 
ATOM      3  O1  <0> d           0.041   6.562   0.206  0.00  0.00    -0.272 OA
ATOM      4  H7  <0> d          -1.375   5.267  -2.211  0.00  0.00     0.162 HD
ENDROOT
BRANCH   2   5
ATOM      5  C6  <0> d          -1.000   7.777  -1.529  0.00  0.00     0.235 C 
BRANCH   5   6
ATOM      6  N5  <0> d          -0.551   8.932  -0.748  0.00  0.00    -0.302 N 
ATOM      7  C14 <0> d           0.660   9.485  -0.975  0.00  0.00     0.266 A 
ATOM      8  C13 <0> d           1.078  10.645  -0.181  0.00  0.00     0.192 A 
ATOM      9  O2  <0> d           1.395   9.028  -1.833  0.00  0.00    -0.266 OA
ATOM     10  N6  <0> d           0.292  11.127   0.739  0.00  0.00    -0.253 NA
ATOM     11  C12 <0> d          -0.915  10.580   0.978  0.00  0.00     0.083 A 
ATOM     12  C7  <0> d          -1.357   9.470   0.235  0.00  0.00     0.066 A 
ATOM     13  C11 <0> d          -1.746  11.116   1.974  0.00  0.00     0.034 A 
ATOM     14  C8  <0> d          -2.609   8.919   0.497  0.00  0.00     0.032 A 
ATOM     15  C9  <0> d          -3.404   9.464   1.481  0.00  0.00     0.002 A 
ATOM     16  C10 <0> d          -2.968  10.560   2.214  0.00  0.00     0.002 A 
ENDBRANCH   5   6
ENDBRANCH   2   5
BRANCH   1  17
ATOM     17  C4  <0> d          -0.469   4.076  -0.704  0.00  0.00     0.203 C 
BRANCH  17  18
ATOM     18  C2  <0> d          -0.931   2.888  -1.508  0.00  0.00     0.146 A 
ATOM     19  N1  <0> d          -0.721   1.571  -1.179  0.00  0.00    -0.312 N 
ATOM     20  C1  <0> d          -0.013   1.086   0.008  0.00  0.00     0.160 C 
ATOM     21  C3  <0> d          -1.274   0.801  -2.138  0.00  0.00     0.195 A 
ATOM     22  N3  <0> d          -1.829   1.628  -3.048  0.00  0.00    -0.251 N 
ATOM     23  S1  <0> d          -1.274  -0.910  -2.189  0.00  0.00    -0.039 SA
ATOM     24  N2  <0> d          -1.590   2.941  -2.620  0.00  0.00    -0.157 NA
ATOM     25  H4  <0> d          -2.303   1.363  -3.852  0.00  0.00     0.191 HD
ENDBRANCH  17  18
ENDBRANCH   1  17
TORSDOF 4
