REMARK  2 active torsions:
REMARK  status: ('A' for Active; 'I' for Inactive)
REMARK    1  A    between atoms: C9_12  and  C11_14 
REMARK    2  A    between atoms: C15_18  and  N3_20 
ROOT
ATOM      1  C1  <0> d          -0.019   1.526   0.010  0.00  0.00     0.027 C 
ATOM      2  C2  <0> d           0.002  -0.004   0.002  0.00  0.00     0.068 C 
ATOM      3  C3  <0> d           0.736  -0.548  -1.233  0.00  0.00     0.257 C 
ATOM      4  N1  <0> d           0.752  -2.012  -1.201  0.00  0.00    -0.027 N 
ATOM      5  C4  <0> d           1.493  -2.519  -0.045  0.00  0.00     0.257 C 
ATOM      6  C5  <0> d           0.800  -2.082   1.255  0.00  0.00     0.068 C 
ATOM      7  C6  <0> d           0.731  -0.559   1.222  0.00  0.00     0.150 C 
ATOM      8  O1  <0> d           1.226   0.143   2.071  0.00  0.00    -0.296 OA
ATOM      9  C7  <0> d          -0.651  -2.588   1.220  0.00  0.00     0.294 C 
ATOM     10  N2  <0> d          -1.312  -2.071   0.015  0.00  0.00     0.132 N 
ATOM     11  C8  <0> d          -1.421  -0.585   0.041  0.00  0.00     0.294 C 
ATOM     12  C9  <0> d          -0.618  -2.535  -1.195  0.00  0.00     0.345 C 
ATOM     13  C10 <0> d          -1.362  -2.034  -2.434  0.00  0.00     0.088 C 
ATOM     14  C17 <0> d           1.558  -2.581   2.487  0.00  0.00     0.027 C 
ATOM     15  H24 <0> d           1.214  -2.343  -2.035  0.00  0.00     0.283 HD
ENDROOT
BRANCH  12  16
ATOM     16  C11 <0> d          -0.580  -4.042  -1.206  0.00  0.00     0.011 A 
ATOM     17  C16 <0> d          -1.595  -4.761  -0.606  0.00  0.00     0.040 A 
ATOM     18  C15 <0> d          -1.562  -6.150  -0.622  0.00  0.00     0.026 A 
ATOM     19  C14 <0> d          -0.503  -6.810  -1.233  0.00  0.00     0.029 A 
ATOM     20  C13 <0> d           0.511  -6.084  -1.826  0.00  0.00     0.003 A 
ATOM     21  C12 <0> d           0.473  -4.702  -1.813  0.00  0.00     0.012 A 
BRANCH  18  22
ATOM     22  N3  <0> d          -2.589  -6.881  -0.021  0.00  0.00    -0.399 N 
ATOM     23  H19 <0> d          -2.563  -7.851  -0.030  0.00  0.00     0.156 HD
ATOM     24  H20 <0> d          -3.328  -6.420   0.405  0.00  0.00     0.156 HD
ENDBRANCH  18  22
ENDBRANCH  12  16
TORSDOF 2
