REMARK  8 active torsions:
REMARK  status: ('A' for Active; 'I' for Inactive)
REMARK    1  A    between atoms: O1_2  and  C2_3 
REMARK    2  A    between atoms: C5_6  and  C8_9 
REMARK    3  A    between atoms: C8_9  and  C9_10 
REMARK    4  A    between atoms: C8_9  and  O4_28 
REMARK    5  A    between atoms: C9_10  and  N1_11 
REMARK       I    between atoms: N1_11  and  C10_12 
REMARK    6  A    between atoms: C10_12  and  C11_14 
REMARK       I    between atoms: C11_14  and  N2_16 
REMARK    7  A    between atoms: N2_16  and  C12_17 
REMARK    8  A    between atoms: C17_22  and  N3_23 
ROOT
ATOM      1  N1  <0> d           4.604  -3.497  -5.149  0.00  0.00    -0.350 N 
ATOM      2  C10 <0> d           5.866  -3.955  -5.032  0.00  0.00     0.309 C 
ATOM      3  O2  <0> d           6.425  -3.927  -3.955  0.00  0.00    -0.262 OA
ATOM      4  H11 <0> d           4.158  -3.519  -6.010  0.00  0.00     0.163 HD
ENDROOT
BRANCH   2   5
ATOM      5  C11 <0> d           6.577  -4.496  -6.229  0.00  0.00     0.314 C 
ATOM      6  O3  <0> d           6.019  -4.524  -7.306  0.00  0.00    -0.262 OA
ATOM      7  N2  <0> d           7.840  -4.954  -6.112  0.00  0.00    -0.317 N 
ATOM      8  H12 <0> d           8.314  -4.859  -5.271  0.00  0.00     0.169 HD
BRANCH   7   9
ATOM      9  C12 <0> d           8.465  -5.566  -7.202  0.00  0.00     0.064 A 
ATOM     10  C17 <0> d           9.856  -5.564  -7.302  0.00  0.00     0.084 A 
ATOM     11  C16 <0> d          10.470  -6.178  -8.384  0.00  0.00     0.034 A 
ATOM     12  C15 <0> d           9.703  -6.779  -9.364  0.00  0.00     0.002 A 
ATOM     13  C14 <0> d           8.323  -6.775  -9.268  0.00  0.00     0.002 A 
ATOM     14  C13 <0> d           7.703  -6.171  -8.192  0.00  0.00     0.032 A 
BRANCH  10  15
ATOM     15  N3  <0> d          10.632  -4.949  -6.310  0.00  0.00    -0.243 N 
ATOM     16  N4  <0> d          10.153  -4.385  -5.120  0.00  0.00    -0.180 NA
ATOM     17  C20 <0> d          11.174  -3.912  -4.451  0.00  0.00     0.140 A 
ATOM     18  C19 <0> d          12.334  -4.150  -5.196  0.00  0.00     0.040 A 
ATOM     19  C18 <0> d          11.974  -4.788  -6.334  0.00  0.00     0.120 A 
ENDBRANCH  10  15
ENDBRANCH   7   9
ENDBRANCH   2   5
BRANCH   1  20
ATOM     20  C9  <0> d           3.906  -2.966  -3.975  0.00  0.00     0.159 C 
BRANCH  20  21
ATOM     21  C8  <0> d           2.500  -2.516  -4.378  0.00  0.00     0.169 C 
BRANCH  21  22
ATOM     22  C5  <0> d           1.827  -1.859  -3.201  0.00  0.00    -0.028 A 
ATOM     23  C4  <0> d           1.779  -0.479  -3.116  0.00  0.00     0.012 A 
ATOM     24  C3  <0> d           1.162   0.126  -2.039  0.00  0.00     0.037 A 
ATOM     25  C2  <0> d           0.590  -0.651  -1.042  0.00  0.00     0.068 A 
ATOM     26  C7  <0> d           0.644  -2.034  -1.127  0.00  0.00     0.037 A 
ATOM     27  C6  <0> d           1.257  -2.635  -2.209  0.00  0.00     0.012 A 
BRANCH  25  28
ATOM     28  O1  <0> d          -0.017  -0.057   0.019  0.00  0.00    -0.356 OA
ATOM     29  C1  <0> d          -0.036   1.371   0.041  0.00  0.00     0.210 C 
ENDBRANCH  25  28
ENDBRANCH  21  22
BRANCH  21  30
ATOM     30  O4  <0> d           1.737  -3.652  -4.790  0.00  0.00    -0.389 OA
ATOM     31  H20 <0> d           1.636  -4.327  -4.105  0.00  0.00     0.210 HD
ENDBRANCH  21  30
ENDBRANCH  20  21
ENDBRANCH   1  20
TORSDOF 8
