REMARK  5 active torsions:
REMARK  status: ('A' for Active; 'I' for Inactive)
REMARK    1  A    between atoms: C2_2  and  C3_3 
REMARK    2  A    between atoms: C2_2  and  N1_12 
REMARK    3  A    between atoms: C6_6  and  O1_10 
REMARK       I    between atoms: N1_12  and  C10_13 
REMARK    4  A    between atoms: C10_13  and  C11_15 
REMARK       I    between atoms: C11_15  and  N2_17 
REMARK    5  A    between atoms: N2_17  and  C12_18 
ROOT
ATOM      1  N1  <0> d          -1.372  -0.511   0.012  0.00  0.00    -0.345 N 
ATOM      2  C10 <0> d          -2.029  -0.655   1.181  0.00  0.00     0.310 C 
ATOM      3  O2  <0> d          -1.481  -0.365   2.224  0.00  0.00    -0.262 OA
ATOM      4  H11 <0> d          -1.810  -0.743  -0.822  0.00  0.00     0.163 HD
ENDROOT
BRANCH   1   5
ATOM      5  C2  <0> d           0.002  -0.004   0.002  0.00  0.00     0.114 C 
ATOM      6  C1  <0> d          -0.019   1.526   0.010  0.00  0.00     0.037 C 
BRANCH   5   7
ATOM      7  C3  <0> d           0.707  -0.490  -1.238  0.00  0.00    -0.033 A 
ATOM      8  C8  <0> d           2.026  -0.899  -1.166  0.00  0.00     0.054 A 
ATOM      9  C7  <0> d           2.674  -1.351  -2.302  0.00  0.00     0.150 A 
ATOM     10  C6  <0> d           2.001  -1.383  -3.516  0.00  0.00     0.106 A 
ATOM     11  F1  <0> d           3.961  -1.755  -2.231  0.00  0.00    -0.203 F 
ATOM     12  C5  <0> d           0.680  -0.967  -3.585  0.00  0.00     0.040 A 
ATOM     13  C4  <0> d           0.036  -0.521  -2.446  0.00  0.00     0.012 A 
BRANCH  10  14
ATOM     14  O1  <0> d           2.635  -1.822  -4.636  0.00  0.00    -0.353 OA
ATOM     15  C9  <0> d           1.881  -1.828  -5.849  0.00  0.00     0.210 C 
ENDBRANCH  10  14
ENDBRANCH   5   7
ENDBRANCH   1   5
BRANCH   2  16
ATOM     16  C11 <0> d          -3.429  -1.172   1.191  0.00  0.00     0.315 C 
ATOM     17  O3  <0> d          -3.977  -1.462   0.148  0.00  0.00    -0.262 OA
ATOM     18  N2  <0> d          -4.086  -1.316   2.360  0.00  0.00    -0.297 N 
ATOM     19  H12 <0> d          -3.648  -1.084   3.194  0.00  0.00     0.171 HD
BRANCH  18  20
ATOM     20  C12 <0> d          -5.387  -1.796   2.369  0.00  0.00     0.173 A 
ATOM     21  S1  <0> d          -6.396  -2.058   3.691  0.00  0.00    -0.062 SA
ATOM     22  C14 <0> d          -7.821  -2.659   2.800  0.00  0.00     0.072 A 
ATOM     23  C13 <0> d          -7.363  -2.604   1.524  0.00  0.00     0.126 A 
ATOM     24  N3  <0> d          -6.131  -2.164   1.348  0.00  0.00    -0.236 NA
ENDBRANCH  18  20
ENDBRANCH   2  16
TORSDOF 5
