REMARK  3 active torsions:
REMARK  status: ('A' for Active; 'I' for Inactive)
REMARK    1  A    between atoms: C3_4  and  C14_22 
REMARK    2  A    between atoms: C3_4  and  C15_26 
REMARK    3  A    between atoms: N3_12  and  C8_15 
ROOT
ATOM      1  C1  <0> d           2.204   0.824   0.068  0.00  0.00     0.091 C 
ATOM      2  C2  <0> d           1.503  -0.507   0.161  0.00  0.00     0.098 C 
ATOM      3  N1  <0> d           1.492  -1.280  -0.863  0.00  0.00    -0.243 NA
ATOM      4  C3  <0> d           0.848  -2.588  -0.870  0.00  0.00     0.285 C 
ATOM      5  C4  <0> d          -0.097  -2.734   0.288  0.00  0.00     0.103 A 
ATOM      6  C5  <0> d          -1.058  -3.759   0.298  0.00  0.00     0.262 A 
ATOM      7  O1  <0> d          -1.136  -4.538  -0.636  0.00  0.00    -0.267 OA
ATOM      8  N2  <0> d          -1.894  -3.873   1.350  0.00  0.00    -0.274 N 
ATOM      9  H1  <0> d          -2.558  -4.580   1.361  0.00  0.00     0.173 HD
ATOM     10  C6  <0> d          -1.814  -3.018   2.386  0.00  0.00     0.335 A 
ATOM     11  O2  <0> d          -2.577  -3.143   3.325  0.00  0.00    -0.246 OA
ATOM     12  N3  <0> d          -0.903  -2.027   2.399  0.00  0.00    -0.248 N 
ATOM     13  C7  <0> d          -0.035  -1.874   1.345  0.00  0.00     0.132 A 
ATOM     14  N4  <0> d           0.898  -0.862   1.341  0.00  0.00    -0.330 N 
ATOM     15  H5  <0> d           1.124  -0.401   2.164  0.00  0.00     0.168 HD
ENDROOT
BRANCH   4  16
ATOM     16  C14 <0> d           0.070  -2.757  -2.177  0.00  0.00     0.428 C 
ATOM     17  F1  <0> d           0.846  -2.293  -3.245  0.00  0.00    -0.168 F 
ATOM     18  F2  <0> d          -0.227  -4.110  -2.370  0.00  0.00    -0.168 F 
ATOM     19  F3  <0> d          -1.119  -2.023  -2.110  0.00  0.00    -0.168 F 
ENDBRANCH   4  16
BRANCH   4  20
ATOM     20  C15 <0> d           1.921  -3.675  -0.782  0.00  0.00     0.428 C 
ATOM     21  F4  <0> d           2.650  -3.516   0.401  0.00  0.00    -0.168 F 
ATOM     22  F5  <0> d           1.311  -4.934  -0.788  0.00  0.00    -0.168 F 
ATOM     23  F6  <0> d           2.783  -3.569  -1.879  0.00  0.00    -0.168 F 
ENDBRANCH   4  20
BRANCH  12  24
ATOM     24  C8  <0> d          -0.839  -1.150   3.490  0.00  0.00     0.045 A 
ATOM     25  C13 <0> d          -0.037  -1.455   4.582  0.00  0.00     0.032 A 
ATOM     26  C12 <0> d           0.028  -0.586   5.653  0.00  0.00     0.026 A 
ATOM     27  C11 <0> d          -0.713   0.583   5.644  0.00  0.00     0.034 A 
ATOM     28  C10 <0> d          -1.518   0.886   4.559  0.00  0.00     0.026 A 
ATOM     29 Cl1  <0> d          -0.635   1.669   6.995  0.00  0.00    -0.084 Cl
ATOM     30  C9  <0> d          -1.582   0.023   3.483  0.00  0.00     0.032 A 
ENDBRANCH  12  24
TORSDOF 3
