REMARK  11 active torsions:
REMARK  status: ('A' for Active; 'I' for Inactive)
REMARK    1  A    between atoms: N1_14  and  C13_15 
REMARK    2  A    between atoms: C13_15  and  C14_16 
REMARK    3  A    between atoms: C14_16  and  C15_17 
REMARK    4  A    between atoms: C14_16  and  O3_24 
REMARK    5  A    between atoms: C15_17  and  N2_29 
REMARK    6  A    between atoms: C16_18  and  C17_19 
REMARK    7  A    between atoms: C16_18  and  N2_29 
REMARK    8  A    between atoms: C17_19  and  O1_20 
REMARK    9  A    between atoms: C18_21  and  C19_22 
REMARK   10  A    between atoms: C18_21  and  N2_29 
REMARK   11  A    between atoms: C19_22  and  O2_23 
ROOT
ATOM      1  C1  <0> d          -0.648   2.347  -0.056  0.00  0.00     0.026 A 
ATOM      2  C2  <0> d           0.460   3.168  -0.060  0.00  0.00     0.032 A 
ATOM      3  C3  <0> d           1.732   2.619  -0.185  0.00  0.00     0.046 A 
ATOM      4  C4  <0> d           1.873   1.229  -0.306  0.00  0.00     0.005 A 
ATOM      5  C5  <0> d           0.746   0.411  -0.300  0.00  0.00     0.038 A 
ATOM      6  C6  <0> d          -0.508   0.973  -0.182  0.00  0.00     0.035 A 
ATOM      7 Cl1  <0> d          -1.915  -0.043  -0.183  0.00  0.00    -0.084 Cl
ATOM      8  C7  <0> d           3.319   0.963  -0.419  0.00  0.00     0.005 A 
ATOM      9  C8  <0> d           4.071  -0.201  -0.561  0.00  0.00     0.038 A 
ATOM     10  C9  <0> d           5.446  -0.123  -0.642  0.00  0.00     0.035 A 
ATOM     11  C10 <0> d           6.080   1.110  -0.583  0.00  0.00     0.026 A 
ATOM     12  C11 <0> d           5.347   2.268  -0.443  0.00  0.00     0.032 A 
ATOM     13  C12 <0> d           3.959   2.210  -0.359  0.00  0.00     0.046 A 
ATOM     14  N1  <0> d           2.993   3.190  -0.219  0.00  0.00    -0.343 N 
ATOM     15 Cl2  <0> d           6.386  -1.572  -0.819  0.00  0.00    -0.084 Cl
ENDROOT
BRANCH  14  16
ATOM     16  C13 <0> d           3.265   4.626  -0.120  0.00  0.00     0.163 C 
BRANCH  16  17
ATOM     17  C14 <0> d           3.268   5.242  -1.521  0.00  0.00     0.162 C 
BRANCH  17  18
ATOM     18  C15 <0> d           3.428   6.760  -1.410  0.00  0.00     0.268 C 
BRANCH  18  19
ATOM     19  N2  <0> d           3.330   7.349  -2.762  0.00  0.00    -0.065 N 
ATOM     20  H23 <0> d           3.982   6.860  -3.387  0.00  0.00     0.280 HD
BRANCH  19  21
ATOM     21  C16 <0> d           1.956   7.193  -3.283  0.00  0.00     0.261 C 
BRANCH  21  22
ATOM     22  C17 <0> d           1.970   7.454  -4.790  0.00  0.00     0.192 C 
BRANCH  22  23
ATOM     23  O1  <0> d           2.773   6.465  -5.438  0.00  0.00    -0.399 OA
ATOM     24  H16 <0> d           2.826   6.569  -6.398  0.00  0.00     0.209 HD
ENDBRANCH  22  23
ENDBRANCH  21  22
ENDBRANCH  19  21
BRANCH  19  25
ATOM     25  C18 <0> d           3.693   8.781  -2.716  0.00  0.00     0.261 C 
BRANCH  25  26
ATOM     26  C19 <0> d           5.217   8.899  -2.643  0.00  0.00     0.192 C 
BRANCH  26  27
ATOM     27  O2  <0> d           5.792   8.385  -3.846  0.00  0.00    -0.399 OA
ATOM     28  H21 <0> d           6.758   8.357  -3.839  0.00  0.00     0.209 HD
ENDBRANCH  26  27
ENDBRANCH  25  26
ENDBRANCH  19  25
ENDBRANCH  18  19
ENDBRANCH  17  18
BRANCH  17  29
ATOM     29  O3  <0> d           4.356   4.703  -2.275  0.00  0.00    -0.392 OA
ATOM     30  H22 <0> d           5.225   4.870  -1.887  0.00  0.00     0.210 HD
ENDBRANCH  17  29
ENDBRANCH  16  17
ENDBRANCH  14  16
TORSDOF 11
