REMARK  6 active torsions:
REMARK  status: ('A' for Active; 'I' for Inactive)
REMARK    1  A    between atoms: O1_2  and  C2_3 
REMARK    2  A    between atoms: C2_3  and  C3_4 
REMARK    3  A    between atoms: C3_4  and  N1_5 
REMARK    4  A    between atoms: C5_7  and  C9_12 
REMARK       I    between atoms: C9_12  and  N2_14 
REMARK    5  A    between atoms: N2_14  and  C10_15 
REMARK    6  A    between atoms: C10_15  and  C11_16 
ROOT
ATOM      1  C9  <0> d           2.896  -3.442   2.578  0.00  0.00     0.223 C 
ATOM      2  O3  <0> d           3.533  -2.724   1.837  0.00  0.00    -0.273 OA
ATOM      3  N2  <0> d           3.525  -4.147   3.539  0.00  0.00    -0.356 N 
ATOM      4  H16 <0> d           3.016  -4.722   4.131  0.00  0.00     0.162 HD
ENDROOT
BRANCH   1   5
ATOM      5  C5  <0> d           1.400  -3.546   2.425  0.00  0.00     0.096 C 
ATOM      6  C4  <0> d           0.939  -2.654   1.272  0.00  0.00     0.139 C 
ATOM      7  N1  <0> d          -0.515  -2.565   1.245  0.00  0.00    -0.349 N 
ATOM      8  C8  <0> d          -1.302  -2.854   2.283  0.00  0.00     0.219 C 
ATOM      9  C7  <0> d          -0.785  -3.365   3.597  0.00  0.00     0.104 C 
ATOM     10  O2  <0> d          -2.498  -2.700   2.157  0.00  0.00    -0.273 OA
ATOM     11  C6  <0> d           0.714  -3.076   3.714  0.00  0.00     0.025 C 
BRANCH   7  12
ATOM     12  C3  <0> d          -1.154  -2.126   0.002  0.00  0.00     0.152 C 
BRANCH  12  13
ATOM     13  C2  <0> d          -1.295  -0.603   0.011  0.00  0.00     0.186 C 
BRANCH  13  14
ATOM     14  O1  <0> d           0.002  -0.004   0.002  0.00  0.00    -0.394 OA
ATOM     15  C1  <0> d          -0.017   1.425   0.010  0.00  0.00     0.201 C 
ENDBRANCH  13  14
ENDBRANCH  12  13
ENDBRANCH   7  12
ENDBRANCH   1   5
BRANCH   3  16
ATOM     16  C10 <0> d           4.979  -4.047   3.687  0.00  0.00     0.161 C 
BRANCH  16  17
ATOM     17  C11 <0> d           5.430  -4.927   4.824  0.00  0.00    -0.032 C 
ATOM     18  C16 <0> d           5.419  -4.495   6.163  0.00  0.00    -0.021 C 
ATOM     19  C15 <0> d           6.386  -5.045   7.196  0.00  0.00     0.164 C 
ATOM     20  C17 <0> d           4.639  -3.637   6.840  0.00  0.00     0.029 C 
ATOM     21  C14 <0> d           6.471  -6.528   6.994  0.00  0.00     0.005 C 
ATOM     22  N3  <0> d           5.834  -4.623   8.475  0.00  0.00    -0.288 NA
ATOM     23  C13 <0> d           6.255  -7.030   5.773  0.00  0.00    -0.001 C 
ATOM     24  C12 <0> d           5.886  -6.202   4.629  0.00  0.00     0.009 C 
ATOM     25  C18 <0> d           4.868  -3.792   8.226  0.00  0.00     0.112 C 
ENDBRANCH  16  17
ENDBRANCH   3  16
TORSDOF 6
