REMARK  6 active torsions:
REMARK  status: ('A' for Active; 'I' for Inactive)
REMARK    1  A    between atoms: C2_2  and  O1_3 
REMARK    2  A    between atoms: O1_3  and  C3_4 
REMARK    3  A    between atoms: C5_6  and  C16_20 
REMARK    4  A    between atoms: C8_9  and  O2_10 
REMARK    5  A    between atoms: O2_10  and  C9_11 
REMARK    6  A    between atoms: C9_11  and  C10_13 
ROOT
ATOM      1  C3  <0> d          -0.030   1.394   0.040  0.00  0.00     0.103 A 
ATOM      2  C4  <0> d           1.158   2.108   0.034  0.00  0.00     0.050 A 
ATOM      3  C5  <0> d           2.367   1.438  -0.008  0.00  0.00    -0.013 A 
ATOM      4  C6  <0> d           2.394   0.056  -0.045  0.00  0.00     0.014 A 
ATOM      5  C7  <0> d           1.213  -0.662  -0.039  0.00  0.00     0.041 A 
ATOM      6  C8  <0> d          -0.002   0.003   0.004  0.00  0.00     0.112 A 
ENDROOT
BRANCH   3   7
ATOM      7  C16 <0> d           3.657   2.216  -0.015  0.00  0.00     0.219 C 
ATOM      8  N2  <0> d           3.432   3.511  -0.648  0.00  0.00    -0.332 N 
ATOM      9  C25 <0> d           3.534   3.720  -1.976  0.00  0.00     0.256 C 
ATOM     10  H24 <0> d           3.195   4.263  -0.083  0.00  0.00     0.165 HD
ATOM     11  C18 <0> d           4.142   2.640  -2.787  0.00  0.00     0.073 A 
ATOM     12  O4  <0> d           3.142   4.753  -2.488  0.00  0.00    -0.267 OA
ATOM     13  C17 <0> d           4.687   1.543  -2.102  0.00  0.00     0.088 A 
ATOM     14  C19 <0> d           4.237   2.590  -4.235  0.00  0.00    -0.023 A 
ATOM     15  N1  <0> d           4.684   1.441  -0.735  0.00  0.00    -0.358 N 
ATOM     16  S1  <0> d           5.276   0.512  -3.336  0.00  0.00    -0.074 SA
ATOM     17  H14 <0> d           5.327   0.887  -0.264  0.00  0.00     0.162 HD
ATOM     18  C20 <0> d           4.832   1.488  -4.747  0.00  0.00     0.018 A 
ATOM     19  C21 <0> d           5.053   1.187  -6.196  0.00  0.00     0.281 C 
ATOM     20  N3  <0> d           4.187   2.096  -6.986  0.00  0.00    -0.070 N 
ATOM     21  C22 <0> d           4.382   3.490  -6.537  0.00  0.00     0.239 C 
ATOM     22  C24 <0> d           4.509   1.978  -8.424  0.00  0.00     0.270 C 
ATOM     23  H25 <0> d           3.205   1.833  -6.841  0.00  0.00     0.279 HD
ATOM     24  C23 <0> d           3.721   3.680  -5.169  0.00  0.00     0.068 C 
ENDBRANCH   3   7
BRANCH   1  25
ATOM     25  O1  <0> d          -1.219   2.052   0.076  0.00  0.00    -0.349 OA
BRANCH  25  26
ATOM     26  C2  <0> d          -1.171   3.479   0.113  0.00  0.00     0.171 C 
ATOM     27  C1  <0> d          -2.595   4.037   0.150  0.00  0.00     0.034 C 
ENDBRANCH  25  26
ENDBRANCH   1  25
BRANCH   6  28
ATOM     28  O2  <0> d          -1.165  -0.702   0.009  0.00  0.00    -0.272 OA
BRANCH  28  29
ATOM     29  C9  <0> d          -1.808  -0.830  -1.168  0.00  0.00     0.300 C 
ATOM     30  O3  <0> d          -1.297  -0.412  -2.188  0.00  0.00    -0.259 OA
BRANCH  29  31
ATOM     31  C10 <0> d          -3.134  -1.477  -1.218  0.00  0.00     0.061 A 
ATOM     32  C15 <0> d          -3.804  -1.612  -2.437  0.00  0.00     0.050 A 
ATOM     33  C14 <0> d          -5.044  -2.219  -2.476  0.00  0.00     0.025 A 
ATOM     34 Cl1  <0> d          -3.079  -1.018  -3.899  0.00  0.00    -0.083 Cl
ATOM     35  C13 <0> d          -5.622  -2.692  -1.312  0.00  0.00     0.002 A 
ATOM     36  C12 <0> d          -4.963  -2.562  -0.102  0.00  0.00     0.001 A 
ATOM     37  C11 <0> d          -3.722  -1.963  -0.048  0.00  0.00     0.019 A 
ENDBRANCH  29  31
ENDBRANCH  28  29
ENDBRANCH   6  28
TORSDOF 6
