REMARK  3 active torsions:
REMARK  status: ('A' for Active; 'I' for Inactive)
REMARK    1  A    between atoms: C2_2  and  C3_3 
REMARK    2  A    between atoms: C3_3  and  C8_9 
REMARK       I    between atoms: C8_9  and  N2_11 
REMARK    3  A    between atoms: N2_11  and  C9_12 
ROOT
ATOM      1  C8  <0> d           2.197   0.387  -1.733  0.00  0.00     0.232 C 
ATOM      2  O1  <0> d           3.118  -0.112  -2.344  0.00  0.00    -0.272 OA
ATOM      3  N2  <0> d           2.419   1.435  -0.916  0.00  0.00    -0.324 N 
ATOM      4  H15 <0> d           1.675   1.869  -0.470  0.00  0.00     0.169 HD
ENDROOT
BRANCH   1   5
ATOM      5  C3  <0> d           0.803  -0.167  -1.886  0.00  0.00     0.065 C 
ATOM      6  C7  <0> d           0.785  -1.201  -3.014  0.00  0.00     0.251 C 
ATOM      7  N1  <0> d           1.199  -0.567  -4.271  0.00  0.00    -0.074 N 
ATOM      8  C6  <0> d           0.235   0.476  -4.643  0.00  0.00     0.232 C 
ATOM      9  H12 <0> d           1.238  -1.263  -5.001  0.00  0.00     0.277 HD
ATOM     10  H21 <0> d           2.112  -0.154  -4.154  0.00  0.00     0.277 HD
ATOM     11  C5  <0> d           0.232   1.575  -3.579  0.00  0.00     0.029 C 
ATOM     12  C4  <0> d          -0.164   0.970  -2.229  0.00  0.00     0.022 C 
BRANCH   5  13
ATOM     13  C2  <0> d           0.370  -0.830  -0.577  0.00  0.00     0.016 C 
ATOM     14  C1  <0> d           1.235  -2.065  -0.320  0.00  0.00     0.006 C 
ENDBRANCH   5  13
ENDBRANCH   1   5
BRANCH   3  15
ATOM     15  C9  <0> d           3.724   1.899  -0.712  0.00  0.00     0.070 A 
ATOM     16  C14 <0> d           4.765   0.995  -0.538  0.00  0.00     0.039 A 
ATOM     17  C13 <0> d           6.053   1.456  -0.342  0.00  0.00     0.028 A 
ATOM     18 Br1  <0> d           4.420  -0.864  -0.577  0.00  0.00    -0.049 Br
ATOM     19  C12 <0> d           6.305   2.815  -0.307  0.00  0.00    -0.059 A 
ATOM     20  C11 <0> d           5.271   3.717  -0.474  0.00  0.00     0.028 A 
ATOM     21  C15 <0> d           7.710   3.314  -0.086  0.00  0.00     0.048 C 
ATOM     22  C10 <0> d           3.981   3.264  -0.676  0.00  0.00     0.039 A 
ATOM     23 Br2  <0> d           2.568   4.499  -0.906  0.00  0.00    -0.049 Br
ENDBRANCH   3  15
TORSDOF 3
