REMARK  4 active torsions:
REMARK  status: ('A' for Active; 'I' for Inactive)
REMARK    1  A    between atoms: C3_3  and  N2_11 
REMARK    2  A    between atoms: C4_4  and  N1_8 
REMARK       I    between atoms: N2_11  and  C7_12 
REMARK    3  A    between atoms: C7_12  and  C8_14 
REMARK    4  A    between atoms: C8_14  and  C9_15 
ROOT
ATOM      1  N2  <0> d           3.544   2.080  -0.027  0.00  0.00    -0.325 N 
ATOM      2  C7  <0> d           3.517   3.425  -0.110  0.00  0.00     0.222 C 
ATOM      3  O3  <0> d           2.457   4.013  -0.082  0.00  0.00    -0.273 OA
ATOM      4  H4  <0> d           4.394   1.613   0.016  0.00  0.00     0.169 HD
ENDROOT
BRANCH   1   5
ATOM      5  C3  <0> d           2.346   1.356  -0.003  0.00  0.00     0.068 A 
ATOM      6  C2  <0> d           1.233   1.876   0.644  0.00  0.00     0.033 A 
ATOM      7  C1  <0> d           0.052   1.160   0.667  0.00  0.00     0.021 A 
ATOM      8  C6  <0> d          -0.022  -0.074   0.045  0.00  0.00     0.013 A 
ATOM      9  C5  <0> d           1.086  -0.594  -0.601  0.00  0.00     0.057 A 
ATOM     10 Br1  <0> d          -1.641  -1.051   0.078  0.00  0.00    -0.051 Br
ATOM     11  C4  <0> d           2.269   0.118  -0.626  0.00  0.00     0.130 A 
BRANCH  11  12
ATOM     12  N1  <0> d           3.454  -0.439  -1.317  0.00  0.00    -0.113 N 
ATOM     13  O1  <0> d           3.362  -1.474  -1.935  0.00  0.00    -0.532 OA
ATOM     14  O2  <0> d           4.513   0.142  -1.264  0.00  0.00    -0.532 OA
ENDBRANCH  11  12
ENDBRANCH   1   5
BRANCH   2  15
ATOM     15  C8  <0> d           4.805   4.198  -0.237  0.00  0.00     0.108 C 
BRANCH  15  16
ATOM     16  C9  <0> d           4.496   5.694  -0.312  0.00  0.00    -0.003 C 
ATOM     17  C13 <0> d           5.806   6.488  -0.316  0.00  0.00     0.032 C 
ATOM     18  C12 <0> d           5.492   7.978  -0.471  0.00  0.00     0.232 C 
ATOM     19  N3  <0> d           4.779   8.202  -1.734  0.00  0.00    -0.075 N 
ATOM     20  C11 <0> d           3.489   7.502  -1.709  0.00  0.00     0.232 C 
ATOM     21  H12 <0> d           5.335   7.853  -2.501  0.00  0.00     0.277 HD
ATOM     22  H17 <0> d           4.621   9.191  -1.859  0.00  0.00     0.277 HD
ATOM     23  C10 <0> d           3.725   5.994  -1.601  0.00  0.00     0.032 C 
ENDBRANCH  15  16
ENDBRANCH   2  15
TORSDOF 4
