REMARK  3 active torsions:
REMARK  status: ('A' for Active; 'I' for Inactive)
REMARK    1  A    between atoms: N1_2  and  C3_4 
REMARK       I    between atoms: N2_12  and  C12_14 
REMARK    2  A    between atoms: C12_14  and  C13_16 
REMARK    3  A    between atoms: C13_16  and  N3_17 
ROOT
ATOM      1  C3  <0> d           0.673  -0.488  -1.235  0.00  0.00     0.210 C 
ATOM      2  C4  <0> d           0.721  -2.016  -1.222  0.00  0.00     0.075 C 
ATOM      3  C5  <0> d           1.623  -2.525  -2.315  0.00  0.00    -0.029 A 
ATOM      4  C6  <0> d           1.476  -3.831  -2.752  0.00  0.00     0.009 A 
ATOM      5  C7  <0> d           2.291  -4.328  -3.751  0.00  0.00     0.001 A 
ATOM      6  C8  <0> d           3.261  -3.523  -4.321  0.00  0.00     0.002 A 
ATOM      7  C9  <0> d           3.414  -2.221  -3.891  0.00  0.00     0.030 A 
ATOM      8  C10 <0> d           2.593  -1.718  -2.887  0.00  0.00     0.043 A 
ATOM      9  N2  <0> d           2.760  -0.390  -2.471  0.00  0.00    -0.314 N 
ATOM     10  C11 <0> d           2.108   0.055  -1.231  0.00  0.00     0.165 C 
ATOM     11  C12 <0> d           3.504   0.468  -3.197  0.00  0.00     0.242 C 
ATOM     12  O1  <0> d           4.090   0.076  -4.184  0.00  0.00    -0.271 OA
ENDROOT
BRANCH  11  13
ATOM     13  C13 <0> d           3.607   1.913  -2.783  0.00  0.00     0.240 C 
BRANCH  13  14
ATOM     14  N3  <0> d           4.368   2.657  -3.791  0.00  0.00    -0.257 N 
ATOM     15  C21 <0> d           3.718   3.226  -4.818  0.00  0.00     0.330 A 
ATOM     16  N4  <0> d           4.346   3.928  -5.777  0.00  0.00    -0.307 N 
ATOM     17  O3  <0> d           2.510   3.107  -4.880  0.00  0.00    -0.246 OA
ATOM     18  C20 <0> d           5.724   4.086  -5.751  0.00  0.00     0.052 A 
ATOM     19  H2  <0> d           3.831   4.323  -6.498  0.00  0.00     0.170 HD
ATOM     20  C15 <0> d           6.452   3.504  -4.698  0.00  0.00     0.059 A 
ATOM     21  C19 <0> d           6.392   4.801  -6.733  0.00  0.00     0.030 A 
ATOM     22  C14 <0> d           5.710   2.751  -3.671  0.00  0.00     0.264 A 
ATOM     23  C16 <0> d           7.836   3.646  -4.645  0.00  0.00     0.019 A 
ATOM     24  O2  <0> d           6.291   2.228  -2.740  0.00  0.00    -0.267 OA
ATOM     25  C17 <0> d           8.483   4.361  -5.631  0.00  0.00     0.001 A 
ATOM     26  C18 <0> d           7.765   4.935  -6.669  0.00  0.00     0.002 A 
ENDBRANCH  13  14
ENDBRANCH  11  13
BRANCH   1  27
ATOM     27  N1  <0> d          -0.038  -0.008  -0.043  0.00  0.00    -0.073 N 
ATOM     28  C1  <0> d          -0.076   1.460  -0.054  0.00  0.00     0.269 C 
ATOM     29  C2  <0> d          -1.409  -0.534  -0.045  0.00  0.00     0.269 C 
ATOM     30  H23 <0> d           0.443  -0.325   0.786  0.00  0.00     0.279 HD
ENDBRANCH   1  27
TORSDOF 3
