REMARK  3 active torsions:
REMARK  status: ('A' for Active; 'I' for Inactive)
REMARK    1  A    between atoms: C3_3  and  N2_14 
REMARK    2  A    between atoms: C4_4  and  S1_7 
REMARK    3  A    between atoms: S1_7  and  C6_8 
ROOT
ATOM      1  C1  <0> d          -0.017   1.375   0.010  0.00  0.00     0.022 A 
ATOM      2  C2  <0> d           1.184   2.074   0.002  0.00  0.00     0.033 A 
ATOM      3  C3  <0> d           2.369   1.351  -0.013  0.00  0.00     0.061 A 
ATOM      4  C4  <0> d           2.310  -0.046  -0.020  0.00  0.00     0.120 A 
ATOM      5  N1  <0> d           1.143  -0.669  -0.012  0.00  0.00    -0.252 NA
ATOM      6  C5  <0> d           0.002  -0.004   0.002  0.00  0.00     0.118 A 
ENDROOT
BRANCH   4   7
ATOM      7  S1  <0> d           3.802  -0.984  -0.040  0.00  0.00    -0.093 SA
BRANCH   7   8
ATOM      8  C6  <0> d           3.236  -2.707  -0.044  0.00  0.00     0.155 C 
ATOM      9  C9  <0> d           2.560  -3.042  -1.359  0.00  0.00     0.273 C 
ATOM     10  O1  <0> d           3.295  -3.976  -2.001  0.00  0.00    -0.321 OA
ATOM     11  O2  <0> d           1.532  -2.553  -1.765  0.00  0.00    -0.264 OA
ATOM     12  C8  <0> d           4.003  -4.753  -1.012  0.00  0.00     0.180 C 
ATOM     13  C7  <0> d           4.445  -3.676   0.016  0.00  0.00     0.052 C 
ENDBRANCH   7   8
ENDBRANCH   4   7
BRANCH   3  14
ATOM     14  N2  <0> d           3.604   2.011  -0.022  0.00  0.00    -0.397 N 
ATOM     15  H9  <0> d           3.636   2.980  -0.017  0.00  0.00     0.156 HD
ATOM     16  H10 <0> d           4.427   1.498  -0.033  0.00  0.00     0.156 HD
ENDBRANCH   3  14
TORSDOF 3
