REMARK  3 active torsions:
REMARK  status: ('A' for Active; 'I' for Inactive)
REMARK    1  A    between atoms: C3_3  and  N1_9 
REMARK    2  A    between atoms: N1_9  and  N2_10 
REMARK    3  A    between atoms: N2_10  and  C7_11 
ROOT
ATOM      1  N1  <0> d          -2.315  -0.382   0.023  0.00  0.00    -0.274 N 
ATOM      2  H4  <0> d          -2.513   0.700   0.031  0.00  0.00     0.189 HD
ENDROOT
BRANCH   1   3
ATOM      3  C3  <0> d          -3.379  -1.287   0.029  0.00  0.00     0.088 A 
ATOM      4  C2  <0> d          -3.130  -2.653   0.013  0.00  0.00     0.037 A 
ATOM      5  C1  <0> d          -4.184  -3.546   0.024  0.00  0.00     0.045 A 
ATOM      6  C6  <0> d          -5.488  -3.081   0.039  0.00  0.00     0.119 A 
ATOM      7  C5  <0> d          -5.741  -1.719   0.049  0.00  0.00     0.086 A 
ATOM      8  F1  <0> d          -6.516  -3.958   0.043  0.00  0.00    -0.206 F 
ATOM      9  C4  <0> d          -4.690  -0.821   0.044  0.00  0.00     0.147 A 
ATOM     10  F2  <0> d          -4.936   0.507   0.055  0.00  0.00    -0.204 F 
ENDBRANCH   1   3
BRANCH   1  11
ATOM     11  N2  <0> d          -0.995  -0.852   0.007  0.00  0.00    -0.161 NA
BRANCH  11  12
ATOM     12  C7  <0> d           0.002  -0.004   0.002  0.00  0.00     0.188 A 
ATOM     13  S2  <0> d           1.762  -0.315  -0.017  0.00  0.00    -0.033 SA
ATOM     14  C9  <0> d           2.311   1.384  -0.013  0.00  0.00     0.147 A 
ATOM     15  N3  <0> d           1.156   2.081   0.002  0.00  0.00    -0.306 N 
ATOM     16  S1  <0> d           3.914   1.984  -0.025  0.00  0.00    -0.052 SA
ATOM     17  C8  <0> d          -0.018   1.472   0.010  0.00  0.00     0.284 A 
ATOM     18  H5  <0> d           1.206   3.180   0.008  0.00  0.00     0.170 HD
ATOM     19  O1  <0> d          -1.062   2.097   0.018  0.00  0.00    -0.265 OA
ENDBRANCH  11  12
ENDBRANCH   1  11
TORSDOF 3
