REMARK  6 active torsions:
REMARK  status: ('A' for Active; 'I' for Inactive)
REMARK    1  A    between atoms: C14_15  and  O2_26 
REMARK    2  A    between atoms: N2_19  and  C18_20 
REMARK    3  A    between atoms: C18_20  and  C19_21 
REMARK    4  A    between atoms: C19_21  and  C20_22 
REMARK    5  A    between atoms: C19_21  and  O1_25 
REMARK    6  A    between atoms: C20_22  and  N4_37 
ROOT
ATOM      1  C1  <0> d           5.416   4.725  -0.346  0.00  0.00     0.156 C 
ATOM      2  N1  <0> d           5.567   3.270  -0.432  0.00  0.00    -0.348 N 
ATOM      3  C2  <0> d           6.687   2.620  -0.916  0.00  0.00     0.045 A 
ATOM      4  C3  <0> d           7.897   3.086  -1.420  0.00  0.00     0.030 A 
ATOM      5  C4  <0> d           8.859   2.194  -1.842  0.00  0.00     0.002 A 
ATOM      6  C5  <0> d           8.634   0.827  -1.768  0.00  0.00     0.001 A 
ATOM      7  C6  <0> d           7.443   0.345  -1.271  0.00  0.00     0.014 A 
ATOM      8  C7  <0> d           6.461   1.237  -0.842  0.00  0.00     0.004 A 
ATOM      9  C8  <0> d           5.113   1.062  -0.275  0.00  0.00     0.022 A 
ATOM     10  C9  <0> d           4.610   2.353  -0.042  0.00  0.00     0.075 A 
ATOM     11  C10 <0> d           3.329   2.515   0.502  0.00  0.00     0.075 A 
ATOM     12  C11 <0> d           2.553   1.387   0.812  0.00  0.00     0.022 A 
ATOM     13  C12 <0> d           1.282   1.892   1.357  0.00  0.00     0.007 A 
ATOM     14  C13 <0> d           0.129   1.268   1.834  0.00  0.00     0.051 A 
ATOM     15  C14 <0> d          -0.928   2.035   2.287  0.00  0.00     0.069 A 
ATOM     16  C15 <0> d          -0.838   3.423   2.276  0.00  0.00     0.039 A 
ATOM     17  C16 <0> d           0.297   4.048   1.807  0.00  0.00     0.033 A 
ATOM     18  C17 <0> d           1.369   3.293   1.342  0.00  0.00     0.046 A 
ATOM     19  N2  <0> d           2.604   3.646   0.826  0.00  0.00    -0.341 N 
ATOM     20  C24 <0> d           3.054   0.100   0.580  0.00  0.00     0.062 A 
ATOM     21  C25 <0> d           4.339  -0.063   0.034  0.00  0.00     0.062 A 
ATOM     22  C26 <0> d           4.549  -1.517  -0.078  0.00  0.00     0.260 A 
ATOM     23  O3  <0> d           5.548  -2.058  -0.509  0.00  0.00    -0.267 OA
ATOM     24  N3  <0> d           3.450  -2.146   0.376  0.00  0.00    -0.289 N 
ATOM     25  C27 <0> d           2.523  -1.260   0.782  0.00  0.00     0.260 A 
ATOM     26  O4  <0> d           1.431  -1.535   1.240  0.00  0.00    -0.267 OA
ATOM     27  H26 <0> d           3.341  -3.109   0.407  0.00  0.00     0.172 HD
ENDROOT
BRANCH  19  28
ATOM     28  C18 <0> d           3.075   5.022   0.649  0.00  0.00     0.163 C 
BRANCH  28  29
ATOM     29  C19 <0> d           2.698   5.513  -0.750  0.00  0.00     0.162 C 
BRANCH  29  30
ATOM     30  C20 <0> d           3.296   6.902  -0.981  0.00  0.00     0.267 C 
BRANCH  30  31
ATOM     31  N4  <0> d           3.015   7.318  -2.371  0.00  0.00    -0.076 N 
ATOM     32  C21 <0> d           3.414   8.728  -2.568  0.00  0.00     0.269 C 
ATOM     33  C22 <0> d           3.748   6.449  -3.316  0.00  0.00     0.269 C 
ATOM     34  H27 <0> d           2.008   7.229  -2.549  0.00  0.00     0.279 HD
ENDBRANCH  30  31
ENDBRANCH  29  30
BRANCH  29  35
ATOM     35  O1  <0> d           1.275   5.583  -0.863  0.00  0.00    -0.392 OA
ATOM     36  H22 <0> d           0.859   6.182  -0.228  0.00  0.00     0.210 HD
ENDBRANCH  29  35
ENDBRANCH  28  29
ENDBRANCH  19  28
BRANCH  15  37
ATOM     37  O2  <0> d          -2.056   1.431   2.748  0.00  0.00    -0.356 OA
ATOM     38  C23 <0> d          -3.109   2.284   3.200  0.00  0.00     0.210 C 
ENDBRANCH  15  37
TORSDOF 6
