REMARK  8 active torsions:
REMARK  status: ('A' for Active; 'I' for Inactive)
REMARK       I    between atoms: C2_2  and  N1_4 
REMARK    1  A    between atoms: N1_4  and  C3_5 
REMARK    2  A    between atoms: C3_5  and  C4_6 
REMARK    3  A    between atoms: C3_5  and  N2_12 
REMARK    4  A    between atoms: C4_6  and  C5_7 
REMARK    5  A    between atoms: C4_6  and  O4_11 
REMARK    6  A    between atoms: C5_7  and  C6_8 
REMARK    7  A    between atoms: C5_7  and  O3_10 
REMARK    8  A    between atoms: C6_8  and  O2_9 
REMARK       I    between atoms: N2_12  and  C7_13 
ROOT
ATOM      1  C3  <0> d          -1.136  -2.159   0.001  0.00  0.00     0.218 C 
ENDROOT
BRANCH   1   2
ATOM      2  N1  <0> d          -1.156  -0.694   0.009  0.00  0.00    -0.338 N 
ATOM      3  C2  <0> d           0.002  -0.004   0.002  0.00  0.00     0.215 C 
ATOM      4  C1  <0> d          -0.018   1.503   0.010  0.00  0.00     0.117 C 
ATOM      5  O1  <0> d           1.060  -0.596  -0.011  0.00  0.00    -0.274 OA
ATOM      6  H6  <0> d          -2.002  -0.220   0.020  0.00  0.00     0.164 HD
ENDBRANCH   1   2
BRANCH   1   7
ATOM      7  C4  <0> d          -2.139  -2.688   1.028  0.00  0.00     0.191 C 
BRANCH   7   8
ATOM      8  C5  <0> d          -1.760  -2.180   2.421  0.00  0.00     0.174 C 
BRANCH   8   9
ATOM      9  C6  <0> d          -2.830  -2.605   3.428  0.00  0.00     0.198 C 
BRANCH   9  10
ATOM     10  O2  <0> d          -2.419  -2.233   4.745  0.00  0.00    -0.398 OA
ATOM     11  H10 <0> d          -3.052  -2.472   5.436  0.00  0.00     0.209 HD
ENDBRANCH   9  10
ENDBRANCH   8   9
BRANCH   8  12
ATOM     12  O3  <0> d          -1.665  -0.755   2.399  0.00  0.00    -0.391 OA
ATOM     13  H11 <0> d          -2.486  -0.310   2.147  0.00  0.00     0.210 HD
ENDBRANCH   8  12
ENDBRANCH   7   8
BRANCH   7  14
ATOM     14  O4  <0> d          -3.450  -2.228   0.694  0.00  0.00    -0.389 OA
ATOM     15  H12 <0> d          -3.537  -1.264   0.681  0.00  0.00     0.210 HD
ENDBRANCH   7  14
ENDBRANCH   1   7
BRANCH   1  16
ATOM     16  N2  <0> d          -1.500  -2.645  -1.332  0.00  0.00    -0.338 N 
ATOM     17  C7  <0> d          -0.550  -3.137  -2.152  0.00  0.00     0.215 C 
ATOM     18  O5  <0> d           0.606  -3.177  -1.786  0.00  0.00    -0.274 OA
ATOM     19  C8  <0> d          -0.924  -3.637  -3.524  0.00  0.00     0.117 C 
ATOM     20  H13 <0> d          -2.424  -2.612  -1.625  0.00  0.00     0.164 HD
ENDBRANCH   1  16
TORSDOF 8
