REMARK  10 active torsions:
REMARK  status: ('A' for Active; 'I' for Inactive)
REMARK    1  A    between atoms: C2_2  and  C3_3 
REMARK    2  A    between atoms: C3_3  and  N1_4 
REMARK    3  A    between atoms: N1_4  and  C4_5 
REMARK       I    between atoms: N1_4  and  C18_24 
REMARK    4  A    between atoms: C4_5  and  C5_6 
REMARK    5  A    between atoms: C4_5  and  C11_15 
REMARK    6  A    between atoms: C6_7  and  O3_14 
REMARK    7  A    between atoms: C8_9  and  O2_13 
REMARK    8  A    between atoms: C10_11  and  O1_12 
REMARK       I    between atoms: C11_15  and  N2_17 
REMARK    9  A    between atoms: N2_17  and  C12_18 
REMARK   10  A    between atoms: C18_24  and  C19_26 
ROOT
ATOM      1  C4  <0> d          -0.587  -2.378  -2.200  0.00  0.00     0.218 C 
ENDROOT
BRANCH   1   2
ATOM      2  N1  <0> d           0.342  -1.536  -1.443  0.00  0.00    -0.331 N 
ATOM      3  C18 <0> d           0.389  -0.209  -1.673  0.00  0.00     0.244 C 
ATOM      4  O5  <0> d          -0.307   0.283  -2.541  0.00  0.00    -0.268 OA
BRANCH   2   5
ATOM      5  C3  <0> d           1.221  -2.136  -0.436  0.00  0.00     0.127 C 
BRANCH   5   6
ATOM      6  C2  <0> d           2.586  -2.430  -1.061  0.00  0.00     0.015 C 
ATOM      7  C1  <0> d           3.542  -2.942   0.019  0.00  0.00     0.006 C 
ENDBRANCH   5   6
ENDBRANCH   2   5
BRANCH   3   8
ATOM      8  C19 <0> d           1.282   0.645  -0.875  0.00  0.00     0.076 C 
ATOM      9  C20 <0> d           1.328   1.955  -1.102  0.00  0.00    -0.082 C 
ATOM     10  C21 <0> d           0.465   2.564  -2.178  0.00  0.00     0.043 C 
ATOM     11  C22 <0> d           2.242   2.830  -0.284  0.00  0.00     0.043 C 
ENDBRANCH   3   8
ENDBRANCH   1   2
BRANCH   1  12
ATOM     12  C5  <0> d          -1.920  -2.411  -1.499  0.00  0.00     0.040 A 
ATOM     13  C10 <0> d          -2.259  -1.405  -0.607  0.00  0.00     0.080 A 
ATOM     14  C9  <0> d          -3.488  -1.433   0.035  0.00  0.00     0.073 A 
ATOM     15  C8  <0> d          -4.375  -2.471  -0.209  0.00  0.00     0.071 A 
ATOM     16  C7  <0> d          -4.033  -3.480  -1.097  0.00  0.00     0.073 A 
ATOM     17  C6  <0> d          -2.806  -3.450  -1.742  0.00  0.00     0.080 A 
BRANCH  13  18
ATOM     18  O1  <0> d          -1.389  -0.390  -0.365  0.00  0.00    -0.360 OA
ATOM     19  H11 <0> d          -1.430   0.326  -1.013  0.00  0.00     0.217 HD
ENDBRANCH  13  18
BRANCH  15  20
ATOM     20  O2  <0> d          -5.577  -2.500   0.423  0.00  0.00    -0.361 OA
ATOM     21  H12 <0> d          -5.567  -2.971   1.268  0.00  0.00     0.217 HD
ENDBRANCH  15  20
BRANCH  17  22
ATOM     22  O3  <0> d          -2.472  -4.439  -2.613  0.00  0.00    -0.360 OA
ATOM     23  H13 <0> d          -2.085  -5.219  -2.192  0.00  0.00     0.217 HD
ENDBRANCH  17  22
ENDBRANCH   1  12
BRANCH   1  24
ATOM     24  C11 <0> d          -0.761  -1.814  -3.587  0.00  0.00     0.245 C 
ATOM     25  O4  <0> d           0.126  -1.159  -4.091  0.00  0.00    -0.271 OA
ATOM     26  N2  <0> d          -1.904  -2.036  -4.266  0.00  0.00    -0.354 N 
ATOM     27  H14 <0> d          -2.636  -2.512  -3.842  0.00  0.00     0.162 HD
BRANCH  26  28
ATOM     28  C12 <0> d          -2.042  -1.560  -5.644  0.00  0.00     0.084 C 
ATOM     29  C17 <0> d          -3.074  -2.417  -6.380  0.00  0.00     0.025 C 
ATOM     30  C16 <0> d          -3.217  -1.919  -7.819  0.00  0.00     0.002 C 
ATOM     31  C15 <0> d          -3.679  -0.460  -7.811  0.00  0.00     0.000 C 
ATOM     32  C14 <0> d          -2.647   0.397  -7.075  0.00  0.00     0.002 C 
ATOM     33  C13 <0> d          -2.503  -0.101  -5.636  0.00  0.00     0.025 C 
ENDBRANCH  26  28
ENDBRANCH   1  24
TORSDOF 10
