REMARK  7 active torsions:
REMARK  status: ('A' for Active; 'I' for Inactive)
REMARK    1  A    between atoms: C2_2  and  N3_28 
REMARK    2  A    between atoms: C3_3  and  C4_4 
REMARK    3  A    between atoms: C3_3  and  N3_28 
REMARK       I    between atoms: C4_4  and  N1_6 
REMARK    4  A    between atoms: N1_6  and  C5_7 
REMARK    5  A    between atoms: C12_14  and  C13_15 
REMARK    6  A    between atoms: C12_14  and  N3_28 
REMARK       I    between atoms: C13_15  and  N2_17 
REMARK    7  A    between atoms: N2_17  and  C14_18 
ROOT
ATOM      1  N3  <0> d           2.430   0.538   0.559  0.00  0.00    -0.055 N 
ATOM      2  H22 <0> d           1.877  -0.152   0.038  0.00  0.00     0.281 HD
ENDROOT
BRANCH   1   3
ATOM      3  C2  <0> d           2.827  -0.046   1.857  0.00  0.00     0.231 C 
ATOM      4  C1  <0> d           1.637  -0.819   2.431  0.00  0.00     0.034 C 
ENDBRANCH   1   3
BRANCH   1   5
ATOM      5  C3  <0> d           1.607   1.746   0.779  0.00  0.00     0.338 C 
BRANCH   5   6
ATOM      6  C4  <0> d           0.840   2.043  -0.484  0.00  0.00     0.248 C 
ATOM      7  O1  <0> d           1.009   1.361  -1.472  0.00  0.00    -0.271 OA
ATOM      8  N1  <0> d          -0.031   3.071  -0.516  0.00  0.00    -0.325 N 
ATOM      9  H8  <0> d          -0.123   3.654   0.254  0.00  0.00     0.169 HD
BRANCH   8  10
ATOM     10  C5  <0> d          -0.803   3.299  -1.661  0.00  0.00     0.040 A 
ATOM     11  C10 <0> d          -2.057   3.883  -1.550  0.00  0.00    -0.035 A 
ATOM     12  C9  <0> d          -2.816   4.107  -2.683  0.00  0.00     0.009 A 
ATOM     13  C11 <0> d          -2.590   4.274  -0.196  0.00  0.00     0.050 C 
ATOM     14  C8  <0> d          -2.328   3.749  -3.926  0.00  0.00     0.001 A 
ATOM     15  C7  <0> d          -1.078   3.167  -4.040  0.00  0.00     0.002 A 
ATOM     16  C6  <0> d          -0.313   2.945  -2.912  0.00  0.00     0.030 A 
ENDBRANCH   8  10
ENDBRANCH   5   6
ENDBRANCH   1   5
BRANCH   1  17
ATOM     17  C12 <0> d           3.633   0.882  -0.228  0.00  0.00     0.338 C 
BRANCH  17  18
ATOM     18  C13 <0> d           4.335  -0.391  -0.625  0.00  0.00     0.248 C 
ATOM     19  O2  <0> d           3.890  -1.463  -0.274  0.00  0.00    -0.271 OA
ATOM     20  N2  <0> d           5.457  -0.338  -1.370  0.00  0.00    -0.321 N 
ATOM     21  H18 <0> d           5.827   0.521  -1.628  0.00  0.00     0.169 HD
BRANCH  20  22
ATOM     22  C14 <0> d           6.089  -1.523  -1.770  0.00  0.00     0.112 A 
ATOM     23  C19 <0> d           5.330  -2.635  -2.114  0.00  0.00     0.146 A 
ATOM     24  C18 <0> d           5.958  -3.803  -2.509  0.00  0.00     0.045 A 
ATOM     25  F1  <0> d           3.982  -2.576  -2.063  0.00  0.00    -0.204 F 
ATOM     26  C17 <0> d           7.338  -3.865  -2.562  0.00  0.00     0.006 A 
ATOM     27  C16 <0> d           8.097  -2.760  -2.221  0.00  0.00     0.045 A 
ATOM     28  C15 <0> d           7.476  -1.587  -1.830  0.00  0.00     0.146 A 
ATOM     29  F2  <0> d           8.218  -0.506  -1.502  0.00  0.00    -0.204 F 
ENDBRANCH  20  22
ENDBRANCH  17  18
ENDBRANCH   1  17
TORSDOF 7
