REMARK  6 active torsions:
REMARK  status: ('A' for Active; 'I' for Inactive)
REMARK    1  A    between atoms: N2_7  and  C6_8 
REMARK    2  A    between atoms: C6_8  and  C8_10 
REMARK       I    between atoms: C8_10  and  N3_12 
REMARK    3  A    between atoms: N3_12  and  C9_13 
REMARK    4  A    between atoms: C9_13  and  C10_14 
REMARK    5  A    between atoms: C10_14  and  C11_15 
REMARK    6  A    between atoms: C11_15  and  N4_16 
ROOT
ATOM      1  C8  <0> d          -1.251   0.273  -4.269  0.00  0.00     0.242 C 
ATOM      2  O1  <0> d          -2.036  -0.644  -4.155  0.00  0.00    -0.271 OA
ATOM      3  N3  <0> d          -1.482   1.249  -5.169  0.00  0.00    -0.359 N 
ATOM      4  H9  <0> d          -0.853   1.983  -5.260  0.00  0.00     0.162 HD
ENDROOT
BRANCH   1   5
ATOM      5  C6  <0> d          -0.017   0.320  -3.405  0.00  0.00     0.198 C 
ATOM      6  C7  <0> d           1.228   0.306  -4.293  0.00  0.00     0.044 C 
BRANCH   5   7
ATOM      7  N2  <0> d           0.002  -0.845  -2.517  0.00  0.00    -0.252 N 
ATOM      8  C3  <0> d           0.008  -0.815  -1.145  0.00  0.00     0.109 A 
ATOM      9  C2  <0> d           0.002  -0.004   0.002  0.00  0.00     0.081 A 
ATOM     10  C4  <0> d           0.028  -2.141  -0.715  0.00  0.00     0.102 A 
ATOM     11  C1  <0> d          -0.018   1.503   0.010  0.00  0.00     0.075 C 
ATOM     12  N7  <0> d           0.023  -0.769   1.059  0.00  0.00    -0.175 NA
ATOM     13  N6  <0> d           0.033  -2.111   0.658  0.00  0.00    -0.270 N 
ATOM     14  C15 <0> d           0.053  -3.276   1.545  0.00  0.00     0.180 C 
ATOM     15  C5  <0> d           0.034  -2.952  -1.861  0.00  0.00     0.172 A 
ATOM     16  N1  <0> d           0.019  -2.187  -2.918  0.00  0.00    -0.181 NA
ENDBRANCH   5   7
ENDBRANCH   1   5
BRANCH   3  17
ATOM     17  C9  <0> d          -2.681   1.203  -6.009  0.00  0.00     0.124 C 
BRANCH  17  18
ATOM     18  C10 <0> d          -2.701   2.420  -6.936  0.00  0.00     0.040 C 
BRANCH  18  19
ATOM     19  C11 <0> d          -3.954   2.371  -7.814  0.00  0.00     0.130 C 
BRANCH  19  20
ATOM     20  N4  <0> d          -3.974   3.537  -8.701  0.00  0.00    -0.352 N 
ATOM     21  C14 <0> d          -3.436   3.611  -9.938  0.00  0.00     0.182 A 
ATOM     22  N5  <0> d          -3.655   4.805 -10.418  0.00  0.00    -0.361 N 
ATOM     23  C13 <0> d          -4.326   5.530  -9.511  0.00  0.00     0.106 A 
ATOM     24  H22 <0> d          -3.374   5.119 -11.291  0.00  0.00     0.166 HD
ATOM     25  C12 <0> d          -4.535   4.755  -8.430  0.00  0.00     0.108 A 
ENDBRANCH  19  20
ENDBRANCH  18  19
ENDBRANCH  17  18
ENDBRANCH   3  17
TORSDOF 6
