REMARK  5 active torsions:
REMARK  status: ('A' for Active; 'I' for Inactive)
REMARK    1  A    between atoms: C5_5  and  S1_8 
REMARK    2  A    between atoms: S1_8  and  N1_11 
REMARK    3  A    between atoms: N1_11  and  N2_12 
REMARK    4  A    between atoms: C9_14  and  C17_23 
REMARK       I    between atoms: C17_23  and  N3_25 
REMARK    5  A    between atoms: N3_25  and  C18_26 
ROOT
ATOM      1  N2  <0> d          -2.776   1.267   2.931  0.00  0.00    -0.269 N 
ATOM      2  C8  <0> d          -3.527   1.238   3.996  0.00  0.00     0.179 C 
ATOM      3  C9  <0> d          -4.168   2.469   4.512  0.00  0.00     0.085 C 
ATOM      4  C10 <0> d          -5.333   2.314   5.230  0.00  0.00     0.035 C 
ATOM      5  C11 <0> d          -5.833   0.949   5.431  0.00  0.00    -0.001 A 
ATOM      6  C12 <0> d          -7.128   0.727   5.910  0.00  0.00     0.014 A 
ATOM      7  C13 <0> d          -7.577  -0.565   6.085  0.00  0.00     0.001 A 
ATOM      8  C14 <0> d          -6.754  -1.639   5.788  0.00  0.00     0.003 A 
ATOM      9  C15 <0> d          -5.472  -1.434   5.315  0.00  0.00     0.038 A 
ATOM     10  C16 <0> d          -5.001  -0.144   5.134  0.00  0.00     0.088 A 
ATOM     11  O3  <0> d          -3.742   0.072   4.673  0.00  0.00    -0.291 OA
ATOM     12  H18 <0> d          -2.546   2.227   2.446  0.00  0.00     0.190 HD
ENDROOT
BRANCH   1  13
ATOM     13  N1  <0> d          -2.261   0.075   2.404  0.00  0.00    -0.221 N 
ATOM     14  H8  <0> d          -2.519  -0.777   2.789  0.00  0.00     0.200 HD
BRANCH  13  15
ATOM     15  S1  <0> d          -1.212   0.122   1.123  0.00  0.00     0.276 S 
ATOM     16  O1  <0> d          -1.846   0.884   0.106  0.00  0.00    -0.199 OA
ATOM     17  O2  <0> d          -0.770  -1.212   0.912  0.00  0.00    -0.199 OA
BRANCH  15  18
ATOM     18  C5  <0> d           0.199   1.044   1.638  0.00  0.00     0.081 A 
ATOM     19  C4  <0> d           1.212   0.421   2.343  0.00  0.00     0.026 A 
ATOM     20  C3  <0> d           2.321   1.143   2.743  0.00  0.00     0.008 A 
ATOM     21  C2  <0> d           2.415   2.489   2.441  0.00  0.00    -0.062 A 
ATOM     22  C1  <0> d           3.624   3.276   2.876  0.00  0.00     0.048 C 
ATOM     23  C7  <0> d           1.399   3.112   1.741  0.00  0.00     0.008 A 
ATOM     24  C6  <0> d           0.290   2.391   1.342  0.00  0.00     0.026 A 
ENDBRANCH  15  18
ENDBRANCH  13  15
ENDBRANCH   1  13
BRANCH   3  25
ATOM     25  C17 <0> d          -3.587   3.798   4.264  0.00  0.00     0.260 C 
ATOM     26  O4  <0> d          -4.046   4.777   4.823  0.00  0.00    -0.267 OA
ATOM     27  N3  <0> d          -2.546   3.932   3.418  0.00  0.00    -0.323 N 
ATOM     28  H14 <0> d          -2.185   3.062   2.849  0.00  0.00     0.169 HD
BRANCH  27  29
ATOM     29  C18 <0> d          -1.926   5.176   3.263  0.00  0.00     0.038 A 
ATOM     30  C23 <0> d          -1.842   6.050   4.339  0.00  0.00     0.075 A 
ATOM     31  C22 <0> d          -1.223   7.277   4.185  0.00  0.00     0.157 A 
ATOM     32  C21 <0> d          -0.697   7.639   2.954  0.00  0.00     0.154 A 
ATOM     33  F1  <0> d          -1.136   8.126   5.232  0.00  0.00    -0.203 F 
ATOM     34  C20 <0> d          -0.785   6.770   1.880  0.00  0.00     0.048 A 
ATOM     35  F2  <0> d          -0.097   8.840   2.803  0.00  0.00    -0.203 F 
ATOM     36  C19 <0> d          -1.398   5.542   2.032  0.00  0.00     0.032 A 
ENDBRANCH  27  29
ENDBRANCH   3  25
TORSDOF 5
