REMARK  3 active torsions:
REMARK  status: ('A' for Active; 'I' for Inactive)
REMARK    1  A    between atoms: C2_2  and  N1_3 
REMARK    2  A    between atoms: C6_8  and  C7_10 
REMARK       I    between atoms: C7_10  and  N3_12 
REMARK    3  A    between atoms: N3_12  and  C8_13 
ROOT
ATOM      1  N1  <0> d          -0.698   1.558   1.213  0.00  0.00    -0.234 N 
ATOM      2  C3  <0> d          -1.671   0.800   1.753  0.00  0.00     0.263 A 
ATOM      3  O1  <0> d          -1.973  -0.266   1.242  0.00  0.00    -0.267 OA
ATOM      4  C4  <0> d          -2.338   1.246   2.915  0.00  0.00     0.078 A 
ATOM      5  C5  <0> d          -1.963   2.444   3.447  0.00  0.00     0.044 A 
ATOM      6  C6  <0> d          -0.929   3.167   2.805  0.00  0.00     0.145 A 
ATOM      7  N2  <0> d          -0.352   2.682   1.729  0.00  0.00    -0.164 NA
ENDROOT
BRANCH   6   8
ATOM      8  C7  <0> d          -0.492   4.470   3.351  0.00  0.00     0.278 C 
ATOM      9  O2  <0> d          -1.021   4.918   4.350  0.00  0.00    -0.265 OA
ATOM     10  N3  <0> d           0.492   5.160   2.742  0.00  0.00    -0.300 N 
ATOM     11  H8  <0> d           0.914   4.803   1.945  0.00  0.00     0.171 HD
BRANCH  10  12
ATOM     12  C8  <0> d           0.902   6.384   3.255  0.00  0.00     0.173 A 
ATOM     13  S1  <0> d           2.132   7.458   2.664  0.00  0.00    -0.062 SA
ATOM     14  C10 <0> d           1.955   8.724   3.913  0.00  0.00     0.072 A 
ATOM     15  C9  <0> d           0.961   8.196   4.667  0.00  0.00     0.126 A 
ATOM     16  N4  <0> d           0.452   7.032   4.312  0.00  0.00    -0.236 NA
ENDBRANCH  10  12
ENDBRANCH   6   8
BRANCH   1  17
ATOM     17  C2  <0> d          -0.013   1.086   0.008  0.00  0.00     0.150 C 
ATOM     18  C1  <0> d          -0.753   1.593  -1.232  0.00  0.00     0.029 C 
ENDBRANCH   1  17
TORSDOF 3
