REMARK  7 active torsions:
REMARK  status: ('A' for Active; 'I' for Inactive)
REMARK    1  A    between atoms: N1_2  and  C2_3 
REMARK       I    between atoms: N1_2  and  C4_6 
REMARK    2  A    between atoms: C2_3  and  C3_4 
REMARK    3  A    between atoms: C3_4  and  O1_5 
REMARK    4  A    between atoms: C4_6  and  C5_8 
REMARK    5  A    between atoms: C7_10  and  C10_14 
REMARK    6  A    between atoms: C11_15  and  C12_16 
REMARK    7  A    between atoms: C12_16  and  O3_17 
ROOT
ATOM      1  C5  <0> d           0.065   0.120  -2.416  0.00  0.00     0.051 A 
ATOM      2  C6  <0> d          -0.154  -0.545  -3.626  0.00  0.00     0.040 A 
ATOM      3  C7  <0> d          -0.167   0.211  -4.800  0.00  0.00     0.036 A 
ATOM      4  C8  <0> d           0.036   1.590  -4.721  0.00  0.00     0.136 A 
ATOM      5  N2  <0> d           0.239   2.178  -3.559  0.00  0.00    -0.271 NA
ATOM      6  C9  <0> d           0.253   1.503  -2.428  0.00  0.00     0.133 A 
ENDROOT
BRANCH   1   7
ATOM      7  C4  <0> d           0.089  -0.630  -1.142  0.00  0.00     0.255 C 
ATOM      8  N1  <0> d           0.597  -1.878  -1.104  0.00  0.00    -0.350 N 
ATOM      9  C1  <0> d           1.240  -2.443  -2.292  0.00  0.00     0.153 C 
ATOM     10  O2  <0> d          -0.349  -0.121  -0.128  0.00  0.00    -0.267 OA
BRANCH   8  11
ATOM     11  C2  <0> d           0.506  -2.669   0.126  0.00  0.00     0.151 C 
BRANCH  11  12
ATOM     12  C3  <0> d           1.744  -2.414   0.989  0.00  0.00     0.183 C 
BRANCH  12  13
ATOM     13  O1  <0> d           1.754  -1.050   1.416  0.00  0.00    -0.399 OA
ATOM     14  H8  <0> d           2.513  -0.817   1.969  0.00  0.00     0.209 HD
ENDBRANCH  12  13
ENDBRANCH  11  12
ENDBRANCH   8  11
ENDBRANCH   1   7
BRANCH   3  15
ATOM     15  C10 <0> d          -0.386  -0.419  -6.068  0.00  0.00    -0.063 C 
ATOM     16  C11 <0> d          -0.565  -0.936  -7.106  0.00  0.00    -0.075 C 
BRANCH  16  17
ATOM     17  C12 <0> d          -0.790  -1.583  -8.409  0.00  0.00     0.258 C 
BRANCH  17  18
ATOM     18  O3  <0> d          -0.757  -0.598  -9.443  0.00  0.00    -0.389 OA
ATOM     19  H14 <0> d          -0.898  -0.954 -10.331  0.00  0.00     0.210 HD
ENDBRANCH  17  18
ENDBRANCH  16  17
ENDBRANCH   3  15
TORSDOF 7
