REMARK  2 active torsions:
REMARK  status: ('A' for Active; 'I' for Inactive)
REMARK    1  A    between atoms: C3_3  and  C7_9 
REMARK    2  A    between atoms: C7_9  and  C8_10 
REMARK       I    between atoms: C8_10  and  N3_12 
ROOT
ATOM      1  C8  <0> d          -0.742   1.585  -1.213  0.00  0.00     0.224 C 
ATOM      2  O1  <0> d          -1.736   2.268  -1.088  0.00  0.00    -0.273 OA
ATOM      3  N3  <0> d          -0.288   1.272  -2.443  0.00  0.00    -0.352 N 
ATOM      4  C9  <0> d           0.918   0.451  -2.609  0.00  0.00     0.129 C 
ATOM      5  C10 <0> d           0.573  -0.747  -3.509  0.00  0.00     0.061 C 
ATOM      6  C11 <0> d          -0.043  -0.242  -4.809  0.00  0.00     0.118 A 
ATOM      7  C12 <0> d          -1.317   0.549  -4.534  0.00  0.00     0.061 C 
ATOM      8  C13 <0> d          -0.989   1.752  -3.643  0.00  0.00     0.129 C 
ATOM      9  C14 <0> d          -0.332  -1.398  -5.739  0.00  0.00     0.254 A 
ATOM     10  O2  <0> d          -1.080  -2.331  -5.540  0.00  0.00    -0.270 OA
ATOM     11  N4  <0> d           0.419  -1.173  -6.838  0.00  0.00    -0.277 N 
ATOM     12  C15 <0> d           1.131  -0.045  -6.725  0.00  0.00     0.323 A 
ATOM     13  O3  <0> d           1.882   0.368  -7.587  0.00  0.00    -0.247 OA
ATOM     14  N5  <0> d           0.923   0.579  -5.551  0.00  0.00    -0.324 N 
ATOM     15  H20 <0> d           0.389  -1.882  -7.678  0.00  0.00     0.173 HD
ATOM     16  H21 <0> d           1.315   1.505  -5.104  0.00  0.00     0.165 HD
ENDROOT
BRANCH   1  17
ATOM     17  C7  <0> d          -0.013   1.086   0.008  0.00  0.00     0.145 C 
BRANCH  17  18
ATOM     18  C3  <0> d          -0.718   1.572   1.248  0.00  0.00     0.000 A 
ATOM     19  C2  <0> d          -0.459   2.767   1.927  0.00  0.00     0.059 A 
ATOM     20  C1  <0> d           0.576   3.793   1.546  0.00  0.00     0.073 C 
ATOM     21  N2  <0> d          -1.273   2.841   2.949  0.00  0.00    -0.177 NA
ATOM     22  N1  <0> d          -2.070   1.689   2.958  0.00  0.00    -0.278 N 
ATOM     23  C4  <0> d          -1.710   0.927   1.904  0.00  0.00     0.035 A 
ATOM     24  C5  <0> d          -3.111   1.369   3.938  0.00  0.00     0.179 C 
ATOM     25  C6  <0> d          -2.307  -0.405   1.525  0.00  0.00     0.070 C 
ENDBRANCH  17  18
ENDBRANCH   1  17
TORSDOF 2
