REMARK  6 active torsions:
REMARK  status: ('A' for Active; 'I' for Inactive)
REMARK    1  A    between atoms: C1_1  and  C2_2 
REMARK    2  A    between atoms: C1_1  and  O5_16 
REMARK    3  A    between atoms: C4_6  and  C6_10 
REMARK    4  A    between atoms: C6_10  and  O3_11 
REMARK    5  A    between atoms: O3_11  and  N3_12 
REMARK       I    between atoms: N3_12  and  C7_13 
REMARK       I    between atoms: C7_13  and  N4_15 
REMARK    6  A    between atoms: O5_16  and  N5_17 
REMARK       I    between atoms: N5_17  and  C8_18 
REMARK       I    between atoms: C8_18  and  N6_20 
ROOT
ATOM      1  C2  <0> d          -3.888   7.585   2.316  0.00  0.00     0.202 C 
ATOM      2  C3  <0> d          -4.473   6.205   2.330  0.00  0.00     0.243 C 
ATOM      3  O1  <0> d          -5.055   5.830   3.326  0.00  0.00    -0.271 OA
ATOM      4  N1  <0> d          -4.380   5.372   1.290  0.00  0.00    -0.344 N 
ATOM      5  C4  <0> d          -3.701   5.725   0.051  0.00  0.00     0.202 C 
ATOM      6  C5  <0> d          -3.559   7.211  -0.087  0.00  0.00     0.243 C 
ATOM      7  O2  <0> d          -3.356   7.676  -1.188  0.00  0.00    -0.271 OA
ATOM      8  N2  <0> d          -3.648   8.044   0.955  0.00  0.00    -0.344 N 
ATOM      9  H5  <0> d          -4.782   4.492   1.365  0.00  0.00     0.163 HD
ATOM     10  H6  <0> d          -3.548   8.996   0.797  0.00  0.00     0.163 HD
ENDROOT
BRANCH   1  11
ATOM     11  C1  <0> d          -2.563   7.574   3.082  0.00  0.00     0.236 C 
BRANCH  11  12
ATOM     12  O5  <0> d          -1.686   6.607   2.502  0.00  0.00    -0.274 OA
BRANCH  12  13
ATOM     13  N5  <0> d          -0.425   6.516   3.140  0.00  0.00    -0.217 N 
ATOM     14  C8  <0> d           0.497   5.642   2.691  0.00  0.00     0.337 C 
ATOM     15  O6  <0> d           0.246   4.931   1.738  0.00  0.00    -0.245 OA
ATOM     16  N6  <0> d           1.696   5.556   3.299  0.00  0.00    -0.350 N 
ATOM     17  H13 <0> d           1.897   6.124   4.060  0.00  0.00     0.160 HD
ATOM     18  H14 <0> d           2.360   4.927   2.976  0.00  0.00     0.160 HD
ATOM     19  H12 <0> d          -0.225   7.084   3.901  0.00  0.00     0.199 HD
ENDBRANCH  12  13
ENDBRANCH  11  12
ENDBRANCH   1  11
BRANCH   5  20
ATOM     20  C6  <0> d          -2.311   5.086   0.041  0.00  0.00     0.236 C 
BRANCH  20  21
ATOM     21  O3  <0> d          -2.441   3.663   0.034  0.00  0.00    -0.274 OA
BRANCH  21  22
ATOM     22  N3  <0> d          -1.206   2.971   0.024  0.00  0.00    -0.217 N 
ATOM     23  C7  <0> d          -1.187   1.624   0.017  0.00  0.00     0.337 C 
ATOM     24  O4  <0> d          -2.232   1.002   0.018  0.00  0.00    -0.245 OA
ATOM     25  N4  <0> d          -0.011   0.966   0.007  0.00  0.00    -0.350 N 
ATOM     26  H10 <0> d           0.002  -0.004   0.002  0.00  0.00     0.160 HD
ATOM     27  H11 <0> d           0.822   1.462   0.002  0.00  0.00     0.160 HD
ATOM     28  H9  <0> d          -0.372   3.468   0.023  0.00  0.00     0.199 HD
ENDBRANCH  21  22
ENDBRANCH  20  21
ENDBRANCH   5  20
TORSDOF 6
