REMARK  5 active torsions:
REMARK  status: ('A' for Active; 'I' for Inactive)
REMARK    1  A    between atoms: C2_2  and  N1_3 
REMARK       I    between atoms: N1_3  and  C3_4 
REMARK    2  A    between atoms: C3_4  and  C4_6 
REMARK    3  A    between atoms: C4_6  and  N2_7 
REMARK    4  A    between atoms: C7_10  and  N4_12 
REMARK       I    between atoms: N4_12  and  C8_13 
REMARK    5  A    between atoms: C8_13  and  C9_15 
ROOT
ATOM      1  N4  <0> d           0.091  -7.001   2.449  0.00  0.00    -0.310 N 
ATOM      2  C8  <0> d           0.649  -8.227   2.500  0.00  0.00     0.232 C 
ATOM      3  O2  <0> d           1.856  -8.343   2.518  0.00  0.00    -0.272 OA
ATOM      4  H12 <0> d          -0.870  -6.910   2.356  0.00  0.00     0.170 HD
ENDROOT
BRANCH   1   5
ATOM      5  C7  <0> d           0.899  -5.859   2.532  0.00  0.00     0.151 A 
ATOM      6  C6  <0> d           2.296  -5.846   2.668  0.00  0.00     0.071 A 
ATOM      7  C5  <0> d           2.697  -4.555   2.711  0.00  0.00     0.116 A 
ATOM      8  N2  <0> d           1.599  -3.777   2.606  0.00  0.00    -0.270 N 
ATOM      9  N3  <0> d           0.482  -4.615   2.500  0.00  0.00    -0.154 NA
BRANCH   8  10
ATOM     10  C4  <0> d           1.578  -2.312   2.609  0.00  0.00     0.253 C 
BRANCH  10  11
ATOM     11  C3  <0> d           0.868  -1.817   1.375  0.00  0.00     0.237 C 
ATOM     12  N1  <0> d           0.727  -0.494   1.164  0.00  0.00    -0.360 N 
ATOM     13  H7  <0> d           1.083   0.140   1.806  0.00  0.00     0.162 HD
ATOM     14  O1  <0> d           0.422  -2.610   0.573  0.00  0.00    -0.272 OA
BRANCH  12  15
ATOM     15  C2  <0> d           0.036  -0.013  -0.035  0.00  0.00     0.118 C 
ATOM     16  C1  <0> d           0.015   1.517  -0.032  0.00  0.00     0.026 C 
ENDBRANCH  12  15
ENDBRANCH  10  11
ENDBRANCH   8  10
ENDBRANCH   1   5
BRANCH   2  17
ATOM     17  C9  <0> d          -0.227  -9.453   2.534  0.00  0.00     0.112 C 
ATOM     18  C14 <0> d          -0.620  -9.743   3.959  0.00  0.00    -0.039 A 
ATOM     19  C13 <0> d          -0.634 -11.017   4.480  0.00  0.00    -0.051 A 
ATOM     20  C15 <0> d          -0.982  -8.669   4.761  0.00  0.00     0.008 A 
ATOM     21  C12 <0> d          -0.246 -12.227   3.671  0.00  0.00     0.039 C 
ATOM     22  C18 <0> d          -1.014 -11.216   5.800  0.00  0.00     0.007 A 
ATOM     23  C11 <0> d          -0.280 -11.909   2.178  0.00  0.00     0.006 C 
ATOM     24  C10 <0> d           0.537 -10.634   1.937  0.00  0.00     0.019 C 
ATOM     25  C17 <0> d          -1.374 -10.149   6.595  0.00  0.00     0.001 A 
ATOM     26  C16 <0> d          -1.358  -8.869   6.073  0.00  0.00     0.001 A 
ENDBRANCH   2  17
TORSDOF 5
