REMARK  2 active torsions:
REMARK  status: ('A' for Active; 'I' for Inactive)
REMARK    1  A    between atoms: C14_15  and  O3_22 
REMARK    2  A    between atoms: C15_17  and  O2_21 
ROOT
ATOM      1  C1  <0> d          -2.828   1.504   2.478  0.00  0.00     0.269 C 
ATOM      2  C2  <0> d          -0.732   1.581   1.266  0.00  0.00     0.249 C 
ATOM      3  C3  <0> d          -0.013   1.086   0.008  0.00  0.00     0.124 C 
ATOM      4  N1  <0> d          -0.725   1.573  -1.180  0.00  0.00    -0.274 NA
ATOM      5  C4  <0> d          -0.033   1.289  -2.353  0.00  0.00     0.019 A 
ATOM      6  C5  <0> d           1.362   1.280  -2.300  0.00  0.00     0.024 A 
ATOM      7  C6  <0> d           2.102   1.013  -3.432  0.00  0.00     0.003 A 
ATOM      8  C7  <0> d           1.462   0.752  -4.630  0.00  0.00     0.024 A 
ATOM      9  C8  <0> d           0.082   0.756  -4.688  0.00  0.00     0.042 A 
ATOM     10  C9  <0> d          -0.669   1.020  -3.552  0.00  0.00    -0.013 A 
ATOM     11  C10 <0> d          -2.172   0.990  -3.670  0.00  0.00     0.072 C 
ATOM     12  C11 <0> d          -2.805   1.653  -2.445  0.00  0.00     0.131 A 
ATOM     13  C12 <0> d          -2.111   1.100  -1.196  0.00  0.00     0.115 C 
ATOM     14  C13 <0> d          -2.834   1.597   0.058  0.00  0.00     0.256 C 
ATOM     15  C14 <0> d          -2.606   3.140  -2.514  0.00  0.00     0.162 A 
ATOM     16  N2  <0> d          -3.611   3.968  -2.526  0.00  0.00    -0.186 NA
ATOM     17  C15 <0> d          -4.880   3.551  -2.476  0.00  0.00     0.271 A 
ATOM     18  N3  <0> d          -5.196   2.270  -2.412  0.00  0.00    -0.170 NA
ATOM     19  C16 <0> d          -4.270   1.321  -2.393  0.00  0.00     0.265 A 
ATOM     20  O1  <0> d          -4.614   0.157  -2.332  0.00  0.00    -0.270 OA
ATOM     21 Cl1  <0> d          -0.718   0.430  -6.193  0.00  0.00    -0.084 Cl
ATOM     22  N4  <0> d          -2.125   1.081   1.249  0.00  0.00    -0.072 N 
ATOM     23  H18 <0> d          -2.110   0.055   1.209  0.00  0.00     0.279 HD
ENDROOT
BRANCH  15  24
ATOM     24  O3  <0> d          -1.357   3.630  -2.566  0.00  0.00    -0.347 OA
ATOM     25  H17 <0> d          -1.264   4.591  -2.610  0.00  0.00     0.219 HD
ENDBRANCH  15  24
BRANCH  17  26
ATOM     26  O2  <0> d          -5.869   4.467  -2.492  0.00  0.00    -0.329 OA
ATOM     27  H16 <0> d          -6.776   4.135  -2.455  0.00  0.00     0.221 HD
ENDBRANCH  17  26
TORSDOF 2
