REMARK  4 active torsions:
REMARK  status: ('A' for Active; 'I' for Inactive)
REMARK    1  A    between atoms: C2_2  and  C3_3 
REMARK    2  A    between atoms: C3_3  and  S1_5 
REMARK    3  A    between atoms: S1_5  and  C5_6 
REMARK    4  A    between atoms: C9_13  and  C16_22 
ROOT
ATOM      1  C5  <0> d           3.102  -0.498  -2.760  0.00  0.00     0.171 A 
ATOM      2  N1  <0> d           2.304  -1.089  -3.626  0.00  0.00    -0.206 NA
ATOM      3  C6  <0> d           2.754  -1.486  -4.820  0.00  0.00     0.143 A 
ATOM      4  C7  <0> d           4.080  -1.280  -5.160  0.00  0.00     0.069 A 
ATOM      5  C8  <0> d           4.924  -0.651  -4.237  0.00  0.00     0.258 A 
ATOM      6  O1  <0> d           6.098  -0.451  -4.503  0.00  0.00    -0.267 OA
ATOM      7  N2  <0> d           4.413  -0.265  -3.049  0.00  0.00    -0.302 N 
ATOM      8  C9  <0> d           4.610  -1.726  -6.490  0.00  0.00     0.100 C 
ATOM      9  C10 <0> d           3.491  -1.975  -7.470  0.00  0.00     0.024 C 
ATOM     10  C11 <0> d           2.221  -2.154  -7.051  0.00  0.00     0.021 C 
ATOM     11  N3  <0> d           1.905  -2.099  -5.721  0.00  0.00    -0.343 N 
ATOM     12  C12 <0> d           1.110  -2.426  -8.035  0.00  0.00     0.058 C 
ATOM     13  C13 <0> d           1.416  -1.728  -9.362  0.00  0.00     0.014 C 
ATOM     14  C14 <0> d           2.759  -2.247  -9.884  0.00  0.00     0.084 C 
ATOM     15  C15 <0> d           3.814  -2.014  -8.838  0.00  0.00     0.158 C 
ATOM     16  O2  <0> d           4.969  -1.855  -9.182  0.00  0.00    -0.293 OA
ATOM     17  H11 <0> d           1.077  -2.493  -5.407  0.00  0.00     0.167 HD
ATOM     18  H22 <0> d           4.981   0.176  -2.398  0.00  0.00     0.171 HD
ENDROOT
BRANCH   8  19
ATOM     19  C16 <0> d           5.397  -2.998  -6.307  0.00  0.00    -0.043 A 
ATOM     20  C21 <0> d           6.734  -3.039  -6.653  0.00  0.00     0.027 A 
ATOM     21  C20 <0> d           7.457  -4.205  -6.480  0.00  0.00     0.011 A 
ATOM     22  C19 <0> d           6.839  -5.333  -5.971  0.00  0.00     0.019 A 
ATOM     23 Br1  <0> d           9.289  -4.260  -6.946  0.00  0.00    -0.051 Br
ATOM     24  C18 <0> d           5.500  -5.292  -5.630  0.00  0.00     0.002 A 
ATOM     25  C17 <0> d           4.779  -4.125  -5.798  0.00  0.00     0.008 A 
ENDBRANCH   8  19
BRANCH   1  26
ATOM     26  S1  <0> d           2.460   0.006  -1.198  0.00  0.00    -0.087 SA
BRANCH  26  27
ATOM     27  C3  <0> d           0.718  -0.497  -1.257  0.00  0.00     0.051 C 
ATOM     28  C4  <0> d           0.630  -2.023  -1.329  0.00  0.00     0.022 C 
BRANCH  27  29
ATOM     29  C2  <0> d           0.002  -0.004   0.002  0.00  0.00     0.011 C 
ATOM     30  C1  <0> d          -0.019   1.526   0.010  0.00  0.00     0.006 C 
ENDBRANCH  27  29
ENDBRANCH  26  27
ENDBRANCH   1  26
TORSDOF 4
