REMARK  7 active torsions:
REMARK  status: ('A' for Active; 'I' for Inactive)
REMARK    1  A    between atoms: C2_2  and  O1_3 
REMARK    2  A    between atoms: O1_3  and  C3_4 
REMARK    3  A    between atoms: C3_4  and  C4_6 
REMARK    4  A    between atoms: C7_11  and  S1_12 
REMARK    5  A    between atoms: S1_12  and  N2_15 
REMARK    6  A    between atoms: N2_15  and  C8_16 
REMARK    7  A    between atoms: C8_16  and  C9_17 
REMARK       I    between atoms: C9_17  and  N3_19 
ROOT
ATOM      1  S1  <0> d           1.260   3.924   2.875  0.00  0.00     0.262 S 
ATOM      2  O3  <0> d           0.755   5.024   3.620  0.00  0.00    -0.200 OA
ATOM      3  O4  <0> d           0.658   2.637   2.914  0.00  0.00    -0.200 OA
ENDROOT
BRANCH   1   4
ATOM      4  C7  <0> d           1.272   4.423   1.185  0.00  0.00     0.119 A 
ATOM      5  C4  <0> d           1.232   3.546   0.009  0.00  0.00     0.086 A 
ATOM      6  C5  <0> d           1.253   4.381  -1.087  0.00  0.00     0.023 A 
ATOM      7  N1  <0> d           1.307   5.652  -0.646  0.00  0.00    -0.361 N 
ATOM      8  C19 <0> d           1.221   3.947  -2.530  0.00  0.00     0.069 C 
ATOM      9  H1  <0> d           1.331   6.436  -1.218  0.00  0.00     0.165 HD
ATOM     10  C6  <0> d           1.322   5.682   0.718  0.00  0.00     0.030 A 
ATOM     11  C18 <0> d           1.379   6.928   1.564  0.00  0.00     0.070 C 
BRANCH   5  12
ATOM     12  C3  <0> d           1.175   2.076   0.002  0.00  0.00     0.296 C 
ATOM     13  O2  <0> d           2.203   1.428  -0.011  0.00  0.00    -0.259 OA
BRANCH  12  14
ATOM     14  O1  <0> d          -0.018   1.448   0.010  0.00  0.00    -0.318 OA
BRANCH  14  15
ATOM     15  C2  <0> d           0.002  -0.004   0.002  0.00  0.00     0.174 C 
ATOM     16  C1  <0> d          -1.433  -0.534   0.013  0.00  0.00     0.034 C 
ENDBRANCH  14  15
ENDBRANCH  12  14
ENDBRANCH   5  12
ENDBRANCH   1   4
BRANCH   1  17
ATOM     17  N2  <0> d           2.837   3.724   3.338  0.00  0.00    -0.306 N 
ATOM     18  H7  <0> d           3.162   2.843   3.583  0.00  0.00     0.172 HD
BRANCH  17  19
ATOM     19  C8  <0> d           3.741   4.876   3.376  0.00  0.00     0.235 C 
BRANCH  19  20
ATOM     20  C9  <0> d           4.977   4.518   4.161  0.00  0.00     0.242 C 
ATOM     21  O5  <0> d           5.091   3.410   4.641  0.00  0.00    -0.271 OA
ATOM     22  N3  <0> d           5.955   5.430   4.329  0.00  0.00    -0.316 N 
ATOM     23  C13 <0> d           5.935   6.731   3.818  0.00  0.00     0.043 A 
ATOM     24  C10 <0> d           7.199   5.201   5.069  0.00  0.00     0.137 A 
ATOM     25  C12 <0> d           7.081   7.432   4.160  0.00  0.00    -0.030 A 
ATOM     26  C14 <0> d           4.949   7.370   3.063  0.00  0.00     0.030 A 
ATOM     27  C11 <0> d           7.975   6.525   4.974  0.00  0.00     0.061 A 
ATOM     28  C17 <0> d           7.249   8.741   3.751  0.00  0.00     0.009 A 
ATOM     29  C16 <0> d           6.271   9.366   3.000  0.00  0.00     0.001 A 
ATOM     30  C15 <0> d           5.122   8.677   2.658  0.00  0.00     0.002 A 
ENDBRANCH  19  20
ENDBRANCH  17  19
ENDBRANCH   1  17
TORSDOF 7
