REMARK  4 active torsions:
REMARK  status: ('A' for Active; 'I' for Inactive)
REMARK    1  A    between atoms: C2_2  and  C5_5 
REMARK    2  A    between atoms: C7_7  and  N3_14 
REMARK    3  A    between atoms: N1_8  and  C8_10 
REMARK       I    between atoms: N3_14  and  C12_15 
REMARK    4  A    between atoms: C12_15  and  C13_17 
ROOT
ATOM      1  C5  <0> d           0.707  -0.490  -1.238  0.00  0.00     0.066 A 
ATOM      2  C6  <0> d           2.088  -0.472  -1.454  0.00  0.00     0.080 A 
ATOM      3  C7  <0> d           2.323  -0.995  -2.689  0.00  0.00     0.129 A 
ATOM      4  N1  <0> d           1.128  -1.329  -3.225  0.00  0.00    -0.245 N 
ATOM      5  N2  <0> d           0.133  -1.007  -2.294  0.00  0.00    -0.174 NA
ENDROOT
BRANCH   3   6
ATOM      6  N3  <0> d           3.571  -1.156  -3.291  0.00  0.00    -0.311 N 
ATOM      7  C12 <0> d           4.688  -0.778  -2.639  0.00  0.00     0.228 C 
ATOM      8  O1  <0> d           4.609  -0.297  -1.528  0.00  0.00    -0.273 OA
ATOM      9  H20 <0> d           3.635  -1.541  -4.179  0.00  0.00     0.170 HD
BRANCH   7  10
ATOM     10  C13 <0> d           6.036  -0.952  -3.290  0.00  0.00     0.095 C 
ATOM     11  C17 <0> d           7.133  -0.448  -2.345  0.00  0.00     0.117 C 
ATOM     12  C16 <0> d           8.480  -0.731  -2.956  0.00  0.00     0.225 C 
ATOM     13  N4  <0> d           8.666  -1.774  -3.779  0.00  0.00    -0.298 N 
ATOM     14  O3  <0> d           9.414  -0.003  -2.699  0.00  0.00    -0.273 OA
ATOM     15  C15 <0> d           7.676  -2.614  -4.117  0.00  0.00     0.225 C 
ATOM     16  H24 <0> d           9.551  -1.926  -4.145  0.00  0.00     0.171 HD
ATOM     17  C14 <0> d           6.282  -2.438  -3.573  0.00  0.00     0.117 C 
ATOM     18  O2  <0> d           7.907  -3.531  -4.874  0.00  0.00    -0.273 OA
ENDBRANCH   7  10
ENDBRANCH   3   6
BRANCH   4  19
ATOM     19  C8  <0> d           0.912  -1.927  -4.545  0.00  0.00     0.046 C 
ATOM     20  C9  <0> d           1.642  -3.269  -4.622  0.00  0.00     0.040 C 
ATOM     21  C10 <0> d          -0.586  -2.147  -4.766  0.00  0.00     0.040 C 
ATOM     22  C11 <0> d           1.454  -0.988  -5.625  0.00  0.00     0.040 C 
ENDBRANCH   4  19
BRANCH   1  23
ATOM     23  C2  <0> d           0.002  -0.004   0.002  0.00  0.00    -0.005 C 
ATOM     24  C1  <0> d          -0.019   1.526   0.010  0.00  0.00     0.021 C 
ATOM     25  C3  <0> d           0.742  -0.511   1.242  0.00  0.00     0.021 C 
ATOM     26  C4  <0> d          -1.433  -0.534   0.013  0.00  0.00     0.021 C 
ENDBRANCH   1  23
TORSDOF 4
