REMARK  8 active torsions:
REMARK  status: ('A' for Active; 'I' for Inactive)
REMARK    1  A    between atoms: C3_3  and  O1_8 
REMARK    2  A    between atoms: O1_8  and  C7_9 
REMARK    3  A    between atoms: C7_9  and  C8_10 
REMARK       I    between atoms: C8_10  and  N1_12 
REMARK    4  A    between atoms: C10_14  and  C17_22 
REMARK       I    between atoms: C17_22  and  N3_24 
REMARK    5  A    between atoms: N3_24  and  C18_25 
REMARK    6  A    between atoms: C18_25  and  C19_26 
REMARK    7  A    between atoms: C19_26  and  C20_27 
REMARK    8  A    between atoms: C20_27  and  N4_28 
ROOT
ATOM      1  C8  <0> d           6.042   2.402  -0.009  0.00  0.00     0.244 C 
ATOM      2  O2  <0> d           5.896   3.605  -0.056  0.00  0.00    -0.271 OA
ATOM      3  N1  <0> d           7.279   1.870  -0.059  0.00  0.00    -0.349 N 
ATOM      4  C9  <0> d           7.654   0.437  -0.021  0.00  0.00     0.140 C 
ATOM      5  C10 <0> d           8.815   0.310  -1.033  0.00  0.00     0.106 C 
ATOM      6  C11 <0> d           9.415   1.724  -1.121  0.00  0.00    -0.007 C 
ATOM      7  C12 <0> d           8.572   2.587  -0.170  0.00  0.00     0.136 C 
ATOM      8  C13 <0> d           9.304   2.257  -2.545  0.00  0.00     0.039 C 
ATOM      9  C14 <0> d           9.958   3.640  -2.620  0.00  0.00     0.233 C 
ATOM     10  N2  <0> d          11.368   3.539  -2.222  0.00  0.00    -0.075 N 
ATOM     11  C15 <0> d          11.463   3.113  -0.820  0.00  0.00     0.233 C 
ATOM     12  C16 <0> d          10.872   1.709  -0.670  0.00  0.00     0.039 C 
ATOM     13  H16 <0> d          11.834   2.864  -2.809  0.00  0.00     0.277 HD
ATOM     14  H31 <0> d          11.812   4.438  -2.330  0.00  0.00     0.277 HD
ENDROOT
BRANCH   5  15
ATOM     15  C17 <0> d           9.844  -0.669  -0.530  0.00  0.00     0.224 C 
ATOM     16  O3  <0> d          10.021  -0.804   0.662  0.00  0.00    -0.273 OA
ATOM     17  N3  <0> d          10.568  -1.394  -1.406  0.00  0.00    -0.361 N 
ATOM     18  H21 <0> d          10.426  -1.286  -2.359  0.00  0.00     0.162 HD
BRANCH  17  19
ATOM     19  C18 <0> d          11.569  -2.346  -0.917  0.00  0.00     0.124 C 
BRANCH  19  20
ATOM     20  C19 <0> d          12.242  -3.033  -2.107  0.00  0.00     0.040 C 
BRANCH  20  21
ATOM     21  C20 <0> d          13.288  -4.027  -1.597  0.00  0.00     0.130 C 
BRANCH  21  22
ATOM     22  N4  <0> d          13.933  -4.685  -2.736  0.00  0.00    -0.352 N 
ATOM     23  C23 <0> d          15.041  -4.263  -3.382  0.00  0.00     0.182 A 
ATOM     24  N5  <0> d          15.314  -5.108  -4.339  0.00  0.00    -0.361 N 
ATOM     25  C22 <0> d          14.395  -6.085  -4.342  0.00  0.00     0.106 A 
ATOM     26  H32 <0> d          16.062  -5.038  -4.953  0.00  0.00     0.166 HD
ATOM     27  C21 <0> d          13.522  -5.839  -3.347  0.00  0.00     0.108 A 
ENDBRANCH  21  22
ENDBRANCH  20  21
ENDBRANCH  19  20
ENDBRANCH  17  19
ENDBRANCH   5  15
BRANCH   1  28
ATOM     28  C7  <0> d           4.839   1.502   0.105  0.00  0.00     0.278 C 
BRANCH  28  29
ATOM     29  O1  <0> d           3.651   2.296   0.140  0.00  0.00    -0.342 OA
BRANCH  29  30
ATOM     30  C3  <0> d           2.469   1.634   0.242  0.00  0.00     0.070 A 
ATOM     31  C2  <0> d           1.277   2.342   0.281  0.00  0.00     0.037 A 
ATOM     32  C1  <0> d           0.076   1.667   0.384  0.00  0.00     0.004 A 
ATOM     33  C6  <0> d           0.060   0.287   0.449  0.00  0.00     0.024 A 
ATOM     34  C5  <0> d           1.248  -0.423   0.410  0.00  0.00     0.036 A 
ATOM     35  C4  <0> d           2.452   0.248   0.307  0.00  0.00     0.060 A 
ATOM     36 Cl1  <0> d           1.226  -2.157   0.491  0.00  0.00    -0.084 Cl
ENDBRANCH  29  30
ENDBRANCH  28  29
ENDBRANCH   1  28
TORSDOF 8
