REMARK  5 active torsions:
REMARK  status: ('A' for Active; 'I' for Inactive)
REMARK    1  A    between atoms: C4_4  and  N2_8 
REMARK    2  A    between atoms: C7_9  and  C12_16 
REMARK    3  A    between atoms: C8_11  and  C9_13 
REMARK    4  A    between atoms: N5_20  and  C16_22 
REMARK    5  A    between atoms: C20_26  and  O2_28 
ROOT
ATOM      1  N2  <0> d           0.021  -2.804  -2.422  0.00  0.00    -0.217 N 
ATOM      2  C7  <0> d           0.658  -3.969  -2.653  0.00  0.00     0.136 A 
ATOM      3  N3  <0> d           0.432  -4.315  -3.894  0.00  0.00    -0.215 NA
ATOM      4  C8  <0> d          -0.340  -3.402  -4.484  0.00  0.00     0.152 A 
ATOM      5  N4  <0> d          -0.622  -2.461  -3.622  0.00  0.00    -0.150 NA
ENDROOT
BRANCH   2   6
ATOM      6  C12 <0> d           1.486  -4.738  -1.656  0.00  0.00     0.084 C 
ATOM      7  C15 <0> d           0.951  -6.177  -1.486  0.00  0.00     0.145 C 
ATOM      8  N5  <0> d           2.141  -7.018  -1.306  0.00  0.00    -0.317 N 
ATOM      9  C14 <0> d           3.255  -6.380  -1.703  0.00  0.00     0.225 C 
ATOM     10  C13 <0> d           2.911  -4.993  -2.199  0.00  0.00     0.117 C 
ATOM     11  O1  <0> d           4.373  -6.848  -1.668  0.00  0.00    -0.273 OA
BRANCH   8  12
ATOM     12  C16 <0> d           2.118  -8.317  -0.786  0.00  0.00     0.039 A 
ATOM     13  C21 <0> d           3.278  -9.077  -0.763  0.00  0.00     0.066 A 
ATOM     14  C20 <0> d           3.253 -10.361  -0.242  0.00  0.00     0.067 A 
ATOM     15  C19 <0> d           2.065 -10.889   0.244  0.00  0.00     0.036 A 
ATOM     16  C18 <0> d           0.908 -10.133   0.214  0.00  0.00     0.005 A 
ATOM     17  C17 <0> d           0.931  -8.850  -0.299  0.00  0.00     0.030 A 
BRANCH  14  18
ATOM     18  O2  <0> d           4.390 -11.105  -0.212  0.00  0.00    -0.361 OA
ATOM     19  H23 <0> d           4.532 -11.639  -1.006  0.00  0.00     0.217 HD
ENDBRANCH  14  18
ENDBRANCH   8  12
ENDBRANCH   2   6
BRANCH   1  20
ATOM     20  C4  <0> d           0.001  -2.082  -1.223  0.00  0.00     0.063 A 
ATOM     21  C3  <0> d          -0.025  -0.689  -1.228  0.00  0.00     0.058 A 
ATOM     22  C2  <0> d          -0.045  -0.014  -0.024  0.00  0.00     0.032 A 
ATOM     23  C1  <0> d          -0.073   1.493  -0.017  0.00  0.00     0.070 C 
ATOM     24  N1  <0> d          -0.036  -0.671   1.119  0.00  0.00    -0.266 NA
ATOM     25  C6  <0> d          -0.017  -1.990   1.166  0.00  0.00     0.119 A 
ATOM     26  C5  <0> d           0.004  -2.737   0.006  0.00  0.00     0.051 A 
ENDBRANCH   1  20
BRANCH   4  27
ATOM     27  C9  <0> d          -0.815  -3.451  -5.914  0.00  0.00     0.051 C 
ATOM     28  C10 <0> d          -2.345  -3.473  -5.942  0.00  0.00     0.018 C 
ATOM     29  C11 <0> d          -0.308  -2.217  -6.662  0.00  0.00     0.018 C 
ENDBRANCH   4  27
TORSDOF 5
