REMARK  6 active torsions:
REMARK  status: ('A' for Active; 'I' for Inactive)
REMARK    1  A    between atoms: N1_2  and  C2_3 
REMARK    2  A    between atoms: N1_2  and  C4_6 
REMARK    3  A    between atoms: C2_3  and  C3_4 
REMARK    4  A    between atoms: C3_4  and  O1_5 
REMARK    5  A    between atoms: C9_13  and  C10_15 
REMARK    6  A    between atoms: C10_15  and  N4_16 
ROOT
ATOM      1  C4  <0> d          -0.310   1.062   2.525  0.00  0.00     0.121 A 
ATOM      2  C5  <0> d          -1.069   1.230   3.715  0.00  0.00     0.048 A 
ATOM      3  C6  <0> d          -2.377   1.883   3.881  0.00  0.00    -0.029 A 
ATOM      4  C7  <0> d          -2.893   1.903   5.121  0.00  0.00    -0.008 A 
ATOM      5  S1  <0> d          -1.696   1.063   6.133  0.00  0.00    -0.073 SA
ATOM      6  C8  <0> d          -0.500   0.686   4.881  0.00  0.00     0.114 A 
ATOM      7  N2  <0> d           0.668   0.074   4.857  0.00  0.00    -0.223 NA
ATOM      8  C9  <0> d           1.331  -0.047   3.723  0.00  0.00     0.157 A 
ATOM      9  N3  <0> d           0.854   0.434   2.589  0.00  0.00    -0.219 NA
ATOM     10  C15 <0> d          -4.228   2.596   5.170  0.00  0.00     0.047 C 
ATOM     11  C16 <0> d          -4.697   2.639   3.699  0.00  0.00     0.010 C 
ATOM     12  C17 <0> d          -3.355   2.595   2.942  0.00  0.00     0.041 C 
ENDROOT
BRANCH   8  13
ATOM     13  C10 <0> d           2.664  -0.751   3.721  0.00  0.00     0.352 C 
BRANCH  13  14
ATOM     14  N4  <0> d           3.734   0.226   3.964  0.00  0.00     0.099 N 
ATOM     15  C14 <0> d           5.018  -0.448   4.205  0.00  0.00     0.299 C 
ATOM     16  C13 <0> d           6.090   0.602   4.511  0.00  0.00     0.198 C 
ATOM     17  O2  <0> d           6.162   1.533   3.428  0.00  0.00    -0.388 OA
ATOM     18  C12 <0> d           4.928   2.208   3.166  0.00  0.00     0.198 C 
ATOM     19  C11 <0> d           3.845   1.174   2.846  0.00  0.00     0.299 C 
ENDBRANCH  13  14
ENDBRANCH   8  13
BRANCH   1  20
ATOM     20  N1  <0> d          -0.777   1.552   1.319  0.00  0.00    -0.269 NA
ATOM     21  C1  <0> d           0.162   2.525   0.746  0.00  0.00     0.118 C 
BRANCH  20  22
ATOM     22  C2  <0> d          -1.044   0.458   0.374  0.00  0.00     0.122 C 
BRANCH  22  23
ATOM     23  C3  <0> d          -1.922   0.974  -0.768  0.00  0.00     0.179 C 
BRANCH  23  24
ATOM     24  O1  <0> d          -1.202   1.955  -1.516  0.00  0.00    -0.400 OA
ATOM     25  H8  <0> d          -1.675   2.442  -2.382  0.00  0.00     0.209 HD
ENDBRANCH  23  24
ENDBRANCH  22  23
ENDBRANCH  20  22
ENDBRANCH   1  20
TORSDOF 6
