REMARK  5 active torsions:
REMARK  status: ('A' for Active; 'I' for Inactive)
REMARK    1  A    between atoms: C7_9  and  S1_12 
REMARK    2  A    between atoms: S1_12  and  N1_15 
REMARK    3  A    between atoms: N1_15  and  C10_16 
REMARK    4  A    between atoms: C10_16  and  C11_17 
REMARK    5  A    between atoms: C14_20  and  N3_23 
ROOT
ATOM      1  N1  <0> d          -3.045  -3.279  -1.580  0.00  0.00    -0.311 N 
ATOM      2  H6  <0> d          -3.853  -2.877  -1.936  0.00  0.00     0.172 HD
ENDROOT
BRANCH   1   3
ATOM      3  S1  <0> d          -2.617  -3.018  -0.002  0.00  0.00     0.259 S 
ATOM      4  O3  <0> d          -2.321  -4.292   0.555  0.00  0.00    -0.201 OA
ATOM      5  O4  <0> d          -3.603  -2.156   0.550  0.00  0.00    -0.201 OA
BRANCH   3   6
ATOM      6  C7  <0> d          -1.106  -2.112  -0.015  0.00  0.00     0.080 A 
ATOM      7  C6  <0> d          -1.134  -0.735  -0.022  0.00  0.00     0.039 A 
ATOM      8  C5  <0> d           0.068  -0.020  -0.033  0.00  0.00    -0.001 A 
ATOM      9  C1  <0> d           0.075   1.446  -0.040  0.00  0.00     0.020 A 
ATOM     10  C4  <0> d           1.294  -0.708  -0.034  0.00  0.00     0.089 A 
ATOM     11  C2  <0> d           1.274   2.081  -0.049  0.00  0.00     0.083 A 
ATOM     12  C3  <0> d           2.468   1.326  -0.051  0.00  0.00     0.288 A 
ATOM     13  O1  <0> d           3.537   1.908  -0.059  0.00  0.00    -0.260 OA
ATOM     14  O2  <0> d           2.453  -0.015  -0.043  0.00  0.00    -0.275 OA
ATOM     15  C9  <0> d           1.298  -2.097  -0.027  0.00  0.00     0.040 A 
ATOM     16  C8  <0> d           0.105  -2.789  -0.017  0.00  0.00     0.028 A 
ENDBRANCH   3   6
ENDBRANCH   1   3
BRANCH   1  17
ATOM     17  C10 <0> d          -2.205  -4.118  -2.438  0.00  0.00     0.172 C 
BRANCH  17  18
ATOM     18  C11 <0> d          -2.973  -4.498  -3.677  0.00  0.00    -0.024 A 
ATOM     19  C15 <0> d          -2.921  -3.700  -4.802  0.00  0.00     0.098 A 
ATOM     20  N2  <0> d          -3.585  -4.026  -5.895  0.00  0.00    -0.352 N 
ATOM     21  C14 <0> d          -4.333  -5.117  -5.953  0.00  0.00     0.102 A 
ATOM     22  H22 <0> d          -3.527  -3.450  -6.673  0.00  0.00     0.166 HD
ATOM     23  C13 <0> d          -4.436  -5.964  -4.854  0.00  0.00     0.049 A 
ATOM     24  C12 <0> d          -3.746  -5.652  -3.697  0.00  0.00     0.014 A 
BRANCH  21  25
ATOM     25  N3  <0> d          -5.021  -5.420  -7.123  0.00  0.00    -0.367 N 
ATOM     26  C20 <0> d          -5.744  -6.691  -7.258  0.00  0.00     0.124 C 
ATOM     27  C19 <0> d          -5.277  -7.397  -8.529  0.00  0.00     0.020 C 
ATOM     28  C18 <0> d          -5.436  -6.453  -9.723  0.00  0.00     0.003 C 
ATOM     29  C17 <0> d          -4.568  -5.210  -9.511  0.00  0.00     0.020 C 
ATOM     30  C16 <0> d          -5.032  -4.477  -8.249  0.00  0.00     0.124 C 
ENDBRANCH  21  25
ENDBRANCH  17  18
ENDBRANCH   1  17
TORSDOF 5
