REMARK  7 active torsions:
REMARK  status: ('A' for Active; 'I' for Inactive)
REMARK    1  A    between atoms: C3_3  and  C5_6 
REMARK    2  A    between atoms: C5_6  and  N1_7 
REMARK    3  A    between atoms: N1_7  and  C6_8 
REMARK    4  A    between atoms: N2_10  and  C7_11 
REMARK    5  A    between atoms: C7_11  and  C8_12 
REMARK    6  A    between atoms: C14_18  and  C15_19 
REMARK    7  A    between atoms: C15_19  and  N4_29 
ROOT
ATOM      1  C8  <0> d          -3.269  -3.176   0.808  0.00  0.00     0.206 C 
ATOM      2  C9  <0> d          -3.585  -2.372  -0.463  0.00  0.00     0.040 C 
ATOM      3  C10 <0> d          -2.422  -2.532  -1.450  0.00  0.00    -0.004 C 
ATOM      4  C11 <0> d          -2.253  -4.023  -1.766  0.00  0.00     0.032 C 
ATOM      5  C12 <0> d          -1.975  -4.779  -0.464  0.00  0.00     0.236 C 
ATOM      6  C13 <0> d          -0.891  -2.837   0.496  0.00  0.00     0.242 C 
ATOM      7  C14 <0> d          -1.139  -2.026  -0.779  0.00  0.00     0.041 C 
ATOM      8  N3  <0> d          -1.957  -3.845   0.682  0.00  0.00    -0.065 N 
ATOM      9  H31 <0> d          -1.768  -4.374   1.541  0.00  0.00     0.280 HD
ENDROOT
BRANCH   1  10
ATOM     10  C7  <0> d          -3.233  -2.235   2.014  0.00  0.00     0.155 C 
BRANCH  10  11
ATOM     11  N2  <0> d          -2.812  -2.980   3.203  0.00  0.00    -0.365 N 
ATOM     12  C6  <0> d          -2.708  -2.351   4.390  0.00  0.00     0.167 C 
ATOM     13  S1  <0> d          -3.068  -0.681   4.509  0.00  0.00    -0.041 SA
ATOM     14  H10 <0> d          -2.609  -3.925   3.135  0.00  0.00     0.161 HD
BRANCH  12  15
ATOM     15  N1  <0> d          -2.321  -3.036   5.484  0.00  0.00    -0.361 N 
ATOM     16  H9  <0> d          -2.117  -3.982   5.417  0.00  0.00     0.162 HD
BRANCH  15  17
ATOM     17  C5  <0> d          -2.208  -2.353   6.775  0.00  0.00     0.187 C 
BRANCH  17  18
ATOM     18  C3  <0> d          -1.761  -3.335   7.826  0.00  0.00     0.070 A 
ATOM     19  C2  <0> d          -0.486  -3.612   8.153  0.00  0.00     0.036 A 
ATOM     20  C1  <0> d          -0.528  -4.582   9.181  0.00  0.00     0.027 A 
ATOM     21  C4  <0> d          -1.826  -4.845   9.416  0.00  0.00     0.142 A 
ATOM     22  O1  <0> d          -2.568  -4.088   8.592  0.00  0.00    -0.325 OA
ENDBRANCH  17  18
ENDBRANCH  15  17
ENDBRANCH  12  15
ENDBRANCH  10  11
ENDBRANCH   1  10
BRANCH   7  23
ATOM     23  C15 <0> d          -1.296  -0.546  -0.423  0.00  0.00     0.241 C 
BRANCH  23  24
ATOM     24  N4  <0> d          -0.020  -0.066   0.137  0.00  0.00    -0.069 N 
ATOM     25  C16 <0> d           0.946   0.186  -0.959  0.00  0.00     0.245 C 
ATOM     26  C17 <0> d           2.359   0.268  -0.370  0.00  0.00     0.101 C 
ATOM     27  S2  <0> d           2.422   1.682   0.774  0.00  0.00    -0.166 SA
ATOM     28  C18 <0> d           0.968   1.406   1.833  0.00  0.00     0.101 C 
ATOM     29  C19 <0> d          -0.247   1.162   0.930  0.00  0.00     0.245 C 
ATOM     30  H32 <0> d           0.365  -0.790   0.754  0.00  0.00     0.280 HD
ENDBRANCH  23  24
ENDBRANCH   7  23
TORSDOF 7
