REMARK  2 active torsions:
REMARK  status: ('A' for Active; 'I' for Inactive)
REMARK    1  A    between atoms: N1_4  and  C7_9 
REMARK    2  A    between atoms: C10_14  and  N3_20 
ROOT
ATOM      1  C7  <0> d          -2.088  -2.842  -0.651  0.00  0.00     0.170 A 
ATOM      2  N2  <0> d          -2.155  -4.155  -0.621  0.00  0.00    -0.228 NA
ATOM      3  C8  <0> d          -2.873  -4.842  -1.506  0.00  0.00     0.053 A 
ATOM      4  C9  <0> d          -3.521  -4.085  -2.427  0.00  0.00     0.041 A 
ATOM      5  S1  <0> d          -3.064  -2.438  -1.964  0.00  0.00    -0.053 SA
ATOM      6  C10 <0> d          -4.398  -4.553  -3.538  0.00  0.00     0.226 C 
ATOM      7  C11 <0> d          -4.765  -6.022  -3.274  0.00  0.00     0.047 C 
ATOM      8  C12 <0> d          -3.491  -6.791  -2.910  0.00  0.00    -0.040 C 
ATOM      9  C13 <0> d          -2.992  -6.360  -1.530  0.00  0.00     0.069 C 
ATOM     10  C14 <0> d          -3.791  -8.291  -2.895  0.00  0.00     0.015 C 
ATOM     11  C15 <0> d          -2.410  -6.503  -3.954  0.00  0.00     0.015 C 
ENDROOT
BRANCH   1  12
ATOM     12  N1  <0> d          -1.389  -1.995   0.196  0.00  0.00    -0.351 N 
ATOM     13  C3  <0> d          -1.436  -0.536   0.015  0.00  0.00     0.157 C 
ATOM     14  C2  <0> d           0.002  -0.004   0.002  0.00  0.00     0.135 C 
ATOM     15  C1  <0> d          -0.019   1.526   0.010  0.00  0.00     0.041 C 
ATOM     16  O1  <0> d           0.691  -0.479   1.161  0.00  0.00    -0.383 OA
ATOM     17  C5  <0> d           0.818  -1.901   1.226  0.00  0.00     0.193 C 
ATOM     18  C4  <0> d          -0.578  -2.530   1.302  0.00  0.00     0.106 C 
ATOM     19  C6  <0> d          -1.232  -2.175   2.639  0.00  0.00     0.034 C 
ENDBRANCH   1  12
BRANCH   6  20
ATOM     20  N3  <0> d          -5.619  -3.737  -3.583  0.00  0.00    -0.070 N 
ATOM     21  H24 <0> d          -5.372  -2.771  -3.736  0.00  0.00     0.275 HD
ATOM     22  H25 <0> d          -6.210  -4.057  -4.335  0.00  0.00     0.275 HD
ATOM     23  H26 <0> d          -6.113  -3.824  -2.707  0.00  0.00     0.275 HD
ENDBRANCH   6  20
TORSDOF 2
