REMARK  7 active torsions:
REMARK  status: ('A' for Active; 'I' for Inactive)
REMARK    1  A    between atoms: C2_2  and  C3_3 
REMARK    2  A    between atoms: C2_2  and  N4_20 
REMARK       I    between atoms: C3_3  and  N1_5 
REMARK    3  A    between atoms: N1_5  and  C4_6 
REMARK    4  A    between atoms: C4_6  and  C5_7 
REMARK    5  A    between atoms: C5_7  and  C6_8 
REMARK    6  A    between atoms: C5_7  and  N2_13 
REMARK       I    between atoms: N4_20  and  C15_21 
REMARK    7  A    between atoms: C15_21  and  C16_23 
ROOT
ATOM      1  C3  <0> d           0.570  -0.322  -1.572  0.00  0.00     0.240 C 
ATOM      2  O1  <0> d           0.011  -0.928  -2.462  0.00  0.00    -0.271 OA
ATOM      3  N1  <0> d           1.889  -0.061  -1.659  0.00  0.00    -0.357 N 
ATOM      4  H6  <0> d           2.336   0.423  -0.947  0.00  0.00     0.162 HD
ENDROOT
BRANCH   3   5
ATOM      5  C4  <0> d           2.649  -0.510  -2.828  0.00  0.00     0.164 C 
BRANCH   5   6
ATOM      6  C5  <0> d           4.112  -0.089  -2.678  0.00  0.00     0.280 C 
BRANCH   6   7
ATOM      7  C6  <0> d           4.868  -0.441  -3.933  0.00  0.00     0.017 A 
ATOM      8  S1  <0> d           4.761   0.298  -5.555  0.00  0.00    -0.104 SA
ATOM      9  C9  <0> d           5.973  -0.722  -6.377  0.00  0.00     0.050 A 
ATOM     10  C8  <0> d           6.368  -1.549  -5.378  0.00  0.00     0.008 A 
ATOM     11  C7  <0> d           5.801  -1.405  -4.126  0.00  0.00     0.017 A 
ENDBRANCH   6   7
BRANCH   6  12
ATOM     12  N2  <0> d           4.184   1.361  -2.454  0.00  0.00     0.102 N 
ATOM     13  C13 <0> d           5.580   1.821  -2.418  0.00  0.00     0.301 C 
ATOM     14  C12 <0> d           5.612   3.322  -2.124  0.00  0.00     0.264 C 
ATOM     15  N3  <0> d           4.868   4.042  -3.166  0.00  0.00    -0.072 N 
ATOM     16  C11 <0> d           3.470   3.590  -3.173  0.00  0.00     0.264 C 
ATOM     17  C14 <0> d           4.915   5.484  -2.893  0.00  0.00     0.269 C 
ATOM     18  H27 <0> d           5.285   3.856  -4.066  0.00  0.00     0.279 HD
ATOM     19  C10 <0> d           3.420   2.091  -3.475  0.00  0.00     0.301 C 
ENDBRANCH   6  12
ENDBRANCH   5   6
ENDBRANCH   3   5
BRANCH   1  20
ATOM     20  C2  <0> d          -0.212   0.139  -0.369  0.00  0.00     0.172 C 
ATOM     21  C1  <0> d          -0.129   1.663  -0.260  0.00  0.00     0.042 C 
BRANCH  20  22
ATOM     22  N4  <0> d          -1.613  -0.264  -0.513  0.00  0.00    -0.342 N 
ATOM     23  C15 <0> d          -2.383  -0.429   0.581  0.00  0.00     0.276 C 
ATOM     24  O2  <0> d          -1.914  -0.243   1.688  0.00  0.00    -0.265 OA
ATOM     25  H23 <0> d          -1.987  -0.412  -1.396  0.00  0.00     0.163 HD
BRANCH  23  26
ATOM     26  C16 <0> d          -3.785  -0.833   0.437  0.00  0.00     0.142 A 
ATOM     27  O3  <0> d          -4.426  -1.070  -0.727  0.00  0.00    -0.317 OA
ATOM     28  C19 <0> d          -5.694  -1.419  -0.472  0.00  0.00     0.143 A 
ATOM     29  C18 <0> d          -5.889  -1.403   0.865  0.00  0.00     0.027 A 
ATOM     30  C17 <0> d          -4.673  -1.029   1.456  0.00  0.00     0.045 A 
ENDBRANCH  23  26
ENDBRANCH  20  22
ENDBRANCH   1  20
TORSDOF 7
