REMARK  1 active torsions:
REMARK  status: ('A' for Active; 'I' for Inactive)
REMARK    1  A    between atoms: N1_2  and  C2_3 
ROOT
ATOM      1  C2  <0> d           0.690  -0.478  -1.207  0.00  0.00     0.221 C 
ATOM      2  C3  <0> d           0.961  -1.975  -1.064  0.00  0.00     0.039 C 
ATOM      3  C4  <0> d          -0.045  -2.559  -0.059  0.00  0.00     0.018 C 
ATOM      4  C5  <0> d          -1.458  -2.426  -0.571  0.00  0.00     0.146 C 
ATOM      5  S1  <0> d          -1.390  -2.590  -2.381  0.00  0.00     0.177 S 
ATOM      6  O1  <0> d          -0.221  -3.301  -2.765  0.00  0.00    -0.223 OA
ATOM      7  O2  <0> d          -2.664  -2.962  -2.888  0.00  0.00    -0.223 OA
ATOM      8  C6  <0> d          -1.132  -0.949  -2.970  0.00  0.00     0.090 A 
ATOM      9  C7  <0> d          -0.162  -0.147  -2.413  0.00  0.00     0.017 A 
ATOM     10  C8  <0> d           0.063   1.108  -2.983  0.00  0.00     0.044 A 
ATOM     11  C9  <0> d          -0.701   1.556  -4.039  0.00  0.00     0.026 A 
ATOM     12  C10 <0> d          -1.712   0.763  -4.548  0.00  0.00     0.027 A 
ATOM     13  C11 <0> d          -1.917  -0.487  -4.014  0.00  0.00     0.056 A 
ATOM     14 Cl1  <0> d          -3.175  -1.496  -4.657  0.00  0.00    -0.083 Cl
ATOM     15 Cl2  <0> d           1.324   2.119  -2.351  0.00  0.00    -0.084 Cl
ENDROOT
BRANCH   1  16
ATOM     16  N1  <0> d           0.002  -0.004   0.002  0.00  0.00    -0.071 N 
ATOM     17  C1  <0> d          -0.041   1.464  -0.003  0.00  0.00     0.267 C 
ATOM     18  H5  <0> d           0.500  -0.323   0.819  0.00  0.00     0.277 HD
ATOM     19  H14 <0> d          -0.939  -0.368   0.018  0.00  0.00     0.277 HD
ENDBRANCH   1  16
TORSDOF 1
