REMARK  7 active torsions:
REMARK  status: ('A' for Active; 'I' for Inactive)
REMARK    1  A    between atoms: C4_4  and  C7_7 
REMARK    2  A    between atoms: C14_15  and  C15_16 
REMARK    3  A    between atoms: C14_15  and  N3_32 
REMARK       I    between atoms: C15_16  and  N1_18 
REMARK    4  A    between atoms: N1_18  and  C16_19 
REMARK    5  A    between atoms: N1_18  and  C19_24 
REMARK    6  A    between atoms: C16_19  and  C17_20 
REMARK    7  A    between atoms: C17_20  and  C18_21 
REMARK       I    between atoms: C18_21  and  N2_23 
ROOT
ATOM      1  C14 <0> d          -1.204  -1.502   1.354  0.00  0.00     0.338 C 
ENDROOT
BRANCH   1   2
ATOM      2  C15 <0> d          -0.097  -0.485   1.247  0.00  0.00     0.250 C 
ATOM      3  O1  <0> d           0.284   0.102   2.238  0.00  0.00    -0.271 OA
ATOM      4  N1  <0> d           0.470  -0.229   0.052  0.00  0.00    -0.316 N 
BRANCH   4   5
ATOM      5  C16 <0> d           1.468   0.836  -0.072  0.00  0.00     0.141 C 
BRANCH   5   6
ATOM      6  C17 <0> d           2.863   0.260   0.179  0.00  0.00     0.123 C 
BRANCH   6   7
ATOM      7  C18 <0> d           3.890   1.356   0.051  0.00  0.00     0.216 C 
ATOM      8  O2  <0> d           3.540   2.486  -0.214  0.00  0.00    -0.274 OA
ATOM      9  N2  <0> d           5.196   1.080   0.232  0.00  0.00    -0.370 N 
ATOM     10  H19 <0> d           5.476   0.175   0.444  0.00  0.00     0.159 HD
ATOM     11  H20 <0> d           5.857   1.785   0.150  0.00  0.00     0.159 HD
ENDBRANCH   6   7
ENDBRANCH   5   6
ENDBRANCH   4   5
BRANCH   4  12
ATOM     12  C19 <0> d           0.106  -0.981  -1.071  0.00  0.00     0.037 A 
ATOM     13  C24 <0> d          -0.941  -0.559  -1.880  0.00  0.00     0.029 A 
ATOM     14  C23 <0> d          -1.298  -1.304  -2.988  0.00  0.00     0.002 A 
ATOM     15  C22 <0> d          -0.614  -2.467  -3.291  0.00  0.00     0.000 A 
ATOM     16  C21 <0> d           0.428  -2.889  -2.486  0.00  0.00     0.002 A 
ATOM     17  C20 <0> d           0.794  -2.147  -1.381  0.00  0.00     0.029 A 
ENDBRANCH   4  12
ENDBRANCH   1   2
BRANCH   1  18
ATOM     18  N3  <0> d          -1.738  -1.481   2.729  0.00  0.00    -0.050 N 
ATOM     19  C7  <0> d          -2.832  -2.473   2.860  0.00  0.00     0.255 C 
ATOM     20  C8  <0> d          -3.392  -2.380   4.276  0.00  0.00    -0.009 A 
ATOM     21  C11 <0> d          -3.173  -1.256   5.013  0.00  0.00    -0.007 A 
ATOM     22  C9  <0> d          -4.133  -3.390   4.886  0.00  0.00     0.018 A 
ATOM     23  S1  <0> d          -3.986  -1.592   6.550  0.00  0.00    -0.106 SA
ATOM     24  C12 <0> d          -2.416  -0.042   4.585  0.00  0.00     0.074 C 
ATOM     25  C10 <0> d          -4.591  -3.224   6.149  0.00  0.00     0.051 A 
ATOM     26  C13 <0> d          -2.227  -0.121   3.061  0.00  0.00     0.241 C 
ATOM     27  H26 <0> d          -0.986  -1.731   3.383  0.00  0.00     0.281 HD
BRANCH  19  28
ATOM     28  C4  <0> d          -2.267  -3.851   2.629  0.00  0.00    -0.023 A 
ATOM     29  C3  <0> d          -2.997  -4.788   1.923  0.00  0.00     0.009 A 
ATOM     30  C2  <0> d          -2.479  -6.052   1.711  0.00  0.00     0.001 A 
ATOM     31  C1  <0> d          -1.230  -6.379   2.205  0.00  0.00     0.000 A 
ATOM     32  C6  <0> d          -0.499  -5.441   2.911  0.00  0.00     0.001 A 
ATOM     33  C5  <0> d          -1.016  -4.176   3.119  0.00  0.00     0.009 A 
ENDBRANCH  19  28
ENDBRANCH   1  18
TORSDOF 7
