REMARK  5 active torsions:
REMARK  status: ('A' for Active; 'I' for Inactive)
REMARK    1  A    between atoms: C4_4  and  C7_7 
REMARK    2  A    between atoms: C7_7  and  N1_8 
REMARK    3  A    between atoms: C14_16  and  O3_30 
REMARK    4  A    between atoms: C15_18  and  C16_20 
REMARK    5  A    between atoms: C20_24  and  N4_26 
ROOT
ATOM      1  N1  <0> d           4.153  -0.953   1.342  0.00  0.00    -0.062 N 
ATOM      2  C8  <0> d           5.491  -1.559   1.326  0.00  0.00     0.240 C 
ATOM      3  C9  <0> d           6.098  -1.536   2.732  0.00  0.00     0.068 C 
ATOM      4  C10 <0> d           5.088  -2.156   3.689  0.00  0.00    -0.024 A 
ATOM      5  C11 <0> d           3.792  -2.285   3.315  0.00  0.00     0.018 A 
ATOM      6  S1  <0> d           2.997  -3.039   4.705  0.00  0.00    -0.074 SA
ATOM      7  C12 <0> d           4.297  -3.173   5.726  0.00  0.00     0.087 A 
ATOM      8  C13 <0> d           5.385  -2.645   5.020  0.00  0.00     0.057 A 
ATOM      9  C14 <0> d           6.707  -2.650   5.697  0.00  0.00     0.173 C 
ATOM     10  N2  <0> d           6.732  -2.906   6.977  0.00  0.00    -0.235 NA
ATOM     11  C15 <0> d           5.549  -3.125   7.799  0.00  0.00     0.243 C 
ATOM     12  N3  <0> d           4.428  -3.662   7.006  0.00  0.00    -0.357 N 
ATOM     13  C22 <0> d           3.204  -1.866   2.006  0.00  0.00     0.282 C 
ATOM     14  H13 <0> d           3.817  -4.324   7.366  0.00  0.00     0.162 HD
ATOM     15  H20 <0> d           4.187  -0.079   1.845  0.00  0.00     0.280 HD
ENDROOT
BRANCH  11  16
ATOM     16  C16 <0> d           5.130  -1.815   8.415  0.00  0.00    -0.012 A 
ATOM     17  C21 <0> d           6.078  -0.850   8.699  0.00  0.00     0.049 A 
ATOM     18  C20 <0> d           5.693   0.353   9.260  0.00  0.00     0.125 A 
ATOM     19  C19 <0> d           4.361   0.587   9.547  0.00  0.00     0.067 A 
ATOM     20  C18 <0> d           3.413  -0.381   9.268  0.00  0.00     0.027 A 
ATOM     21 Cl1  <0> d           3.878   2.096  10.258  0.00  0.00    -0.082 Cl
ATOM     22  C17 <0> d           3.797  -1.582   8.702  0.00  0.00     0.013 A 
BRANCH  18  23
ATOM     23  N4  <0> d           6.708   1.388   9.559  0.00  0.00    -0.114 N 
ATOM     24  O1  <0> d           7.873   1.183   9.308  0.00  0.00    -0.532 OA
ATOM     25  O2  <0> d           6.372   2.439  10.054  0.00  0.00    -0.532 OA
ENDBRANCH  18  23
ENDBRANCH  11  16
BRANCH   9  26
ATOM     26  O3  <0> d           7.846  -2.398   5.011  0.00  0.00    -0.344 OA
ATOM     27  H17 <0> d           8.647  -2.428   5.553  0.00  0.00     0.219 HD
ENDBRANCH   9  26
BRANCH   1  28
ATOM     28  C7  <0> d           3.711  -0.707  -0.038  0.00  0.00     0.273 C 
BRANCH  28  29
ATOM     29  C4  <0> d           2.396   0.029  -0.020  0.00  0.00    -0.033 A 
ATOM     30  C3  <0> d           2.377   1.411  -0.013  0.00  0.00     0.009 A 
ATOM     31  C2  <0> d           1.171   2.086   0.002  0.00  0.00     0.001 A 
ATOM     32  C1  <0> d          -0.017   1.378   0.010  0.00  0.00     0.000 A 
ATOM     33  C6  <0> d           0.002  -0.004   0.002  0.00  0.00     0.001 A 
ATOM     34  C5  <0> d           1.208  -0.679  -0.012  0.00  0.00     0.009 A 
ENDBRANCH  28  29
ENDBRANCH   1  28
TORSDOF 5
