REMARK  6 active torsions:
REMARK  status: ('A' for Active; 'I' for Inactive)
REMARK    1  A    between atoms: C2_2  and  C3_3 
REMARK    2  A    between atoms: C3_3  and  C4_4 
REMARK    3  A    between atoms: C4_4  and  N1_5 
REMARK    4  A    between atoms: C5_6  and  N4_35 
REMARK    5  A    between atoms: C6_7  and  N3_14 
REMARK       I    between atoms: N3_14  and  C10_16 
REMARK    6  A    between atoms: C10_16  and  C11_18 
ROOT
ATOM      1  N3  <0> d           4.466   9.646  -1.991  0.00  0.00    -0.310 N 
ATOM      2  C9  <0> d           5.693   8.846  -2.015  0.00  0.00     0.160 C 
ATOM      3  C10 <0> d           3.307   9.089  -1.588  0.00  0.00     0.258 C 
ATOM      4  O3  <0> d           3.296   7.954  -1.153  0.00  0.00    -0.267 OA
ENDROOT
BRANCH   3   5
ATOM      5  C11 <0> d           2.046   9.860  -1.675  0.00  0.00     0.034 A 
ATOM      6  C16 <0> d           0.956   9.511  -0.876  0.00  0.00     0.041 A 
ATOM      7  C15 <0> d          -0.219  10.228  -0.957  0.00  0.00     0.079 A 
ATOM      8  C14 <0> d          -0.326  11.304  -1.837  0.00  0.00     0.037 A 
ATOM      9  S1  <0> d          -1.583   9.775   0.062  0.00  0.00     0.208 S 
ATOM     10  C13 <0> d           0.771  11.652  -2.637  0.00  0.00     0.018 A 
ATOM     11  C23 <0> d          -1.567  12.088  -1.948  0.00  0.00     0.195 C 
ATOM     12  C12 <0> d           1.944  10.938  -2.556  0.00  0.00     0.018 A 
ATOM     13  C22 <0> d          -2.597  12.135  -0.901  0.00  0.00     0.037 A 
ATOM     14  O6  <0> d          -1.751  12.731  -2.963  0.00  0.00    -0.287 OA
ATOM     15  C17 <0> d          -2.701  11.136   0.067  0.00  0.00     0.078 A 
ATOM     16  C21 <0> d          -3.496  13.209  -0.875  0.00  0.00     0.017 A 
ATOM     17  C18 <0> d          -3.683  11.210   1.034  0.00  0.00     0.025 A 
ATOM     18  C19 <0> d          -4.563  12.277   1.055  0.00  0.00     0.002 A 
ATOM     19  C20 <0> d          -4.470  13.272   0.096  0.00  0.00     0.001 A 
ATOM     20  O4  <0> d          -2.246   8.706  -0.599  0.00  0.00    -0.217 OA
ATOM     21  O5  <0> d          -1.081   9.657   1.386  0.00  0.00    -0.217 OA
ENDBRANCH   3   5
BRANCH   1  22
ATOM     22  C6  <0> d           4.498  10.998  -2.388  0.00  0.00     0.150 A 
ATOM     23  C5  <0> d           4.962  11.351  -3.639  0.00  0.00     0.138 A 
ATOM     24  N1  <0> d           4.977  12.678  -4.000  0.00  0.00    -0.284 N 
ATOM     25  C8  <0> d           4.554  13.622  -3.140  0.00  0.00     0.331 A 
ATOM     26  N2  <0> d           4.103  13.297  -1.915  0.00  0.00    -0.273 N 
ATOM     27  O2  <0> d           4.579  14.790  -3.476  0.00  0.00    -0.246 OA
ATOM     28  C7  <0> d           4.062  12.012  -1.514  0.00  0.00     0.280 A 
ATOM     29  H1  <0> d           3.793  14.018  -1.296  0.00  0.00     0.173 HD
ATOM     30  O1  <0> d           3.651  11.728  -0.402  0.00  0.00    -0.265 OA
BRANCH  23  31
ATOM     31  N4  <0> d           5.400  10.387  -4.516  0.00  0.00    -0.383 N 
ATOM     32  H21 <0> d           5.243   9.449  -4.324  0.00  0.00     0.157 HD
ATOM     33  H22 <0> d           5.866  10.645  -5.327  0.00  0.00     0.157 HD
ENDBRANCH  23  31
BRANCH  24  34
ATOM     34  C4  <0> d           5.462  13.066  -5.327  0.00  0.00     0.135 C 
BRANCH  34  35
ATOM     35  C3  <0> d           6.969  13.323  -5.264  0.00  0.00     0.020 C 
BRANCH  35  36
ATOM     36  C2  <0> d           7.475  13.729  -6.649  0.00  0.00    -0.003 C 
ATOM     37  C1  <0> d           8.982  13.986  -6.586  0.00  0.00     0.005 C 
ENDBRANCH  35  36
ENDBRANCH  34  35
ENDBRANCH  24  34
ENDBRANCH   1  22
TORSDOF 6
