REMARK  4 active torsions:
REMARK  status: ('A' for Active; 'I' for Inactive)
REMARK    1  A    between atoms: C3_4  and  C5_7 
REMARK    2  A    between atoms: C5_7  and  N3_8 
REMARK    3  A    between atoms: N3_8  and  C6_9 
REMARK    4  A    between atoms: C9_15  and  O3_16 
ROOT
ATOM      1  C6  <0> d           1.478  -4.864  -2.719  0.00  0.00     0.264 C 
ATOM      2  C7  <0> d           1.350  -6.123  -1.833  0.00  0.00     0.178 C 
ATOM      3  S1  <0> d           2.487  -7.291  -2.700  0.00  0.00     0.149 S 
ATOM      4  O1  <0> d           3.131  -8.119  -1.742  0.00  0.00    -0.228 OA
ATOM      5  O2  <0> d           1.806  -7.881  -3.799  0.00  0.00    -0.228 OA
ATOM      6  C8  <0> d           3.685  -6.034  -3.325  0.00  0.00     0.174 C 
ATOM      7  C9  <0> d           2.762  -4.817  -3.535  0.00  0.00     0.166 C 
ENDROOT
BRANCH   1   8
ATOM      8  N3  <0> d           1.428  -3.676  -1.856  0.00  0.00     0.095 N 
ATOM      9  H10 <0> d           1.932  -2.906  -2.270  0.00  0.00     0.316 HD
BRANCH   8  10
ATOM     10  C5  <0> d           0.039  -3.298  -1.561  0.00  0.00     0.311 C 
BRANCH  10  11
ATOM     11  C3  <0> d           0.027  -2.079  -0.676  0.00  0.00     0.006 A 
ATOM     12  C2  <0> d           0.008  -0.792  -1.094  0.00  0.00     0.122 A 
ATOM     13  N1  <0> d           0.002  -0.004   0.002  0.00  0.00    -0.285 N 
ATOM     14  C1  <0> d          -0.018   1.461   0.010  0.00  0.00     0.179 C 
ATOM     15  N2  <0> d           0.025  -0.834   1.130  0.00  0.00    -0.185 NA
ATOM     16  C4  <0> d           0.034  -2.078   0.723  0.00  0.00     0.149 A 
ENDBRANCH  10  11
ENDBRANCH   8  10
ENDBRANCH   1   8
BRANCH   7  17
ATOM     17  O3  <0> d           2.419  -4.742  -4.920  0.00  0.00    -0.392 OA
ATOM     18  H15 <0> d           3.182  -4.708  -5.513  0.00  0.00     0.210 HD
ENDBRANCH   7  17
TORSDOF 4
