REMARK  7 active torsions:
REMARK  status: ('A' for Active; 'I' for Inactive)
REMARK    1  A    between atoms: C4_4  and  C22_26 
REMARK    2  A    between atoms: C5_5  and  C7_7 
REMARK    3  A    between atoms: C7_7  and  N1_8 
REMARK    4  A    between atoms: N2_11  and  C12_14 
REMARK    5  A    between atoms: C12_14  and  C13_15 
REMARK    6  A    between atoms: C13_15  and  O1_25 
REMARK    7  A    between atoms: C22_26  and  O2_27 
ROOT
ATOM      1  N1  <0> d           0.763  -3.089   0.917  0.00  0.00    -0.064 N 
ATOM      2  C8  <0> d           0.036  -2.415   2.000  0.00  0.00     0.265 C 
ATOM      3  C9  <0> d           0.573  -2.894   3.350  0.00  0.00     0.300 C 
ATOM      4  N2  <0> d           0.403  -4.350   3.454  0.00  0.00     0.094 N 
ATOM      5  C10 <0> d           1.105  -5.037   2.362  0.00  0.00     0.300 C 
ATOM      6  C11 <0> d           0.563  -4.541   1.019  0.00  0.00     0.265 C 
ATOM      7  H37 <0> d           1.747  -2.880   0.992  0.00  0.00     0.280 HD
ENDROOT
BRANCH   4   8
ATOM      8  C12 <0> d           0.856  -4.841   4.763  0.00  0.00     0.312 C 
BRANCH   8   9
ATOM      9  C13 <0> d          -0.220  -4.559   5.814  0.00  0.00     0.113 C 
ATOM     10  C17 <0> d          -1.465  -5.396   5.506  0.00  0.00     0.224 C 
ATOM     11  N3  <0> d          -1.136  -6.824   5.557  0.00  0.00    -0.064 N 
ATOM     12  C18 <0> d          -1.958  -5.021   4.105  0.00  0.00     0.036 C 
ATOM     13  C16 <0> d          -0.662  -7.188   6.901  0.00  0.00     0.235 C 
ATOM     14  C21 <0> d          -2.329  -7.631   5.262  0.00  0.00     0.235 C 
ATOM     15  H36 <0> d          -0.416  -7.028   4.880  0.00  0.00     0.280 HD
ATOM     16  C15 <0> d           0.617  -6.421   7.234  0.00  0.00     0.031 C 
ATOM     17  C14 <0> d           0.317  -4.919   7.200  0.00  0.00     0.043 C 
ATOM     18  C20 <0> d          -2.827  -7.337   3.847  0.00  0.00     0.028 C 
ATOM     19  C19 <0> d          -3.192  -5.852   3.750  0.00  0.00     0.004 C 
BRANCH   9  20
ATOM     20  O1  <0> d          -0.561  -3.171   5.784  0.00  0.00    -0.386 OA
ATOM     21  H32 <0> d           0.156  -2.584   6.059  0.00  0.00     0.210 HD
ENDBRANCH   9  20
ENDBRANCH   8   9
ENDBRANCH   4   8
BRANCH   1  22
ATOM     22  C7  <0> d           0.259  -2.616  -0.380  0.00  0.00     0.274 C 
BRANCH  22  23
ATOM     23  C5  <0> d           0.575  -1.151  -0.537  0.00  0.00    -0.024 A 
ATOM     24  C4  <0> d           1.841  -0.754  -0.923  0.00  0.00    -0.027 A 
ATOM     25  C3  <0> d           2.130   0.590  -1.068  0.00  0.00     0.010 A 
ATOM     26  C2  <0> d           1.152   1.537  -0.827  0.00  0.00     0.001 A 
ATOM     27  C1  <0> d          -0.115   1.140  -0.442  0.00  0.00     0.001 A 
ATOM     28  C6  <0> d          -0.404  -0.204  -0.297  0.00  0.00     0.009 A 
BRANCH  24  29
ATOM     29  C22 <0> d           2.906  -1.787  -1.187  0.00  0.00     0.203 C 
BRANCH  29  30
ATOM     30  O2  <0> d           4.118  -1.133  -1.569  0.00  0.00    -0.396 OA
ATOM     31  H35 <0> d           4.850  -1.738  -1.755  0.00  0.00     0.209 HD
ENDBRANCH  29  30
ENDBRANCH  24  29
ENDBRANCH  22  23
ENDBRANCH   1  22
TORSDOF 7
