REMARK  4 active torsions:
REMARK  status: ('A' for Active; 'I' for Inactive)
REMARK    1  A    between atoms: C4_4  and  C7_7 
REMARK    2  A    between atoms: C7_7  and  C8_8 
REMARK    3  A    between atoms: C7_7  and  C9_10 
REMARK    4  A    between atoms: C8_8  and  N1_9 
ROOT
ATOM      1  C7  <0> d           3.711  -0.707  -0.038  0.00  0.00     0.113 C 
ENDROOT
BRANCH   1   2
ATOM      2  C4  <0> d           2.396   0.029  -0.020  0.00  0.00    -0.045 A 
ATOM      3  C3  <0> d           2.377   1.411  -0.013  0.00  0.00     0.008 A 
ATOM      4  C2  <0> d           1.171   2.086   0.002  0.00  0.00     0.001 A 
ATOM      5  C1  <0> d          -0.017   1.378   0.010  0.00  0.00     0.000 A 
ATOM      6  C6  <0> d           0.002  -0.004   0.002  0.00  0.00     0.001 A 
ATOM      7  C5  <0> d           1.208  -0.679  -0.012  0.00  0.00     0.008 A 
ENDBRANCH   1   2
BRANCH   1   8
ATOM      8  C8  <0> d           3.817  -1.592   1.206  0.00  0.00     0.246 C 
BRANCH   8   9
ATOM      9  N1  <0> d           5.146  -2.216   1.251  0.00  0.00    -0.078 N 
ATOM     10  H9  <0> d           5.216  -2.800   2.071  0.00  0.00     0.274 HD
ATOM     11  H10 <0> d           5.281  -2.780   0.425  0.00  0.00     0.274 HD
ATOM     12  H14 <0> d           5.854  -1.498   1.288  0.00  0.00     0.274 HD
ENDBRANCH   8   9
ENDBRANCH   1   8
BRANCH   1  13
ATOM     13  C9  <0> d           3.790  -1.566  -1.273  0.00  0.00     0.115 A 
ATOM     14  N3  <0> d           2.735  -2.207  -1.846  0.00  0.00    -0.342 N 
ATOM     15  C15 <0> d           3.214  -2.880  -2.952  0.00  0.00     0.062 A 
ATOM     16  H15 <0> d           1.816  -2.191  -1.536  0.00  0.00     0.167 HD
ATOM     17  C10 <0> d           4.593  -2.616  -2.998  0.00  0.00     0.086 A 
ATOM     18  C14 <0> d           2.631  -3.689  -3.917  0.00  0.00     0.033 A 
ATOM     19  N2  <0> d           4.878  -1.808  -1.945  0.00  0.00    -0.233 NA
ATOM     20  C11 <0> d           5.367  -3.174  -4.020  0.00  0.00     0.053 A 
ATOM     21  C12 <0> d           4.771  -3.975  -4.969  0.00  0.00     0.013 A 
ATOM     22  C13 <0> d           3.407  -4.232  -4.918  0.00  0.00     0.021 A 
ATOM     23 Br1  <0> d           5.818  -4.729  -6.351  0.00  0.00    -0.051 Br
ENDBRANCH   1  13
TORSDOF 4
