REMARK  3 active torsions:
REMARK  status: ('A' for Active; 'I' for Inactive)
REMARK    1  A    between atoms: C6_6  and  C8_8 
REMARK    2  A    between atoms: C9_9  and  C10_10 
REMARK       I    between atoms: C10_10  and  N1_12 
REMARK    3  A    between atoms: N1_12  and  C11_13 
ROOT
ATOM      1  C10 <0> d          -0.319   1.850   3.605  0.00  0.00     0.241 C 
ATOM      2  O1  <0> d          -1.491   1.615   3.837  0.00  0.00    -0.269 OA
ATOM      3  N1  <0> d           0.125   1.875   2.333  0.00  0.00    -0.352 N 
ATOM      4  H11 <0> d           1.184   2.087   2.124  0.00  0.00     0.163 HD
ENDROOT
BRANCH   1   5
ATOM      5  C9  <0> d           0.608   2.107   4.710  0.00  0.00     0.075 C 
ATOM      6  C8  <0> d           0.163   2.083   5.982  0.00  0.00     0.017 C 
BRANCH   6   7
ATOM      7  C6  <0> d           1.095   2.342   7.092  0.00  0.00    -0.036 A 
ATOM      8  C5  <0> d           2.442   2.613   6.830  0.00  0.00     0.011 A 
ATOM      9  C4  <0> d           3.308   2.854   7.876  0.00  0.00     0.001 A 
ATOM     10  C3  <0> d           2.848   2.829   9.181  0.00  0.00     0.007 A 
ATOM     11  C2  <0> d           1.516   2.562   9.447  0.00  0.00    -0.061 A 
ATOM     12  C1  <0> d           1.026   2.538  10.872  0.00  0.00     0.048 C 
ATOM     13  C7  <0> d           0.637   2.323   8.413  0.00  0.00     0.018 A 
ENDBRANCH   6   7
ENDBRANCH   1   5
BRANCH   3  14
ATOM     14  C11 <0> d          -0.802   1.617   1.228  0.00  0.00     0.099 C 
ATOM     15  C14 <0> d          -0.013   1.086   0.008  0.00  0.00     0.165 C 
ATOM     16  S1  <0> d          -0.978   1.733  -1.417  0.00  0.00     0.146 S 
ATOM     17  C13 <0> d          -2.256   2.700  -0.507  0.00  0.00     0.142 C 
ATOM     18  O2  <0> d          -0.163   2.628  -2.160  0.00  0.00    -0.228 OA
ATOM     19  O3  <0> d          -1.608   0.645  -2.081  0.00  0.00    -0.228 OA
ATOM     20  C12 <0> d          -1.530   2.921   0.851  0.00  0.00     0.041 C 
ENDBRANCH   3  14
TORSDOF 3
