REMARK  4 active torsions:
REMARK  status: ('A' for Active; 'I' for Inactive)
REMARK    1  A    between atoms: C2_2  and  C3_3 
REMARK    2  A    between atoms: C2_2  and  N1_10 
REMARK    3  A    between atoms: N1_10  and  C9_11 
REMARK    4  A    between atoms: C12_14  and  N3_17 
ROOT
ATOM      1  N1  <0> d           0.688  -0.476  -1.203  0.00  0.00    -0.381 N 
ATOM      2  H9  <0> d           1.632  -0.695  -1.170  0.00  0.00     0.160 HD
ENDROOT
BRANCH   1   3
ATOM      3  C2  <0> d           0.002  -0.004   0.002  0.00  0.00     0.111 C 
ATOM      4  C1  <0> d          -0.019   1.526   0.010  0.00  0.00     0.037 C 
BRANCH   3   5
ATOM      5  C3  <0> d           0.731  -0.503   1.223  0.00  0.00    -0.035 A 
ATOM      6  C8  <0> d           0.018  -0.945   2.321  0.00  0.00     0.028 A 
ATOM      7  C7  <0> d           0.687  -1.409   3.440  0.00  0.00     0.011 A 
ATOM      8  C6  <0> d           2.070  -1.419   3.463  0.00  0.00     0.019 A 
ATOM      9 Br1  <0> d          -0.289  -2.021   4.939  0.00  0.00    -0.051 Br
ATOM     10  C5  <0> d           2.782  -0.971   2.366  0.00  0.00     0.002 A 
ATOM     11  C4  <0> d           2.113  -0.514   1.247  0.00  0.00     0.009 A 
ENDBRANCH   3   5
ENDBRANCH   1   3
BRANCH   1  12
ATOM     12  C9  <0> d          -0.020  -0.613  -2.404  0.00  0.00     0.044 A 
ATOM     13  C13 <0> d           0.620  -1.060  -3.549  0.00  0.00     0.118 A 
ATOM     14  N2  <0> d          -0.042  -1.197  -4.683  0.00  0.00    -0.351 N 
ATOM     15  C12 <0> d          -1.330  -0.906  -4.775  0.00  0.00     0.098 A 
ATOM     16  H15 <0> d           0.428  -1.516  -5.469  0.00  0.00     0.166 HD
ATOM     17  C11 <0> d          -2.036  -0.447  -3.669  0.00  0.00     0.050 A 
ATOM     18  C10 <0> d          -1.377  -0.297  -2.463  0.00  0.00     0.034 A 
BRANCH  15  19
ATOM     19  N3  <0> d          -1.985  -1.060  -5.995  0.00  0.00    -0.385 N 
ATOM     20  H13 <0> d          -2.929  -0.849  -6.069  0.00  0.00     0.157 HD
ATOM     21  H14 <0> d          -1.497  -1.380  -6.770  0.00  0.00     0.157 HD
ENDBRANCH  15  19
ENDBRANCH   1  12
TORSDOF 4
