REMARK  6 active torsions:
REMARK  status: ('A' for Active; 'I' for Inactive)
REMARK    1  A    between atoms: C4_4  and  C9_13 
REMARK    2  A    between atoms: N1_6  and  C6_7 
REMARK    3  A    between atoms: C11_16  and  N6_18 
REMARK    4  A    between atoms: N6_18  and  C12_19 
REMARK    5  A    between atoms: C12_19  and  C13_20 
REMARK    6  A    between atoms: C18_25  and  O1_26 
ROOT
ATOM      1  C9  <0> d           0.041  -3.341  -1.521  0.00  0.00     0.078 A 
ATOM      2  C10 <0> d           0.038  -3.214  -2.880  0.00  0.00     0.086 A 
ATOM      3  S1  <0> d           0.057  -4.932  -3.374  0.00  0.00    -0.062 SA
ATOM      4  C11 <0> d           0.067  -5.637  -1.732  0.00  0.00     0.167 A 
ATOM      5  N5  <0> d           0.060  -4.550  -0.980  0.00  0.00    -0.223 NA
ENDROOT
BRANCH   1   6
ATOM      6  C4  <0> d           0.029  -2.134  -0.656  0.00  0.00     0.018 A 
ATOM      7  C3  <0> d           0.008  -0.784  -1.094  0.00  0.00     0.041 A 
ATOM      8  C2  <0> d           0.002  -0.004   0.002  0.00  0.00     0.031 A 
ATOM      9  C1  <0> d          -0.018   1.503   0.010  0.00  0.00     0.069 C 
ATOM     10  N1  <0> d           0.024  -0.809   1.107  0.00  0.00    -0.150 N 
ATOM     11  C5  <0> d           0.034  -2.115   0.703  0.00  0.00     0.043 A 
ATOM     12  C8  <0> d           0.055  -3.322   1.605  0.00  0.00     0.070 C 
BRANCH  10  13
ATOM     13  C6  <0> d           0.030  -0.371   2.428  0.00  0.00     0.753 A 
ATOM     14  N4  <0> d           0.017   0.881   2.828  0.00  0.00    -0.052 NA
ATOM     15  C7  <0> d           0.025   0.929   4.160  0.00  0.00     0.277 A 
ATOM     16  N3  <0> d           0.053  -0.289   4.631  0.00  0.00    -0.126 NA
ATOM     17  N2  <0> d           0.058  -1.155   3.525  0.00  0.00     0.045 NA
ENDBRANCH  10  13
ENDBRANCH   1   6
BRANCH   4  18
ATOM     18  N6  <0> d           0.082  -6.968  -1.348  0.00  0.00    -0.365 N 
ATOM     19  H10 <0> d           0.085  -7.202  -0.407  0.00  0.00     0.162 HD
BRANCH  18  20
ATOM     20  C12 <0> d           0.093  -8.023  -2.365  0.00  0.00     0.163 C 
BRANCH  20  21
ATOM     21  C13 <0> d           0.108  -9.370  -1.691  0.00  0.00    -0.007 A 
ATOM     22  C18 <0> d          -1.068  -9.911  -1.193  0.00  0.00     0.076 A 
ATOM     23  C17 <0> d          -1.052 -11.155  -0.578  0.00  0.00     0.037 A 
ATOM     24  C16 <0> d           0.137 -11.846  -0.453  0.00  0.00     0.003 A 
ATOM     25  C15 <0> d           1.310 -11.303  -0.945  0.00  0.00     0.001 A 
ATOM     26  C14 <0> d           1.295 -10.066  -1.563  0.00  0.00     0.011 A 
BRANCH  22  27
ATOM     27  O1  <0> d          -2.236  -9.226  -1.312  0.00  0.00    -0.355 OA
ATOM     28  C19 <0> d          -3.408  -9.844  -0.776  0.00  0.00     0.210 C 
ENDBRANCH  22  27
ENDBRANCH  20  21
ENDBRANCH  18  20
ENDBRANCH   4  18
TORSDOF 6
