REMARK  4 active torsions:
REMARK  status: ('A' for Active; 'I' for Inactive)
REMARK    1  A    between atoms: C3_5  and  C13_19 
REMARK    2  A    between atoms: C4_6  and  O4_18 
REMARK    3  A    between atoms: N2_7  and  C6_10 
REMARK    4  A    between atoms: C9_13  and  O3_16 
ROOT
ATOM      1  C1  <0> d           0.296   1.478  -0.147  0.00  0.00     0.164 C 
ATOM      2  N1  <0> d           0.177   0.018  -0.110  0.00  0.00    -0.274 N 
ATOM      3  C2  <0> d          -1.042  -0.546  -0.027  0.00  0.00     0.238 C 
ATOM      4  O1  <0> d          -2.035   0.149  -0.064  0.00  0.00    -0.272 OA
ATOM      5  C3  <0> d          -1.172  -2.042   0.112  0.00  0.00     0.163 C 
ATOM      6  C4  <0> d          -0.047  -2.720  -0.673  0.00  0.00     0.245 C 
ATOM      7  N2  <0> d           1.226  -2.063  -0.369  0.00  0.00    -0.272 N 
ATOM      8  C5  <0> d           1.287  -0.738  -0.166  0.00  0.00     0.333 C 
ATOM      9  O2  <0> d           2.372  -0.209  -0.024  0.00  0.00    -0.246 OA
ENDROOT
BRANCH   5  10
ATOM     10  C13 <0> d          -2.526  -2.491  -0.441  0.00  0.00     0.264 C 
ATOM     11  N4  <0> d          -2.641  -2.092  -1.853  0.00  0.00     0.091 N 
ATOM     12  C23 <0> d          -3.967  -2.350  -2.421  0.00  0.00     0.274 C 
ATOM     13  H24 <0> d          -2.375  -1.127  -1.979  0.00  0.00     0.316 HD
ATOM     14  C22 <0> d          -4.241  -3.865  -2.462  0.00  0.00     0.067 C 
ATOM     15  C15 <0> d          -3.926  -4.388  -1.082  0.00  0.00    -0.041 A 
ATOM     16  C14 <0> d          -2.636  -4.015  -0.360  0.00  0.00     0.146 A 
ATOM     17  C16 <0> d          -4.635  -5.117  -0.231  0.00  0.00    -0.005 A 
ATOM     18  N3  <0> d          -2.779  -4.497   1.012  0.00  0.00    -0.379 N 
ATOM     19  C21 <0> d          -3.918  -5.158   1.081  0.00  0.00     0.039 A 
ATOM     20  H25 <0> d          -2.148  -4.349   1.735  0.00  0.00     0.160 HD
ATOM     21  C20 <0> d          -4.499  -5.871   2.169  0.00  0.00     0.030 A 
ATOM     22  C19 <0> d          -5.685  -6.492   1.948  0.00  0.00     0.002 A 
ATOM     23  C18 <0> d          -6.369  -6.478   0.728  0.00  0.00     0.001 A 
ATOM     24  C17 <0> d          -5.915  -5.828  -0.376  0.00  0.00     0.014 A 
ENDBRANCH   5  10
BRANCH   6  25
ATOM     25  O4  <0> d          -0.314  -2.616  -2.073  0.00  0.00    -0.375 OA
ATOM     26  H15 <0> d           0.360  -3.025  -2.633  0.00  0.00     0.212 HD
ENDBRANCH   6  25
BRANCH   7  27
ATOM     27  C6  <0> d           2.398  -2.828  -0.295  0.00  0.00     0.041 A 
ATOM     28  C11 <0> d           3.049  -2.985   0.921  0.00  0.00     0.032 A 
ATOM     29  C10 <0> d           4.201  -3.744   0.994  0.00  0.00     0.039 A 
ATOM     30  C9  <0> d           4.713  -4.340  -0.149  0.00  0.00     0.068 A 
ATOM     31  C8  <0> d           4.066  -4.179  -1.365  0.00  0.00     0.039 A 
ATOM     32  C7  <0> d           2.911  -3.425  -1.439  0.00  0.00     0.032 A 
BRANCH  30  33
ATOM     33  O3  <0> d           5.850  -5.082  -0.077  0.00  0.00    -0.356 OA
ATOM     34  C12 <0> d           6.464  -5.206   1.207  0.00  0.00     0.210 C 
ENDBRANCH  30  33
ENDBRANCH   7  27
TORSDOF 4
