REMARK  5 active torsions:
REMARK  status: ('A' for Active; 'I' for Inactive)
REMARK    1  A    between atoms: C2_2  and  C3_3 
REMARK    2  A    between atoms: C2_2  and  C13_15 
REMARK    3  A    between atoms: C2_2  and  N3_18 
REMARK    4  A    between atoms: C3_3  and  N1_4 
REMARK    5  A    between atoms: C6_8  and  C7_9 
ROOT
ATOM      1  N1  <0> d           0.641  -0.118   2.668  0.00  0.00    -0.337 N 
ATOM      2  C4  <0> d           0.641   1.184   3.090  0.00  0.00     0.112 A 
ATOM      3  C5  <0> d          -0.234   1.268   4.113  0.00  0.00     0.136 A 
ATOM      4  N2  <0> d          -0.760   0.055   4.318  0.00  0.00    -0.241 NA
ATOM      5  C6  <0> d          -0.249  -0.792   3.453  0.00  0.00     0.139 A 
ENDROOT
BRANCH   1   6
ATOM      6  C3  <0> d           1.439  -0.680   1.576  0.00  0.00     0.180 C 
BRANCH   6   7
ATOM      7  C2  <0> d           2.328   0.413   0.979  0.00  0.00     0.224 C 
ATOM      8  C1  <0> d           3.194   1.025   2.082  0.00  0.00     0.060 C 
BRANCH   7   9
ATOM      9  C13 <0> d           1.463   1.485   0.367  0.00  0.00     0.212 C 
ATOM     10  O1  <0> d           1.662   1.847  -0.780  0.00  0.00    -0.646 OA
ATOM     11  O2  <0> d           0.565   1.989   1.018  0.00  0.00    -0.646 OA
ENDBRANCH   7   9
BRANCH   7  12
ATOM     12  N3  <0> d           3.192  -0.170  -0.056  0.00  0.00    -0.059 N 
ATOM     13  C14 <0> d           4.023  -1.226   0.537  0.00  0.00     0.268 C 
ATOM     14  H13 <0> d           2.621  -0.563  -0.789  0.00  0.00     0.278 HD
ATOM     15  H17 <0> d           3.786   0.549  -0.442  0.00  0.00     0.278 HD
ENDBRANCH   7  12
ENDBRANCH   6   7
ENDBRANCH   1   6
BRANCH   5  16
ATOM     16  C7  <0> d          -0.579  -2.230   3.350  0.00  0.00     0.010 A 
ATOM     17  C12 <0> d          -1.666  -2.751   4.051  0.00  0.00     0.015 A 
ATOM     18  C11 <0> d          -1.972  -4.093   3.947  0.00  0.00     0.001 A 
ATOM     19  C10 <0> d          -1.195  -4.923   3.158  0.00  0.00     0.000 A 
ATOM     20  C9  <0> d          -0.112  -4.413   2.464  0.00  0.00     0.001 A 
ATOM     21  C8  <0> d           0.200  -3.072   2.555  0.00  0.00     0.015 A 
ENDBRANCH   5  16
TORSDOF 5
