REMARK  7 active torsions:
REMARK  status: ('A' for Active; 'I' for Inactive)
REMARK    1  A    between atoms: C2_2  and  C3_3 
REMARK    2  A    between atoms: C10_10  and  C12_15 
REMARK    3  A    between atoms: C12_15  and  C13_16 
REMARK    4  A    between atoms: C12_15  and  N7_40 
REMARK    5  A    between atoms: N5_20  and  C14_21 
REMARK    6  A    between atoms: C14_21  and  C15_22 
REMARK    7  A    between atoms: N6_30  and  C25_33 
ROOT
ATOM      1  C12 <0> d           1.926   6.393  -1.845  0.00  0.00     0.299 C 
ENDROOT
BRANCH   1   2
ATOM      2  C10 <0> d           0.630   6.073  -2.545  0.00  0.00     0.049 A 
ATOM      3  C9  <0> d           0.391   4.811  -2.981  0.00  0.00     0.029 A 
ATOM      4  C7  <0> d          -0.880   4.533  -3.652  0.00  0.00    -0.008 A 
ATOM      5  C6  <0> d          -1.802   5.581  -3.831  0.00  0.00     0.045 A 
ATOM      6  C8  <0> d          -1.185   3.250  -4.120  0.00  0.00     0.021 A 
ATOM      7  C5  <0> d          -3.009   5.327  -4.473  0.00  0.00     0.031 A 
ATOM      8  N1  <0> d          -1.496   6.844  -3.369  0.00  0.00    -0.322 N 
ATOM      9  C4  <0> d          -3.288   4.056  -4.927  0.00  0.00     0.009 A 
ATOM     10  C3  <0> d          -2.377   3.024  -4.748  0.00  0.00    -0.058 A 
ATOM     11  C11 <0> d          -0.328   7.089  -2.749  0.00  0.00     0.254 A 
ATOM     12  H1  <0> d          -2.152   7.588  -3.497  0.00  0.00     0.169 HD
ATOM     13  O1  <0> d          -0.091   8.217  -2.354  0.00  0.00    -0.268 OA
BRANCH  10  14
ATOM     14  C2  <0> d          -2.705   1.642  -5.252  0.00  0.00     0.034 C 
ATOM     15  C1  <0> d          -3.425   0.857  -4.154  0.00  0.00     0.010 C 
ENDBRANCH  10  14
ENDBRANCH   1   2
BRANCH   1  16
ATOM     16  C13 <0> d           2.767   5.146  -1.752  0.00  0.00     0.184 A 
ATOM     17  N5  <0> d           3.026   4.433  -0.640  0.00  0.00    -0.228 N 
ATOM     18  N4  <0> d           3.784   3.449  -0.988  0.00  0.00    -0.044 NA
ATOM     19  N3  <0> d           3.996   3.516  -2.256  0.00  0.00    -0.023 NA
ATOM     20  N2  <0> d           3.388   4.545  -2.737  0.00  0.00    -0.111 NA
BRANCH  17  21
ATOM     21  C14 <0> d           2.542   4.723   0.712  0.00  0.00     0.193 C 
BRANCH  21  22
ATOM     22  C15 <0> d           1.291   3.926   0.980  0.00  0.00    -0.038 A 
ATOM     23  C20 <0> d           0.050   4.499   0.776  0.00  0.00     0.009 A 
ATOM     24  C19 <0> d          -1.097   3.768   1.021  0.00  0.00     0.001 A 
ATOM     25  C18 <0> d          -1.004   2.463   1.466  0.00  0.00     0.000 A 
ATOM     26  C17 <0> d           0.237   1.892   1.677  0.00  0.00     0.001 A 
ATOM     27  C16 <0> d           1.385   2.623   1.431  0.00  0.00     0.009 A 
ENDBRANCH  21  22
ENDBRANCH  17  21
ENDBRANCH   1  16
BRANCH   1  28
ATOM     28  N7  <0> d           2.638   7.441  -2.606  0.00  0.00    -0.053 N 
ATOM     29  C21 <0> d           2.863   6.992  -3.996  0.00  0.00     0.251 C 
ATOM     30  C22 <0> d           3.551   8.117  -4.773  0.00  0.00     0.123 C 
ATOM     31  N6  <0> d           4.830   8.445  -4.126  0.00  0.00    -0.278 NA
ATOM     32  C23 <0> d           4.619   8.871  -2.735  0.00  0.00     0.123 C 
ATOM     33  C24 <0> d           3.931   7.746  -1.958  0.00  0.00     0.251 C 
ATOM     34  H31 <0> d           2.063   8.292  -2.620  0.00  0.00     0.281 HD
BRANCH  31  35
ATOM     35  C25 <0> d           5.522   9.421  -4.850  0.00  0.00     0.049 A 
ATOM     36  C30 <0> d           4.940   9.999  -5.973  0.00  0.00     0.137 A 
ATOM     37  C29 <0> d           5.628  10.964  -6.685  0.00  0.00     0.044 A 
ATOM     38  F1  <0> d           3.705   9.619  -6.367  0.00  0.00    -0.204 F 
ATOM     39  C28 <0> d           6.892  11.354  -6.281  0.00  0.00     0.003 A 
ATOM     40  C27 <0> d           7.472  10.780  -5.165  0.00  0.00     0.002 A 
ATOM     41  C26 <0> d           6.789   9.819  -4.446  0.00  0.00     0.027 A 
ENDBRANCH  31  35
ENDBRANCH   1  28
TORSDOF 7
