REMARK  3 active torsions:
REMARK  status: ('A' for Active; 'I' for Inactive)
REMARK       I    between atoms: N2_7  and  C12_15 
REMARK       I    between atoms: C12_15  and  N3_17 
REMARK    1  A    between atoms: N3_17  and  C13_18 
REMARK    2  A    between atoms: C13_18  and  C14_19 
REMARK       I    between atoms: C14_19  and  N4_21 
REMARK    3  A    between atoms: N4_21  and  C15_22 
ROOT
ATOM      1  C1  <0> d          -0.016   1.406   0.016  0.00  0.00     0.026 A 
ATOM      2  C2  <0> d           1.111   2.148   0.012  0.00  0.00     0.031 A 
ATOM      3  C3  <0> d           2.387   1.522  -0.006  0.00  0.00     0.039 A 
ATOM      4  N1  <0> d           3.603   2.018   0.007  0.00  0.00    -0.379 N 
ATOM      5  C4  <0> d           4.556   0.916  -0.100  0.00  0.00     0.130 A 
ATOM      6  C5  <0> d           5.542   0.896   1.073  0.00  0.00     0.157 C 
ATOM      7  N2  <0> d           6.176  -0.431   1.108  0.00  0.00    -0.332 N 
ATOM      8  C6  <0> d           5.365  -1.642   1.276  0.00  0.00     0.132 C 
ATOM      9  C7  <0> d           4.329  -1.723   0.141  0.00  0.00     0.057 C 
ATOM     10  C8  <0> d           3.719  -0.350  -0.019  0.00  0.00    -0.042 A 
ATOM     11  C9  <0> d           2.436   0.039  -0.013  0.00  0.00    -0.004 A 
ATOM     12  C10 <0> d           1.162  -0.693  -0.011  0.00  0.00     0.037 A 
ATOM     13  C11 <0> d           0.003   0.003   0.003  0.00  0.00     0.035 A 
ATOM     14 Cl1  <0> d          -1.502  -0.862   0.004  0.00  0.00    -0.084 Cl
ATOM     15  C12 <0> d           7.514  -0.536   0.983  0.00  0.00     0.318 C 
ATOM     16  O1  <0> d           8.181   0.453   0.747  0.00  0.00    -0.247 OA
ATOM     17  N3  <0> d           8.112  -1.736   1.119  0.00  0.00    -0.334 N 
ATOM     18  H12 <0> d           7.575  -2.535   1.234  0.00  0.00     0.164 HD
ATOM     19  H22 <0> d           3.830   2.958   0.076  0.00  0.00     0.160 HD
ENDROOT
BRANCH  17  20
ATOM     20  C13 <0> d           9.573  -1.833   1.092  0.00  0.00     0.227 C 
BRANCH  20  21
ATOM     21  C14 <0> d           9.984  -3.273   1.264  0.00  0.00     0.235 C 
ATOM     22  O2  <0> d           9.139  -4.133   1.395  0.00  0.00    -0.272 OA
ATOM     23  N4  <0> d          11.290  -3.605   1.271  0.00  0.00    -0.354 N 
ATOM     24  H15 <0> d          11.966  -2.917   1.166  0.00  0.00     0.162 HD
BRANCH  23  25
ATOM     25  C15 <0> d          11.690  -5.004   1.437  0.00  0.00     0.099 C 
ATOM     26  C18 <0> d          13.110  -5.064   2.050  0.00  0.00     0.165 C 
ATOM     27  S1  <0> d          13.803  -6.600   1.316  0.00  0.00     0.146 S 
ATOM     28  C17 <0> d          12.400  -7.075   0.220  0.00  0.00     0.142 C 
ATOM     29  O3  <0> d          14.924  -6.261   0.511  0.00  0.00    -0.228 OA
ATOM     30  O4  <0> d          13.945  -7.579   2.336  0.00  0.00    -0.228 OA
ATOM     31  C16 <0> d          11.681  -5.704   0.068  0.00  0.00     0.041 C 
ENDBRANCH  23  25
ENDBRANCH  20  21
ENDBRANCH  17  20
TORSDOF 3
