REMARK  2 active torsions:
REMARK  status: ('A' for Active; 'I' for Inactive)
REMARK    1  A    between atoms: N1_5  and  C5_7 
REMARK    2  A    between atoms: C6_8  and  C14_17 
ROOT
ATOM      1  C5  <0> d          -0.186  -3.237   1.488  0.00  0.00     0.164 A 
ATOM      2  C6  <0> d           0.158  -3.086   2.840  0.00  0.00     0.050 A 
ATOM      3  C7  <0> d           0.414  -4.235   3.594  0.00  0.00     0.027 A 
ATOM      4  C8  <0> d           0.318  -5.477   2.979  0.00  0.00    -0.032 A 
ATOM      5  C9  <0> d          -0.030  -5.548   1.647  0.00  0.00     0.043 A 
ATOM      6  N3  <0> d          -0.269  -4.440   0.955  0.00  0.00    -0.232 NA
ATOM      7  C10 <0> d          -0.171  -6.862   0.921  0.00  0.00     0.060 C 
ATOM      8  C11 <0> d           0.534  -7.978   1.689  0.00  0.00     0.006 C 
ATOM      9  C12 <0> d           0.047  -7.950   3.142  0.00  0.00     0.005 C 
ATOM     10  C13 <0> d           0.607  -6.697   3.812  0.00  0.00     0.040 C 
ENDROOT
BRANCH   1  11
ATOM     11  N1  <0> d          -0.445  -2.112   0.707  0.00  0.00    -0.219 N 
ATOM     12  C4  <0> d          -1.672  -1.602   0.420  0.00  0.00     0.036 A 
ATOM     13  C3  <0> d          -1.490  -0.513  -0.361  0.00  0.00     0.055 A 
ATOM     14  C15 <0> d          -2.996  -2.150   0.888  0.00  0.00     0.070 C 
ATOM     15  C2  <0> d          -0.114  -0.349  -0.559  0.00  0.00     0.053 A 
ATOM     16  C1  <0> d           0.537   0.742  -1.370  0.00  0.00     0.072 C 
ATOM     17  N2  <0> d           0.511  -1.308   0.074  0.00  0.00    -0.171 NA
ENDBRANCH   1  11
BRANCH   2  18
ATOM     18  C14 <0> d           0.247  -1.748   3.451  0.00  0.00     0.108 C 
ATOM     19  S1  <0> d           0.094  -0.350   2.475  0.00  0.00    -0.060 SA
ATOM     20  N4  <0> d           0.448  -1.625   4.778  0.00  0.00    -0.389 N 
ATOM     21  H14 <0> d           0.535  -2.417   5.331  0.00  0.00     0.157 HD
ATOM     22  H15 <0> d           0.506  -0.744   5.180  0.00  0.00     0.157 HD
ENDBRANCH   2  18
TORSDOF 2
