REMARK  2 active torsions:
REMARK  status: ('A' for Active; 'I' for Inactive)
REMARK    1  A    between atoms: C8_10  and  C10_14 
REMARK    2  A    between atoms: C9_11  and  N4_13 
ROOT
ATOM      1  C1  <0> d          -2.692   4.551   0.072  0.00  0.00     0.002 A 
ATOM      2  C2  <0> d          -3.238   3.279   0.065  0.00  0.00     0.002 A 
ATOM      3  C3  <0> d          -2.448   2.141   0.044  0.00  0.00     0.033 A 
ATOM      4  C4  <0> d          -1.071   2.326   0.030  0.00  0.00     0.083 A 
ATOM      5  C5  <0> d          -0.507   3.627   0.035  0.00  0.00     0.103 A 
ATOM      6  C6  <0> d          -1.325   4.762   0.055  0.00  0.00     0.034 A 
ATOM      7  N1  <0> d           0.834   3.485   0.021  0.00  0.00    -0.062 NA
ATOM      8  C7  <0> d           1.133   2.217   0.003  0.00  0.00     0.724 A 
ATOM      9  N2  <0> d          -0.018   1.459   0.010  0.00  0.00    -0.152 N 
ATOM     10  C8  <0> d           0.002  -0.004   0.002  0.00  0.00     0.262 C 
ATOM     11  C9  <0> d           2.408   0.255  -0.305  0.00  0.00     0.688 C 
ATOM     12  N3  <0> d           2.381   1.608  -0.025  0.00  0.00    -0.021 N 
ATOM     13  H6  <0> d           3.194   2.109   0.143  0.00  0.00     0.203 HD
ATOM     14  N5  <0> d           1.362  -0.582  -0.328  0.00  0.00    -0.199 N 
ATOM     15  H12 <0> d           1.478  -1.576  -0.559  0.00  0.00     0.180 HD
ENDROOT
BRANCH  10  16
ATOM     16  C10 <0> d          -0.416  -0.518   1.356  0.00  0.00     0.029 A 
ATOM     17  C15 <0> d          -1.677  -1.058   1.532  0.00  0.00     0.045 A 
ATOM     18  C14 <0> d          -2.060  -1.530   2.775  0.00  0.00     0.024 A 
ATOM     19 Cl1  <0> d          -2.779  -1.145   0.193  0.00  0.00    -0.084 Cl
ATOM     20  C13 <0> d          -1.182  -1.461   3.841  0.00  0.00     0.003 A 
ATOM     21  C12 <0> d           0.078  -0.921   3.666  0.00  0.00     0.024 A 
ATOM     22  C11 <0> d           0.464  -0.454   2.422  0.00  0.00     0.045 A 
ATOM     23 Cl2  <0> d           2.049   0.217   2.200  0.00  0.00    -0.084 Cl
ENDBRANCH  10  16
BRANCH  11  24
ATOM     24  N4  <0> d           3.616  -0.332  -0.597  0.00  0.00    -0.234 N 
ATOM     25  H7  <0> d           3.659  -1.281  -0.797  0.00  0.00     0.174 HD
ATOM     26  H8  <0> d           4.426   0.202  -0.604  0.00  0.00     0.174 HD
ENDBRANCH  11  24
TORSDOF 2
