REMARK  7 active torsions:
REMARK  status: ('A' for Active; 'I' for Inactive)
REMARK    1  A    between atoms: C2_2  and  C3_3 
REMARK    2  A    between atoms: C3_3  and  N1_4 
REMARK    3  A    between atoms: C4_5  and  N2_6 
REMARK    4  A    between atoms: C4_5  and  S1_7 
REMARK    5  A    between atoms: S1_7  and  C5_8 
REMARK    6  A    between atoms: C5_8  and  C6_9 
REMARK       I    between atoms: C6_9  and  N3_11 
REMARK    7  A    between atoms: C8_13  and  C15_21 
REMARK       I    between atoms: C15_21  and  N4_23 
ROOT
ATOM      1  C6  <0> d          -0.666   1.363   0.806  0.00  0.00     0.234 C 
ATOM      2  O1  <0> d          -0.160   1.079  -0.259  0.00  0.00    -0.272 OA
ATOM      3  N3  <0> d          -0.127   0.903   1.952  0.00  0.00    -0.312 N 
ATOM      4  C7  <0> d          -0.772   1.154   3.252  0.00  0.00     0.174 C 
ATOM      5  C8  <0> d           0.333   1.516   4.256  0.00  0.00     0.239 C 
ATOM      6  O2  <0> d           1.270   0.438   4.317  0.00  0.00    -0.333 OA
ATOM      7  C9  <0> d           1.751  -0.050   3.143  0.00  0.00     0.097 A 
ATOM      8  C10 <0> d           1.067   0.162   1.948  0.00  0.00     0.070 A 
ATOM      9  C11 <0> d           1.570  -0.341   0.760  0.00  0.00     0.033 A 
ATOM     10  C12 <0> d           2.750  -1.062   0.761  0.00  0.00     0.002 A 
ATOM     11  C13 <0> d           3.430  -1.276   1.946  0.00  0.00     0.003 A 
ATOM     12  C14 <0> d           2.934  -0.773   3.135  0.00  0.00     0.039 A 
ENDROOT
BRANCH   1  13
ATOM     13  C5  <0> d          -1.898   2.229   0.847  0.00  0.00     0.185 C 
BRANCH  13  14
ATOM     14  S1  <0> d          -2.291   2.801  -0.825  0.00  0.00    -0.085 SA
BRANCH  14  15
ATOM     15  C4  <0> d          -3.729   3.763  -0.490  0.00  0.00     0.134 C 
ATOM     16  N1  <0> d          -4.175   3.865   0.732  0.00  0.00    -0.371 N 
ATOM     17  H23 <0> d          -3.596   3.441   1.566  0.00  0.00     0.161 HD
BRANCH  16  18
ATOM     18  C3  <0> d          -5.447   4.544   0.992  0.00  0.00     0.121 C 
BRANCH  18  19
ATOM     19  C2  <0> d          -6.445   3.547   1.583  0.00  0.00     0.015 C 
ATOM     20  C1  <0> d          -7.774   4.256   1.855  0.00  0.00     0.006 C 
ENDBRANCH  18  19
ENDBRANCH  16  18
BRANCH  15  21
ATOM     21  N2  <0> d          -4.381   4.406  -1.516  0.00  0.00    -0.380 N 
ATOM     22  H9  <0> d          -4.004   4.319  -2.546  0.00  0.00     0.158 HD
ATOM     23  H10 <0> d          -5.278   5.006  -1.308  0.00  0.00     0.158 HD
ENDBRANCH  15  21
ENDBRANCH  14  15
ENDBRANCH  13  14
ENDBRANCH   1  13
BRANCH   5  24
ATOM     24  C15 <0> d          -0.274   1.735   5.618  0.00  0.00     0.248 C 
ATOM     25  O3  <0> d           0.003   0.989   6.532  0.00  0.00    -0.271 OA
ATOM     26  N4  <0> d          -1.124   2.761   5.819  0.00  0.00    -0.363 N 
ATOM     27  C16 <0> d          -1.714   2.975   7.143  0.00  0.00     0.149 C 
ATOM     28  H19 <0> d          -1.375   3.438   4.989  0.00  0.00     0.162 HD
ENDBRANCH   5  24
TORSDOF 7
