REMARK  7 active torsions:
REMARK  status: ('A' for Active; 'I' for Inactive)
REMARK    1  A    between atoms: C2_2  and  N4_29 
REMARK    2  A    between atoms: C3_3  and  N4_29 
REMARK    3  A    between atoms: C5_5  and  C6_6 
REMARK    4  A    between atoms: C5_5  and  N4_29 
REMARK    5  A    between atoms: C6_6  and  N1_7 
REMARK    6  A    between atoms: N1_7  and  C7_8 
REMARK    7  A    between atoms: C16_18  and  O2_26 
ROOT
ATOM      1  C7  <0> d           4.854  -2.549  -1.151  0.00  0.00     0.044 A 
ATOM      2  C8  <0> d           4.773  -3.719  -1.912  0.00  0.00     0.032 A 
ATOM      3  C9  <0> d           3.631  -4.074  -2.599  0.00  0.00     0.036 A 
ATOM      4  C10 <0> d           2.501  -3.251  -2.549  0.00  0.00     0.087 A 
ATOM      5  C11 <0> d           2.595  -2.091  -1.790  0.00  0.00     0.086 A 
ATOM      6  C12 <0> d           3.732  -1.713  -1.089  0.00  0.00     0.071 A 
ATOM      7  C13 <0> d           3.663  -0.455  -0.333  0.00  0.00     0.199 A 
ATOM      8  O1  <0> d           4.610  -0.040   0.311  0.00  0.00    -0.286 OA
ATOM      9  C14 <0> d           2.377   0.282  -0.396  0.00  0.00     0.045 A 
ATOM     10  C15 <0> d           2.237   1.485   0.301  0.00  0.00     0.054 A 
ATOM     11  C16 <0> d           1.043   2.176   0.247  0.00  0.00     0.066 A 
ATOM     12  C17 <0> d          -0.020   1.678  -0.500  0.00  0.00     0.039 A 
ATOM     13  C18 <0> d           0.107   0.493  -1.191  0.00  0.00     0.034 A 
ATOM     14  C19 <0> d           1.301  -0.218  -1.149  0.00  0.00     0.055 A 
ATOM     15  N2  <0> d           1.420  -1.414  -1.847  0.00  0.00    -0.296 N 
ATOM     16  C20 <0> d           0.609  -2.166  -2.648  0.00  0.00     0.108 A 
ATOM     17  N3  <0> d           1.242  -3.238  -3.056  0.00  0.00    -0.233 NA
ATOM     18  C21 <0> d          -0.811  -1.813  -3.010  0.00  0.00     0.092 C 
ENDROOT
BRANCH   1  19
ATOM     19  N1  <0> d           6.020  -2.223  -0.473  0.00  0.00    -0.387 N 
ATOM     20  H15 <0> d           6.064  -1.408   0.051  0.00  0.00     0.159 HD
BRANCH  19  21
ATOM     21  C6  <0> d           7.184  -3.109  -0.549  0.00  0.00     0.147 C 
BRANCH  21  22
ATOM     22  C5  <0> d           8.327  -2.522   0.281  0.00  0.00     0.254 C 
BRANCH  22  23
ATOM     23  N4  <0> d           9.485  -3.438   0.212  0.00  0.00    -0.070 N 
ATOM     24  H25 <0> d           9.176  -4.386   0.456  0.00  0.00     0.279 HD
BRANCH  23  25
ATOM     25  C2  <0> d          10.037  -3.450  -1.159  0.00  0.00     0.230 C 
ATOM     26  C1  <0> d          10.390  -2.031  -1.609  0.00  0.00     0.034 C 
ENDBRANCH  23  25
BRANCH  23  27
ATOM     27  C3  <0> d          10.525  -3.010   1.171  0.00  0.00     0.230 C 
ATOM     28  C4  <0> d          11.536  -4.146   1.339  0.00  0.00     0.034 C 
ENDBRANCH  23  27
ENDBRANCH  22  23
ENDBRANCH  21  22
ENDBRANCH  19  21
ENDBRANCH   1  19
BRANCH  11  29
ATOM     29  O2  <0> d           0.906   3.347   0.925  0.00  0.00    -0.361 OA
ATOM     30  H24 <0> d           0.577   3.242   1.828  0.00  0.00     0.217 HD
ENDBRANCH  11  29
TORSDOF 7
