REMARK  5 active torsions:
REMARK  status: ('A' for Active; 'I' for Inactive)
REMARK    1  A    between atoms: C3_4  and  C10_12 
REMARK    2  A    between atoms: C10_12  and  C11_13 
REMARK    3  A    between atoms: C11_13  and  N2_14 
REMARK       I    between atoms: N2_14  and  C12_15 
REMARK    4  A    between atoms: C12_15  and  C13_17 
REMARK       I    between atoms: N3_19  and  C21_27 
REMARK    5  A    between atoms: C21_27  and  C22_29 
ROOT
ATOM      1  C13 <0> d          -4.582   3.777   3.191  0.00  0.00     0.106 C 
ATOM      2  C14 <0> d          -4.664   2.686   4.282  0.00  0.00     0.140 C 
ATOM      3  N3  <0> d          -3.959   3.267   5.448  0.00  0.00    -0.350 N 
ATOM      4  C15 <0> d          -4.367   4.692   5.452  0.00  0.00     0.136 C 
ATOM      5  C16 <0> d          -4.390   5.093   3.964  0.00  0.00    -0.007 C 
ATOM      6  C17 <0> d          -5.554   6.041   3.690  0.00  0.00     0.039 C 
ATOM      7  C18 <0> d          -5.312   7.364   4.422  0.00  0.00     0.233 C 
ATOM      8  N4  <0> d          -4.052   7.958   3.960  0.00  0.00    -0.075 N 
ATOM      9  C19 <0> d          -2.927   7.082   4.310  0.00  0.00     0.233 C 
ATOM     10  C20 <0> d          -3.068   5.747   3.573  0.00  0.00     0.039 C 
ATOM     11  C21 <0> d          -3.134   2.641   6.310  0.00  0.00     0.224 C 
ATOM     12  O2  <0> d          -2.834   1.480   6.129  0.00  0.00    -0.273 OA
ATOM     13  H24 <0> d          -4.085   8.076   2.958  0.00  0.00     0.277 HD
ATOM     14  H37 <0> d          -3.925   8.858   4.398  0.00  0.00     0.277 HD
ENDROOT
BRANCH   1  15
ATOM     15  C12 <0> d          -3.405   3.525   2.284  0.00  0.00     0.224 C 
ATOM     16  N2  <0> d          -3.443   3.936   1.001  0.00  0.00    -0.360 N 
ATOM     17  H15 <0> d          -4.228   4.394   0.661  0.00  0.00     0.162 HD
ATOM     18  O1  <0> d          -2.424   2.953   2.709  0.00  0.00    -0.273 OA
BRANCH  16  19
ATOM     19  C11 <0> d          -2.299   3.691   0.119  0.00  0.00     0.127 C 
BRANCH  19  20
ATOM     20  C10 <0> d          -2.598   4.252  -1.272  0.00  0.00     0.061 C 
BRANCH  20  21
ATOM     21  C3  <0> d          -1.421   4.000  -2.179  0.00  0.00    -0.022 A 
ATOM     22  C2  <0> d          -1.225   2.919  -2.950  0.00  0.00     0.013 A 
ATOM     23  C1  <0> d          -2.163   1.744  -3.048  0.00  0.00     0.068 C 
ATOM     24  N1  <0> d          -0.044   3.040  -3.631  0.00  0.00    -0.359 N 
ATOM     25  H1  <0> d           0.314   2.382  -4.247  0.00  0.00     0.166 HD
ATOM     26  C9  <0> d           0.559   4.236  -3.313  0.00  0.00     0.043 A 
ATOM     27  C4  <0> d          -0.275   4.888  -2.386  0.00  0.00    -0.001 A 
ATOM     28  C8  <0> d           1.744   4.847  -3.710  0.00  0.00     0.030 A 
ATOM     29  C5  <0> d           0.091   6.136  -1.877  0.00  0.00     0.014 A 
ATOM     30  C6  <0> d           1.260   6.717  -2.281  0.00  0.00     0.001 A 
ATOM     31  C7  <0> d           2.086   6.078  -3.195  0.00  0.00     0.002 A 
ENDBRANCH  20  21
ENDBRANCH  19  20
ENDBRANCH  16  19
ENDBRANCH   1  15
BRANCH  11  32
ATOM     32  C22 <0> d          -2.583   3.384   7.500  0.00  0.00     0.082 C 
ATOM     33  C27 <0> d          -3.575   3.304   8.661  0.00  0.00     0.041 C 
ATOM     34  C26 <0> d          -2.932   3.800   9.925  0.00  0.00    -0.030 C 
ATOM     35  C25 <0> d          -1.655   3.936  10.085  0.00  0.00    -0.031 C 
ATOM     36  C24 <0> d          -0.637   3.621   9.029  0.00  0.00     0.027 C 
ATOM     37  C23 <0> d          -1.260   2.744   7.941  0.00  0.00     0.018 C 
ENDBRANCH  11  32
TORSDOF 5
