REMARK  6 active torsions:
REMARK  status: ('A' for Active; 'I' for Inactive)
REMARK    1  A    between atoms: C4_4  and  C7_7 
REMARK    2  A    between atoms: C8_8  and  N3_14 
REMARK    3  A    between atoms: N3_14  and  N4_15 
REMARK    4  A    between atoms: C13_18  and  C17_24 
REMARK    5  A    between atoms: C15_20  and  N5_21 
REMARK    6  A    between atoms: C20_27  and  O2_30 
ROOT
ATOM      1  N4  <0> d           1.406  -2.063  -1.025  0.00  0.00    -0.242 N 
ATOM      2  C11 <0> d           0.797  -1.980   0.198  0.00  0.00     0.047 C 
ATOM      3  C12 <0> d          -0.191  -1.086   0.416  0.00  0.00     0.026 C 
ATOM      4  C13 <0> d          -0.639  -0.146  -0.675  0.00  0.00     0.105 C 
ATOM      5  C14 <0> d          -0.195  -0.631  -2.023  0.00  0.00     0.081 C 
ATOM      6  C15 <0> d           0.799  -1.547  -2.145  0.00  0.00     0.138 C 
ATOM      7  C16 <0> d          -0.825  -0.114  -3.200  0.00  0.00     0.100 C 
ATOM      8  N6  <0> d          -1.325   0.297  -4.134  0.00  0.00    -0.191 NA
ATOM      9  C23 <0> d          -0.833  -1.006   1.664  0.00  0.00     0.158 C 
ATOM     10  O3  <0> d          -1.713  -0.185   1.829  0.00  0.00    -0.293 OA
ATOM     11  C24 <0> d          -0.451  -1.917   2.798  0.00  0.00     0.084 C 
ATOM     12  C25 <0> d           0.089  -3.231   2.223  0.00  0.00     0.014 C 
ATOM     13  C26 <0> d           1.261  -2.908   1.294  0.00  0.00     0.060 C 
ENDROOT
BRANCH   4  14
ATOM     14  C17 <0> d          -0.052   1.219  -0.423  0.00  0.00    -0.044 A 
ATOM     15  C22 <0> d          -0.830   2.348  -0.599  0.00  0.00     0.011 A 
ATOM     16  C21 <0> d          -0.296   3.600  -0.364  0.00  0.00     0.037 A 
ATOM     17  C20 <0> d           1.025   3.724   0.040  0.00  0.00     0.065 A 
ATOM     18  C19 <0> d           1.806   2.590   0.211  0.00  0.00     0.037 A 
ATOM     19  C18 <0> d           1.265   1.340  -0.021  0.00  0.00     0.011 A 
BRANCH  17  20
ATOM     20  O2  <0> d           1.554   4.955   0.268  0.00  0.00    -0.361 OA
ATOM     21  H16 <0> d           1.961   5.359  -0.511  0.00  0.00     0.217 HD
ENDBRANCH  17  20
ENDBRANCH   4  14
BRANCH   6  22
ATOM     22  N5  <0> d           1.195  -1.963  -3.393  0.00  0.00    -0.383 N 
ATOM     23  H10 <0> d           1.903  -2.620  -3.483  0.00  0.00     0.157 HD
ATOM     24  H11 <0> d           0.767  -1.599  -4.184  0.00  0.00     0.157 HD
ENDBRANCH   6  22
BRANCH   1  25
ATOM     25  N3  <0> d           2.662  -2.674  -1.135  0.00  0.00    -0.294 N 
ATOM     26  H9  <0> d           2.744  -3.635  -1.041  0.00  0.00     0.187 HD
BRANCH  25  27
ATOM     27  C8  <0> d           3.759  -1.923  -1.373  0.00  0.00     0.066 A 
ATOM     28  C7  <0> d           5.003  -2.499  -1.620  0.00  0.00     0.114 A 
ATOM     29  N2  <0> d           6.073  -1.749  -1.847  0.00  0.00    -0.144 NA
ATOM     30  N1  <0> d           6.101  -0.474  -1.878  0.00  0.00    -0.111 NA
ATOM     31  C10 <0> d           5.022   0.295  -1.667  0.00  0.00     0.267 A 
ATOM     32  C9  <0> d           3.704  -0.404  -1.385  0.00  0.00     0.167 A 
ATOM     33  O1  <0> d           5.096   1.506  -1.701  0.00  0.00    -0.269 OA
BRANCH  28  34
ATOM     34  C4  <0> d           5.134  -3.976  -1.625  0.00  0.00    -0.004 A 
ATOM     35  C3  <0> d           4.215  -4.758  -2.324  0.00  0.00     0.014 A 
ATOM     36  C2  <0> d           4.343  -6.132  -2.325  0.00  0.00     0.001 A 
ATOM     37  C1  <0> d           5.379  -6.734  -1.634  0.00  0.00     0.000 A 
ATOM     38  C6  <0> d           6.294  -5.963  -0.939  0.00  0.00     0.001 A 
ATOM     39  C5  <0> d           6.176  -4.588  -0.931  0.00  0.00     0.014 A 
ENDBRANCH  28  34
ENDBRANCH  25  27
ENDBRANCH   1  25
TORSDOF 6
