REMARK  5 active torsions:
REMARK  status: ('A' for Active; 'I' for Inactive)
REMARK    1  A    between atoms: C4_4  and  O5_26 
REMARK    2  A    between atoms: C10_10  and  C11_11 
REMARK    3  A    between atoms: C10_10  and  O3_15 
REMARK    4  A    between atoms: C11_11  and  C12_13 
REMARK    5  A    between atoms: C12_13  and  O2_14 
ROOT
ATOM      1  C1  <0> d           0.021   3.584   1.696  0.00  0.00     0.019 C 
ATOM      2  C2  <0> d          -1.161   3.616   0.722  0.00  0.00     0.001 C 
ATOM      3  C3  <0> d          -2.478   3.923   1.422  0.00  0.00     0.045 C 
ATOM      4  C4  <0> d          -2.575   5.389   1.865  0.00  0.00     0.124 C 
ATOM      5  C5  <0> d          -2.441   6.307   0.662  0.00  0.00     0.035 C 
ATOM      6  C6  <0> d          -1.159   6.029  -0.110  0.00  0.00    -0.002 C 
ATOM      7  C7  <0> d          -0.931   4.584  -0.447  0.00  0.00     0.002 C 
ATOM      8  C8  <0> d          -1.905   4.080  -1.532  0.00  0.00     0.009 C 
ATOM      9  C9  <0> d          -1.775   2.543  -1.429  0.00  0.00     0.047 C 
ATOM     10  C10 <0> d          -1.329   2.242   0.013  0.00  0.00     0.128 C 
ATOM     11  C13 <0> d           0.026   6.632   0.653  0.00  0.00     0.010 C 
ATOM     12  C14 <0> d          -0.024   8.142   0.405  0.00  0.00     0.036 C 
ATOM     13  C15 <0> d          -1.427   8.649   0.608  0.00  0.00    -0.064 C 
ATOM     14  C16 <0> d          -1.601   9.981   0.500  0.00  0.00     0.058 C 
ATOM     15  C17 <0> d          -2.965  10.524   0.694  0.00  0.00     0.172 C 
ATOM     16  O4  <0> d          -3.173  11.645   1.123  0.00  0.00    -0.289 OA
ATOM     17  C18 <0> d          -4.077   9.630   0.276  0.00  0.00     0.052 C 
ATOM     18  C19 <0> d          -3.887   8.309   0.397  0.00  0.00    -0.009 C 
ATOM     19  C20 <0> d          -2.592   7.780   0.948  0.00  0.00     0.004 C 
ATOM     20  C21 <0> d          -2.721   7.955   2.461  0.00  0.00     0.025 C 
ENDROOT
BRANCH  10  21
ATOM     21  C11 <0> d          -0.009   1.512  -0.001  0.00  0.00     0.184 C 
ATOM     22  O1  <0> d           0.799   1.741  -0.868  0.00  0.00    -0.292 OA
BRANCH  21  23
ATOM     23  C12 <0> d           0.298   0.490   1.064  0.00  0.00     0.245 C 
BRANCH  23  24
ATOM     24  O2  <0> d           1.595  -0.064   0.833  0.00  0.00    -0.393 OA
ATOM     25  H16 <0> d           1.859  -0.730   1.482  0.00  0.00     0.209 HD
ENDBRANCH  23  24
ENDBRANCH  21  23
ENDBRANCH  10  21
BRANCH  10  26
ATOM     26  O3  <0> d          -2.314   1.455   0.683  0.00  0.00    -0.381 OA
ATOM     27  H17 <0> d          -2.466   0.589   0.280  0.00  0.00     0.211 HD
ENDBRANCH  10  26
BRANCH   4  28
ATOM     28  O5  <0> d          -3.882   5.520   2.454  0.00  0.00    -0.395 OA
ATOM     29  H28 <0> d          -4.030   4.942   3.216  0.00  0.00     0.210 HD
ENDBRANCH   4  28
TORSDOF 5
