REMARK  3 active torsions:
REMARK  status: ('A' for Active; 'I' for Inactive)
REMARK    1  A    between atoms: C5_5  and  N1_8 
REMARK    2  A    between atoms: C12_14  and  C16_21 
REMARK    3  A    between atoms: C17_23  and  C18_26 
ROOT
ATOM      1  N1  <0> d           0.059  -4.172  -0.021  0.00  0.00    -0.229 N 
ATOM      2  C8  <0> d           0.171  -4.839   1.148  0.00  0.00     0.268 A 
ATOM      3  O1  <0> d           0.255  -4.240   2.203  0.00  0.00    -0.267 OA
ATOM      4  C9  <0> d           0.187  -6.312   1.112  0.00  0.00     0.059 A 
ATOM      5  C10 <0> d           0.299  -7.072   2.274  0.00  0.00     0.020 A 
ATOM      6  C11 <0> d           0.310  -8.448   2.188  0.00  0.00     0.013 A 
ATOM      7  C12 <0> d           0.210  -9.075   0.955  0.00  0.00     0.004 A 
ATOM      8  C13 <0> d           0.099  -8.333  -0.205  0.00  0.00     0.042 A 
ATOM      9  C14 <0> d           0.086  -6.948  -0.137  0.00  0.00     0.052 A 
ATOM     10  N2  <0> d          -0.025  -6.166  -1.278  0.00  0.00    -0.307 N 
ATOM     11  H1  <0> d          -0.097  -6.591  -2.147  0.00  0.00     0.170 HD
ATOM     12  C15 <0> d          -0.041  -4.825  -1.189  0.00  0.00     0.334 A 
ATOM     13  O2  <0> d          -0.145  -4.176  -2.212  0.00  0.00    -0.246 OA
ENDROOT
BRANCH   7  14
ATOM     14  C16 <0> d           0.223 -10.580   0.879  0.00  0.00     0.413 C 
ATOM     15  O3  <0> d          -1.109 -11.101   1.040  0.00  0.00    -0.262 OA
ATOM     16  N4  <0> d          -1.000 -12.341   1.827  0.00  0.00    -0.166 NA
ATOM     17  C17 <0> d           0.439 -12.521   2.133  0.00  0.00     0.354 C 
ATOM     18  H15 <0> d          -1.361 -13.128   1.311  0.00  0.00     0.156 HD
ATOM     19  N3  <0> d           0.997 -11.148   2.013  0.00  0.00     0.143 N 
ATOM     20  H14 <0> d           1.983 -11.175   1.801  0.00  0.00     0.322 HD
BRANCH  17  21
ATOM     21  C18 <0> d           0.625 -13.049   3.533  0.00  0.00    -0.009 A 
ATOM     22  C23 <0> d          -0.284 -13.948   4.058  0.00  0.00     0.012 A 
ATOM     23  C22 <0> d          -0.112 -14.436   5.340  0.00  0.00     0.020 A 
ATOM     24  C21 <0> d           0.965 -14.016   6.100  0.00  0.00     0.011 A 
ATOM     25  C20 <0> d           1.871 -13.112   5.576  0.00  0.00     0.020 A 
ATOM     26 Br1  <0> d           1.198 -14.678   7.856  0.00  0.00    -0.051 Br
ATOM     27  C19 <0> d           1.700 -12.629   4.292  0.00  0.00     0.012 A 
ENDBRANCH  17  21
ENDBRANCH   7  14
BRANCH   1  28
ATOM     28  C5  <0> d           0.040  -2.771  -0.013  0.00  0.00     0.047 A 
ATOM     29  C4  <0> d          -1.166  -2.091   0.099  0.00  0.00     0.031 A 
ATOM     30  C3  <0> d          -1.181  -0.710   0.107  0.00  0.00     0.009 A 
ATOM     31  C2  <0> d           0.004  -0.004   0.003  0.00  0.00    -0.062 A 
ATOM     32  C1  <0> d          -0.016   1.503   0.012  0.00  0.00     0.048 C 
ATOM     33  C7  <0> d           1.206  -0.678  -0.114  0.00  0.00     0.009 A 
ATOM     34  C6  <0> d           1.228  -2.059  -0.117  0.00  0.00     0.031 A 
ENDBRANCH   1  28
TORSDOF 3
