REMARK  6 active torsions:
REMARK  status: ('A' for Active; 'I' for Inactive)
REMARK    1  A    between atoms: O1_2  and  C2_3 
REMARK    2  A    between atoms: C4_5  and  C9_12 
REMARK    3  A    between atoms: C6_7  and  O3_10 
REMARK    4  A    between atoms: C7_8  and  O2_9 
REMARK    5  A    between atoms: C10_15  and  C16_23 
REMARK    6  A    between atoms: C11_16  and  C12_18 
ROOT
ATOM      1  C9  <0> d          -4.874   0.235  -0.131  0.00  0.00     0.139 A 
ATOM      2  N1  <0> d          -6.110  -0.286   0.122  0.00  0.00    -0.338 N 
ATOM      3  H1  <0> d          -6.336  -1.228   0.183  0.00  0.00     0.167 HD
ATOM      4  C10 <0> d          -6.976   0.775   0.274  0.00  0.00     0.074 A 
ATOM      5  C11 <0> d          -6.218   1.924   0.105  0.00  0.00     0.103 A 
ATOM      6  N2  <0> d          -4.950   1.546  -0.133  0.00  0.00    -0.227 NA
ENDROOT
BRANCH   1   7
ATOM      7  C4  <0> d          -3.643  -0.551  -0.358  0.00  0.00     0.015 A 
ATOM      8  C3  <0> d          -2.433   0.099  -0.602  0.00  0.00     0.055 A 
ATOM      9  C2  <0> d          -1.282  -0.639  -0.815  0.00  0.00     0.105 A 
ATOM     10  C7  <0> d          -1.333  -2.029  -0.792  0.00  0.00     0.133 A 
ATOM     11  C6  <0> d          -2.537  -2.680  -0.543  0.00  0.00     0.105 A 
ATOM     12  C5  <0> d          -3.690  -1.946  -0.330  0.00  0.00     0.055 A 
BRANCH   9  13
ATOM     13  O1  <0> d          -0.103  -0.005  -1.052  0.00  0.00    -0.353 OA
ATOM     14  C1  <0> d          -0.124   1.423  -1.062  0.00  0.00     0.210 C 
ENDBRANCH   9  13
BRANCH  10  15
ATOM     15  O2  <0> d          -0.201  -2.753  -1.007  0.00  0.00    -0.356 OA
ATOM     16  H7  <0> d           0.296  -2.954  -0.202  0.00  0.00     0.218 HD
ENDBRANCH  10  15
BRANCH  11  17
ATOM     17  O3  <0> d          -2.581  -4.039  -0.516  0.00  0.00    -0.353 OA
ATOM     18  C8  <0> d          -3.852  -4.642  -0.261  0.00  0.00     0.210 C 
ENDBRANCH  11  17
ENDBRANCH   1   7
BRANCH   5  19
ATOM     19  C12 <0> d          -6.714   3.313   0.178  0.00  0.00     0.036 A 
ATOM     20  S1  <0> d          -8.230   4.001  -0.466  0.00  0.00    -0.100 SA
ATOM     21  C15 <0> d          -7.992   5.686   0.073  0.00  0.00     0.050 A 
ATOM     22  C14 <0> d          -6.786   5.619   0.694  0.00  0.00     0.008 A 
ATOM     23  C13 <0> d          -6.127   4.410   0.752  0.00  0.00     0.022 A 
ENDBRANCH   5  19
BRANCH   4  24
ATOM     24  C16 <0> d          -8.421   0.703   0.559  0.00  0.00    -0.007 A 
ATOM     25  C21 <0> d          -8.980   1.504   1.558  0.00  0.00     0.014 A 
ATOM     26  C20 <0> d         -10.333   1.435   1.816  0.00  0.00     0.001 A 
ATOM     27  C19 <0> d         -11.135   0.567   1.096  0.00  0.00     0.000 A 
ATOM     28  C18 <0> d         -10.587  -0.233   0.109  0.00  0.00     0.001 A 
ATOM     29  C17 <0> d          -9.237  -0.171  -0.164  0.00  0.00     0.014 A 
ENDBRANCH   4  24
TORSDOF 6
