REMARK  4 active torsions:
REMARK  status: ('A' for Active; 'I' for Inactive)
REMARK    1  A    between atoms: C2_2  and  C3_3 
REMARK    2  A    between atoms: C3_3  and  N1_5 
REMARK    3  A    between atoms: C6_7  and  C9_14 
REMARK    4  A    between atoms: N4_27  and  C20_28 
ROOT
ATOM      1  C9  <0> d          -2.558   4.080   0.164  0.00  0.00     0.281 C 
ATOM      2  C10 <0> d          -2.667   4.980   1.372  0.00  0.00     0.053 A 
ATOM      3  C11 <0> d          -3.171   6.234   1.314  0.00  0.00    -0.019 A 
ATOM      4  C12 <0> d          -3.114   6.780   2.651  0.00  0.00    -0.001 A 
ATOM      5  C13 <0> d          -3.487   8.015   3.191  0.00  0.00     0.014 A 
ATOM      6  C14 <0> d          -3.285   8.191   4.537  0.00  0.00     0.001 A 
ATOM      7  C15 <0> d          -2.737   7.200   5.335  0.00  0.00     0.002 A 
ATOM      8  C16 <0> d          -2.357   5.970   4.828  0.00  0.00     0.030 A 
ATOM      9  C17 <0> d          -2.551   5.762   3.465  0.00  0.00     0.043 A 
ATOM     10  N3  <0> d          -2.294   4.691   2.657  0.00  0.00    -0.356 N 
ATOM     11  H4  <0> d          -1.861   3.708   2.896  0.00  0.00     0.166 HD
ATOM     12  C18 <0> d          -3.679   6.868   0.044  0.00  0.00     0.069 C 
ATOM     13  C19 <0> d          -3.888   5.754  -0.991  0.00  0.00     0.241 C 
ATOM     14  N4  <0> d          -2.689   4.907  -1.047  0.00  0.00    -0.057 N 
ATOM     15  H26 <0> d          -1.814   5.572  -1.093  0.00  0.00     0.281 HD
ENDROOT
BRANCH   1  16
ATOM     16  C6  <0> d          -1.218   3.391   0.165  0.00  0.00     0.101 A 
ATOM     17  C5  <0> d          -1.136   2.037   0.300  0.00  0.00     0.199 A 
ATOM     18  N1  <0> d           0.095   1.432   0.303  0.00  0.00    -0.272 N 
ATOM     19  O3  <0> d          -2.258   1.298   0.434  0.00  0.00    -0.171 OA
ATOM     20  C8  <0> d           1.215   2.164   0.164  0.00  0.00     0.331 A 
ATOM     21  N2  <0> d           1.155   3.501   0.024  0.00  0.00    -0.275 N 
ATOM     22  O2  <0> d           2.297   1.610   0.165  0.00  0.00    -0.246 OA
ATOM     23  C7  <0> d          -0.033   4.136   0.021  0.00  0.00     0.262 A 
ATOM     24  H2  <0> d           2.081   4.084  -0.088  0.00  0.00     0.173 HD
ATOM     25  O1  <0> d          -0.082   5.347  -0.105  0.00  0.00    -0.267 OA
BRANCH  18  26
ATOM     26  C3  <0> d           0.190  -0.022   0.452  0.00  0.00     0.092 C 
ATOM     27  C4  <0> d           1.094  -0.355   1.641  0.00  0.00     0.033 C 
BRANCH  26  28
ATOM     28  C2  <0> d           0.780  -0.629  -0.823  0.00  0.00     0.021 C 
ATOM     29  C1  <0> d          -0.185  -0.404  -1.988  0.00  0.00     0.007 C 
ENDBRANCH  26  28
ENDBRANCH  18  26
ENDBRANCH   1  16
BRANCH  14  30
ATOM     30  C20 <0> d          -2.689   4.072  -2.256  0.00  0.00     0.231 C 
ATOM     31  C21 <0> d          -4.037   3.360  -2.384  0.00  0.00     0.034 C 
ENDBRANCH  14  30
TORSDOF 4
