REMARK  4 active torsions:
REMARK  status: ('A' for Active; 'I' for Inactive)
REMARK    1  A    between atoms: C2_2  and  N1_3 
REMARK    2  A    between atoms: N1_3  and  C3_4 
REMARK    3  A    between atoms: N1_3  and  C10_11 
REMARK    4  A    between atoms: C13_17  and  N2_18 
ROOT
ATOM      1  C10 <0> d          -0.297  -0.380  -2.427  0.00  0.00     0.132 C 
ATOM      2  C11 <0> d          -0.327  -1.751  -3.138  0.00  0.00     0.167 C 
ATOM      3  S1  <0> d          -0.402  -1.236  -4.909  0.00  0.00     0.148 S 
ATOM      4  O1  <0> d           0.332  -2.162  -5.700  0.00  0.00    -0.228 OA
ATOM      5  O2  <0> d          -1.746  -0.926  -5.252  0.00  0.00    -0.228 OA
ATOM      6  C12 <0> d           0.565   0.327  -4.742  0.00  0.00     0.177 C 
ATOM      7  C13 <0> d           0.194   0.758  -3.309  0.00  0.00     0.255 C 
ENDROOT
BRANCH   1   8
ATOM      8  N1  <0> d           0.580  -0.478  -1.258  0.00  0.00    -0.373 N 
BRANCH   8   9
ATOM      9  C2  <0> d           0.049  -0.216   0.082  0.00  0.00     0.119 C 
ATOM     10  C1  <0> d           0.291   1.249   0.449  0.00  0.00     0.026 C 
ENDBRANCH   8   9
BRANCH   8  11
ATOM     11  C3  <0> d           1.925  -0.821  -1.421  0.00  0.00     0.031 A 
ATOM     12  C8  <0> d           2.780  -0.823  -0.327  0.00  0.00     0.036 A 
ATOM     13  C7  <0> d           4.107  -1.168  -0.490  0.00  0.00    -0.060 A 
ATOM     14  C6  <0> d           4.587  -1.500  -1.744  0.00  0.00     0.007 A 
ATOM     15  C9  <0> d           5.035  -1.178   0.697  0.00  0.00     0.048 C 
ATOM     16  C5  <0> d           3.739  -1.494  -2.837  0.00  0.00     0.003 A 
ATOM     17  C4  <0> d           2.410  -1.156  -2.679  0.00  0.00     0.029 A 
ENDBRANCH   8  11
ENDBRANCH   1   8
BRANCH   7  18
ATOM     18  N2  <0> d           1.378   1.361  -2.681  0.00  0.00     0.086 N 
ATOM     19  H19 <0> d           1.735   2.122  -3.239  0.00  0.00     0.313 HD
ATOM     20  H20 <0> d           1.172   1.666  -1.741  0.00  0.00     0.313 HD
ENDBRANCH   7  18
TORSDOF 4
