REMARK  4 active torsions:
REMARK  status: ('A' for Active; 'I' for Inactive)
REMARK    1  A    between atoms: C5_5  and  S1_9 
REMARK    2  A    between atoms: S1_9  and  N1_12 
REMARK    3  A    between atoms: N1_12  and  C9_13 
REMARK    4  A    between atoms: C9_13  and  C10_14 
ROOT
ATOM      1  S1  <0> d           0.063  -4.530  -0.023  0.00  0.00     0.258 S 
ATOM      2  O1  <0> d          -0.476  -4.950   1.223  0.00  0.00    -0.201 OA
ATOM      3  O2  <0> d          -0.490  -4.937  -1.267  0.00  0.00    -0.201 OA
ENDROOT
BRANCH   1   4
ATOM      4  C5  <0> d           0.040  -2.768  -0.013  0.00  0.00     0.080 A 
ATOM      5  C4  <0> d           0.025  -2.071  -1.207  0.00  0.00     0.026 A 
ATOM      6  C3  <0> d           0.006  -0.689  -1.199  0.00  0.00     0.009 A 
ATOM      7  C2  <0> d           0.002  -0.004   0.002  0.00  0.00    -0.056 A 
ATOM      8  C1  <0> d          -0.018   1.503   0.010  0.00  0.00     0.049 C 
ATOM      9  C7  <0> d           0.023  -0.702   1.195  0.00  0.00    -0.055 A 
ATOM     10  C6  <0> d           0.037  -2.084   1.188  0.00  0.00     0.032 A 
ATOM     11  C8  <0> d           0.025   0.045   2.504  0.00  0.00     0.049 C 
ENDBRANCH   1   4
BRANCH   1  12
ATOM     12  N1  <0> d           1.651  -4.999  -0.034  0.00  0.00    -0.313 N 
ATOM     13  H11 <0> d           2.011  -5.473  -0.800  0.00  0.00     0.172 HD
BRANCH  12  14
ATOM     14  C9  <0> d           2.512  -4.699   1.113  0.00  0.00     0.165 C 
BRANCH  14  15
ATOM     15  C10 <0> d           3.787  -5.540   1.028  0.00  0.00     0.165 C 
ATOM     16  O3  <0> d           4.542  -5.149  -0.122  0.00  0.00    -0.381 OA
ATOM     17  C13 <0> d           5.782  -5.848  -0.260  0.00  0.00     0.196 C 
ATOM     18  C12 <0> d           6.629  -5.628   0.996  0.00  0.00     0.258 C 
ATOM     19  N2  <0> d           5.880  -6.083   2.175  0.00  0.00    -0.071 N 
ATOM     20  C11 <0> d           4.630  -5.319   2.286  0.00  0.00     0.265 C 
ATOM     21  H16 <0> d           6.437  -5.938   3.004  0.00  0.00     0.277 HD
ATOM     22  H21 <0> d           5.667  -7.065   2.080  0.00  0.00     0.277 HD
ENDBRANCH  14  15
ENDBRANCH  12  14
ENDBRANCH   1  12
TORSDOF 4
