REMARK  4 active torsions:
REMARK  status: ('A' for Active; 'I' for Inactive)
REMARK    1  A    between atoms: N1_5  and  C5_7 
REMARK    2  A    between atoms: C5_7  and  C6_8 
REMARK    3  A    between atoms: C9_11  and  C10_13 
REMARK       I    between atoms: C10_13  and  N3_15 
REMARK    4  A    between atoms: N3_15  and  C11_16 
ROOT
ATOM      1  C10 <0> d           0.077   5.700  -2.358  0.00  0.00     0.275 C 
ATOM      2  O2  <0> d          -0.186   5.071  -3.366  0.00  0.00    -0.265 OA
ATOM      3  N3  <0> d           0.376   5.050  -1.216  0.00  0.00    -0.350 N 
ATOM      4  H9  <0> d           0.587   5.551  -0.413  0.00  0.00     0.163 HD
ENDROOT
BRANCH   1   5
ATOM      5  C9  <0> d           0.070   7.167  -2.386  0.00  0.00     0.143 A 
ATOM      6  C8  <0> d          -0.208   7.947  -3.472  0.00  0.00     0.045 A 
ATOM      7  C7  <0> d          -0.102   9.281  -3.047  0.00  0.00     0.037 A 
ATOM      8  C6  <0> d           0.240   9.256  -1.740  0.00  0.00     0.073 A 
ATOM      9  O1  <0> d           0.344   7.981  -1.346  0.00  0.00    -0.308 OA
BRANCH   8  10
ATOM     10  C5  <0> d           0.468  10.466  -0.870  0.00  0.00     0.215 C 
BRANCH  10  11
ATOM     11  N1  <0> d          -0.794  10.857  -0.238  0.00  0.00    -0.268 N 
ATOM     12  C4  <0> d          -1.256  10.418   0.951  0.00  0.00     0.029 A 
ATOM     13  C3  <0> d          -2.450  11.015   1.176  0.00  0.00     0.055 A 
ATOM     14  C20 <0> d          -0.567   9.438   1.865  0.00  0.00     0.070 C 
ATOM     15  C2  <0> d          -2.726  11.848   0.087  0.00  0.00     0.053 A 
ATOM     16  C1  <0> d          -3.954  12.705  -0.081  0.00  0.00     0.072 C 
ATOM     17  N2  <0> d          -1.732  11.758  -0.759  0.00  0.00    -0.177 NA
ENDBRANCH  10  11
ENDBRANCH   8  10
ENDBRANCH   1   5
BRANCH   3  18
ATOM     18  C11 <0> d           0.383   3.582  -1.188  0.00  0.00     0.089 C 
ATOM     19  C15 <0> d          -1.030   3.077  -0.900  0.00  0.00     0.063 C 
ATOM     20  C14 <0> d          -1.049   1.551  -0.842  0.00  0.00     0.121 C 
ATOM     21  C16 <0> d          -0.958   0.983  -2.263  0.00  0.00     0.046 C 
ATOM     22  C17 <0> d          -2.418   1.125  -0.266  0.00  0.00     0.046 C 
ATOM     23  N4  <0> d          -0.027   0.945   0.053  0.00  0.00    -0.059 N 
ATOM     24  C13 <0> d           1.318   1.579  -0.002  0.00  0.00     0.121 C 
ATOM     25  H30 <0> d          -0.370   1.012   1.019  0.00  0.00     0.279 HD
ATOM     26  H31 <0> d           0.076  -0.043  -0.206  0.00  0.00     0.279 HD
ATOM     27  C12 <0> d           1.307   3.104  -0.068  0.00  0.00     0.063 C 
ATOM     28  C18 <0> d           2.027   1.175   1.309  0.00  0.00     0.046 C 
ATOM     29  C19 <0> d           2.153   1.022  -1.161  0.00  0.00     0.046 C 
ENDBRANCH   3  18
TORSDOF 4
