REMARK  5 active torsions:
REMARK  status: ('A' for Active; 'I' for Inactive)
REMARK    1  A    between atoms: C3_3  and  C6_8 
REMARK    2  A    between atoms: C6_8  and  N2_9 
REMARK       I    between atoms: N2_9  and  C8_11 
REMARK    3  A    between atoms: C8_11  and  C9_13 
REMARK    4  A    between atoms: C19_25  and  C20_27 
REMARK    5  A    between atoms: C20_27  and  C21_28 
ROOT
ATOM      1  C9  <0> d          -3.592   0.829  -3.542  0.00  0.00     0.316 C 
ATOM      2  C10 <0> d          -2.414   0.249  -4.300  0.00  0.00     0.086 C 
ATOM      3  C11 <0> d          -1.177   1.055  -3.990  0.00  0.00    -0.027 A 
ATOM      4  C12 <0> d          -0.043   0.776  -3.365  0.00  0.00     0.096 A 
ATOM      5  N3  <0> d           0.789   1.875  -3.387  0.00  0.00    -0.365 N 
ATOM      6  H2  <0> d           1.665   1.917  -2.971  0.00  0.00     0.165 HD
ATOM      7  C13 <0> d           0.200   2.903  -4.085  0.00  0.00     0.043 A 
ATOM      8  C14 <0> d          -1.083   2.462  -4.416  0.00  0.00     0.007 A 
ATOM      9  C15 <0> d          -2.031   3.254  -5.032  0.00  0.00    -0.012 C 
ATOM     10  C16 <0> d          -1.646   4.485  -5.484  0.00  0.00     0.010 C 
ATOM     11  C17 <0> d          -0.353   4.932  -5.226  0.00  0.00     0.003 C 
ATOM     12  C18 <0> d           0.561   4.174  -4.522  0.00  0.00     0.030 C 
ATOM     13  C19 <0> d          -3.485   2.821  -5.053  0.00  0.00     0.255 C 
ATOM     14  N4  <0> d          -3.813   2.271  -3.728  0.00  0.00     0.106 N 
ATOM     15  H21 <0> d          -4.748   2.532  -3.453  0.00  0.00     0.317 HD
ENDROOT
BRANCH   1  16
ATOM     16  C8  <0> d          -3.384   0.569  -2.073  0.00  0.00     0.253 C 
ATOM     17  N2  <0> d          -3.616  -0.658  -1.566  0.00  0.00    -0.349 N 
ATOM     18  C7  <0> d          -4.175  -1.710  -2.420  0.00  0.00     0.153 C 
ATOM     19  O2  <0> d          -3.007   1.463  -1.346  0.00  0.00    -0.271 OA
BRANCH  17  20
ATOM     20  C6  <0> d          -3.309  -0.941  -0.162  0.00  0.00     0.185 C 
BRANCH  20  21
ATOM     21  C3  <0> d          -1.933  -1.547  -0.061  0.00  0.00     0.058 A 
ATOM     22  C2  <0> d          -1.317  -1.931   1.069  0.00  0.00     0.075 A 
ATOM     23  C1  <0> d          -1.872  -1.839   2.467  0.00  0.00     0.079 C 
ATOM     24  O1  <0> d          -0.107  -2.411   0.719  0.00  0.00    -0.301 OA
ATOM     25  C4  <0> d          -0.004  -2.322  -0.614  0.00  0.00     0.120 A 
ATOM     26  N1  <0> d          -1.099  -1.799  -1.086  0.00  0.00    -0.340 N 
ATOM     27  C5  <0> d           1.187  -2.751  -1.432  0.00  0.00     0.098 C 
ATOM     28  H31 <0> d          -1.284  -1.621  -2.021  0.00  0.00     0.167 HD
ENDBRANCH  20  21
ENDBRANCH  17  20
ENDBRANCH   1  16
BRANCH  13  29
ATOM     29  C20 <0> d          -4.379   4.026  -5.352  0.00  0.00     0.044 C 
BRANCH  29  30
ATOM     30  C21 <0> d          -4.301   4.361  -6.843  0.00  0.00    -0.020 C 
ATOM     31  C22 <0> d          -4.938   3.231  -7.654  0.00  0.00     0.009 C 
ATOM     32  C23 <0> d          -5.051   5.668  -7.112  0.00  0.00     0.009 C 
ENDBRANCH  29  30
ENDBRANCH  13  29
TORSDOF 5
