REMARK  3 active torsions:
REMARK  status: ('A' for Active; 'I' for Inactive)
REMARK    1  A    between atoms: C5_5  and  N1_8 
REMARK    2  A    between atoms: C9_10  and  N3_14 
REMARK       I    between atoms: N3_14  and  C12_15 
REMARK    3  A    between atoms: C12_15  and  C13_17 
ROOT
ATOM      1  N1  <0> d          -0.561  -4.378   0.074  0.00  0.00    -0.236 N 
ATOM      2  C8  <0> d          -0.224  -5.207   1.099  0.00  0.00     0.061 A 
ATOM      3  C9  <0> d           0.541  -6.204   0.585  0.00  0.00     0.085 A 
ATOM      4  C10 <0> d           0.673  -5.977  -0.793  0.00  0.00     0.080 A 
ATOM      5  N2  <0> d           0.011  -4.890  -1.098  0.00  0.00    -0.170 NA
ATOM      6  C11 <0> d           1.443  -6.840  -1.759  0.00  0.00     0.075 C 
ATOM      7  C14 <0> d          -0.625  -5.046   2.543  0.00  0.00     0.073 C 
ENDROOT
BRANCH   1   8
ATOM      8  C5  <0> d          -1.346  -3.221   0.172  0.00  0.00     0.058 A 
ATOM      9  C4  <0> d          -1.073  -2.125  -0.635  0.00  0.00     0.032 A 
ATOM     10  C3  <0> d          -1.849  -0.986  -0.537  0.00  0.00     0.009 A 
ATOM     11  C2  <0> d          -2.897  -0.938   0.364  0.00  0.00    -0.062 A 
ATOM     12  C1  <0> d          -3.741   0.306   0.469  0.00  0.00     0.048 C 
ATOM     13  C7  <0> d          -3.167  -2.026   1.173  0.00  0.00     0.009 A 
ATOM     14  C6  <0> d          -2.399  -3.169   1.075  0.00  0.00     0.032 A 
ENDBRANCH   1   8
BRANCH   3  15
ATOM     15  N3  <0> d           1.101  -7.275   1.306  0.00  0.00    -0.323 N 
ATOM     16  C12 <0> d           0.561  -8.506   1.212  0.00  0.00     0.235 C 
ATOM     17  O1  <0> d          -0.348  -8.712   0.435  0.00  0.00    -0.272 OA
ATOM     18  H11 <0> d           1.875  -7.127   1.871  0.00  0.00     0.169 HD
BRANCH  16  19
ATOM     19  C13 <0> d           1.088  -9.627   2.070  0.00  0.00     0.217 C 
ATOM     20 Cl1  <0> d           0.169 -11.138   1.716  0.00  0.00    -0.121 Cl
ENDBRANCH  16  19
ENDBRANCH   3  15
TORSDOF 3
