REMARK  5 active torsions:
REMARK  status: ('A' for Active; 'I' for Inactive)
REMARK    1  A    between atoms: C2_2  and  C3_3 
REMARK    2  A    between atoms: C2_2  and  N2_10 
REMARK    3  A    between atoms: C3_3  and  N1_4 
REMARK       I    between atoms: N2_10  and  C8_11 
REMARK    4  A    between atoms: C8_11  and  C9_13 
REMARK    5  A    between atoms: C9_13  and  N3_15 
ROOT
ATOM      1  N2  <0> d           0.679  -0.114  -1.324  0.00  0.00    -0.353 N 
ATOM      2  C8  <0> d           2.017  -0.245  -1.419  0.00  0.00     0.242 C 
ATOM      3  O2  <0> d           2.704  -0.194  -0.421  0.00  0.00    -0.271 OA
ATOM      4  H16 <0> d           0.130  -0.155  -2.123  0.00  0.00     0.163 HD
ENDROOT
BRANCH   1   5
ATOM      5  C2  <0> d           0.054   0.091  -0.015  0.00  0.00     0.108 C 
ATOM      6  C1  <0> d           0.007   1.587   0.299  0.00  0.00     0.034 C 
BRANCH   5   7
ATOM      7  C3  <0> d          -1.368  -0.472  -0.036  0.00  0.00     0.297 C 
BRANCH   7   8
ATOM      8  N1  <0> d          -1.330  -1.885  -0.435  0.00  0.00     0.094 N 
ATOM      9  C7  <0> d          -0.867  -2.733   0.673  0.00  0.00     0.298 C 
ATOM     10  C6  <0> d          -0.785  -4.186   0.198  0.00  0.00     0.198 C 
ATOM     11  O1  <0> d          -2.064  -4.593  -0.297  0.00  0.00    -0.388 OA
ATOM     12  C5  <0> d          -2.546  -3.789  -1.377  0.00  0.00     0.198 C 
ATOM     13  C4  <0> d          -2.645  -2.332  -0.917  0.00  0.00     0.298 C 
ENDBRANCH   7   8
ENDBRANCH   5   7
ENDBRANCH   1   5
BRANCH   2  14
ATOM     14  C9  <0> d           2.660  -0.455  -2.766  0.00  0.00     0.197 C 
ATOM     15  C10 <0> d           2.118  -1.740  -3.395  0.00  0.00     0.044 C 
BRANCH  14  16
ATOM     16  N3  <0> d           4.112  -0.567  -2.602  0.00  0.00    -0.268 N 
ATOM     17  N4  <0> d           5.039   0.474  -2.734  0.00  0.00    -0.184 NA
ATOM     18  C13 <0> d           6.234  -0.011  -2.511  0.00  0.00     0.140 A 
ATOM     19  C12 <0> d           6.107  -1.377  -2.241  0.00  0.00     0.040 A 
ATOM     20  C11 <0> d           4.792  -1.694  -2.303  0.00  0.00     0.114 A 
ENDBRANCH  14  16
ENDBRANCH   2  14
TORSDOF 5
