REMARK  3 active torsions:
REMARK  status: ('A' for Active; 'I' for Inactive)
REMARK    1  A    between atoms: C2_2  and  C3_3 
REMARK    2  A    between atoms: C2_2  and  N1_13 
REMARK    3  A    between atoms: N1_13  and  C11_14 
ROOT
ATOM      1  C1  <0> d          -1.538   2.667   1.445  0.00  0.00     0.047 C 
ATOM      2  C2  <0> d          -1.263   2.182   0.020  0.00  0.00     0.239 C 
ENDROOT
BRANCH   2   3
ATOM      3  C3  <0> d          -0.016   1.336   0.009  0.00  0.00     0.085 A 
ATOM      4  O1  <0> d           1.240   1.816  -0.000  0.00  0.00    -0.312 OA
ATOM      5  C10 <0> d           2.139   0.811  -0.014  0.00  0.00     0.086 A 
ATOM      6  C5  <0> d           1.417  -0.394  -0.014  0.00  0.00     0.001 A 
ATOM      7  C9  <0> d           3.527   0.773  -0.027  0.00  0.00     0.039 A 
ATOM      8  C4  <0> d           0.002  -0.004   0.002  0.00  0.00     0.049 A 
ATOM      9  C6  <0> d           2.091  -1.614  -0.027  0.00  0.00     0.033 A 
ATOM     10  C7  <0> d           3.469  -1.630  -0.040  0.00  0.00     0.011 A 
ATOM     11  C8  <0> d           4.183  -0.439  -0.040  0.00  0.00     0.022 A 
ATOM     12 Br1  <0> d           4.392  -3.281  -0.058  0.00  0.00    -0.051 Br
ENDBRANCH   2   3
BRANCH   2  13
ATOM     13  N1  <0> d          -1.077   3.339  -0.865  0.00  0.00    -0.052 N 
ATOM     14  H10 <0> d          -0.571   4.145  -0.313  0.00  0.00     0.279 HD
ATOM     15  H15 <0> d          -0.464   3.045  -1.729  0.00  0.00     0.279 HD
BRANCH  13  16
ATOM     16  C11 <0> d          -2.369   3.842  -1.353  0.00  0.00     0.287 C 
ATOM     17  C14 <0> d          -2.752   3.147  -2.641  0.00  0.00     0.289 C 
ATOM     18  O2  <0> d          -2.808   4.039  -3.640  0.00  0.00    -0.320 OA
ATOM     19  O3  <0> d          -2.974   1.964  -2.752  0.00  0.00    -0.263 OA
ATOM     20  C13 <0> d          -2.974   5.382  -3.097  0.00  0.00     0.181 C 
ATOM     21  C12 <0> d          -2.257   5.336  -1.728  0.00  0.00     0.070 C 
ENDBRANCH  13  16
ENDBRANCH   2  13
TORSDOF 3
