REMARK  4 active torsions:
REMARK  status: ('A' for Active; 'I' for Inactive)
REMARK    1  A    between atoms: C6_6  and  S1_7 
REMARK    2  A    between atoms: S1_7  and  C7_10 
REMARK    3  A    between atoms: C12_15  and  C16_22 
REMARK       I    between atoms: C16_22  and  N2_24 
REMARK    4  A    between atoms: N2_24  and  C17_25 
ROOT
ATOM      1  C7  <0> d          -2.034  -1.171  -1.652  0.00  0.00     0.168 A 
ATOM      2  C8  <0> d          -2.349  -0.071  -2.469  0.00  0.00     0.210 A 
ATOM      3  C9  <0> d          -2.721  -0.335  -3.873  0.00  0.00     0.043 A 
ATOM      4  C10 <0> d          -3.046   0.707  -4.742  0.00  0.00     0.019 A 
ATOM      5  C11 <0> d          -3.385   0.433  -6.036  0.00  0.00     0.018 A 
ATOM      6  C12 <0> d          -3.408  -0.888  -6.498  0.00  0.00     0.034 A 
ATOM      7  C13 <0> d          -3.087  -1.937  -5.642  0.00  0.00     0.047 A 
ATOM      8  C14 <0> d          -2.740  -1.666  -4.323  0.00  0.00     0.049 A 
ATOM      9  N1  <0> d          -2.415  -2.685  -3.452  0.00  0.00    -0.332 N 
ATOM     10  H1  <0> d          -2.430  -3.602  -3.768  0.00  0.00     0.168 HD
ATOM     11  C15 <0> d          -2.070  -2.433  -2.162  0.00  0.00     0.205 A 
ATOM     12  O3  <0> d          -1.757  -3.471  -1.357  0.00  0.00    -0.170 OA
ATOM     13  O5  <0> d          -2.318   1.068  -2.030  0.00  0.00    -0.286 OA
ENDROOT
BRANCH   6  14
ATOM     14  C16 <0> d          -3.777  -1.171  -7.902  0.00  0.00     0.256 C 
ATOM     15  O4  <0> d          -3.798  -2.317  -8.306  0.00  0.00    -0.267 OA
ATOM     16  N2  <0> d          -4.089  -0.157  -8.734  0.00  0.00    -0.320 N 
ATOM     17  H9  <0> d          -4.136   0.751  -8.396  0.00  0.00     0.169 HD
BRANCH  16  18
ATOM     18  C17 <0> d          -4.347  -0.415 -10.086  0.00  0.00     0.074 A 
ATOM     19  C22 <0> d          -3.977   0.511 -11.055  0.00  0.00     0.146 A 
ATOM     20  C21 <0> d          -4.228   0.251 -12.390  0.00  0.00     0.086 A 
ATOM     21  F1  <0> d          -3.367   1.661 -10.693  0.00  0.00    -0.204 F 
ATOM     22  C20 <0> d          -4.857  -0.926 -12.760  0.00  0.00     0.119 A 
ATOM     23  C19 <0> d          -5.232  -1.846 -11.795  0.00  0.00     0.044 A 
ATOM     24  F2  <0> d          -5.106  -1.176 -14.064  0.00  0.00    -0.206 F 
ATOM     25  C18 <0> d          -4.978  -1.594 -10.461  0.00  0.00     0.036 A 
ENDBRANCH  16  18
ENDBRANCH   6  14
BRANCH   1  26
ATOM     26  S1  <0> d          -1.583  -0.915   0.032  0.00  0.00     0.215 S 
ATOM     27  O1  <0> d          -1.294  -2.196   0.574  0.00  0.00    -0.217 OA
ATOM     28  O2  <0> d          -2.568  -0.056   0.590  0.00  0.00    -0.217 OA
BRANCH  26  29
ATOM     29  C6  <0> d          -0.069  -0.014   0.035  0.00  0.00     0.064 A 
ATOM     30  C1  <0> d          -0.087   1.368   0.044  0.00  0.00     0.025 A 
ATOM     31  C2  <0> d           1.101   2.075   0.046  0.00  0.00     0.025 A 
ATOM     32  C3  <0> d           2.308   1.399   0.041  0.00  0.00     0.034 A 
ATOM     33  C4  <0> d           2.326   0.016   0.032  0.00  0.00     0.025 A 
ATOM     34 Cl1  <0> d           3.800   2.287   0.043  0.00  0.00    -0.084 Cl
ATOM     35  C5  <0> d           1.137  -0.690   0.029  0.00  0.00     0.025 A 
ENDBRANCH  26  29
ENDBRANCH   1  26
TORSDOF 4
