REMARK  5 active torsions:
REMARK  status: ('A' for Active; 'I' for Inactive)
REMARK    1  A    between atoms: C2_2  and  N1_3 
REMARK    2  A    between atoms: N1_3  and  C3_4 
REMARK    3  A    between atoms: C5_6  and  S1_10 
REMARK    4  A    between atoms: S1_10  and  N3_13 
REMARK    5  A    between atoms: N3_13  and  C9_15 
ROOT
ATOM      1  S1  <0> d          -0.169  -5.296   0.378  0.00  0.00     0.261 S 
ATOM      2  O1  <0> d           0.587  -6.484   0.184  0.00  0.00    -0.200 OA
ATOM      3  O2  <0> d          -0.260  -4.649   1.639  0.00  0.00    -0.200 OA
ENDROOT
BRANCH   1   4
ATOM      4  C5  <0> d           0.466  -4.105  -0.755  0.00  0.00     0.084 A 
ATOM      5  C4  <0> d           0.316  -2.751  -0.515  0.00  0.00     0.075 A 
ATOM      6  C3  <0> d           0.831  -1.840  -1.432  0.00  0.00     0.124 A 
ATOM      7  N2  <0> d           1.452  -2.261  -2.523  0.00  0.00    -0.244 NA
ATOM      8  C7  <0> d           1.614  -3.546  -2.775  0.00  0.00     0.120 A 
ATOM      9  C6  <0> d           1.128  -4.504  -1.909  0.00  0.00     0.044 A 
BRANCH   6  10
ATOM     10  N1  <0> d           0.688  -0.476  -1.203  0.00  0.00    -0.375 N 
ATOM     11  H7  <0> d           1.042   0.162  -1.842  0.00  0.00     0.161 HD
BRANCH  10  12
ATOM     12  C2  <0> d           0.002  -0.004   0.002  0.00  0.00     0.116 C 
ATOM     13  C1  <0> d          -0.019   1.526   0.010  0.00  0.00     0.026 C 
ENDBRANCH  10  12
ENDBRANCH   6  10
ENDBRANCH   1   4
BRANCH   1  14
ATOM     14  N3  <0> d          -1.719  -5.640  -0.092  0.00  0.00    -0.305 N 
ATOM     15  C8  <0> d          -1.973  -6.727  -1.040  0.00  0.00     0.163 C 
BRANCH  14  16
ATOM     16  C9  <0> d          -2.837  -4.858   0.442  0.00  0.00     0.110 C 
ATOM     17  C12 <0> d          -3.595  -4.162  -0.724  0.00  0.00     0.166 C 
ATOM     18  S2  <0> d          -5.207  -3.800   0.091  0.00  0.00     0.146 S 
ATOM     19  C11 <0> d          -5.147  -5.037   1.450  0.00  0.00     0.142 C 
ATOM     20  O3  <0> d          -5.160  -2.495   0.651  0.00  0.00    -0.228 OA
ATOM     21  O4  <0> d          -6.262  -4.141  -0.798  0.00  0.00    -0.228 OA
ATOM     22  C10 <0> d          -3.823  -5.788   1.167  0.00  0.00     0.042 C 
ENDBRANCH  14  16
ENDBRANCH   1  14
TORSDOF 5
