REMARK  6 active torsions:
REMARK  status: ('A' for Active; 'I' for Inactive)
REMARK    1  A    between atoms: C2_2  and  N1_3 
REMARK    2  A    between atoms: C3_4  and  C5_9 
REMARK    3  A    between atoms: C5_9  and  N4_10 
REMARK       I    between atoms: N4_10  and  C6_11 
REMARK    4  A    between atoms: C6_11  and  C7_13 
REMARK    5  A    between atoms: C8_14  and  C9_15 
REMARK    6  A    between atoms: C12_18  and  N5_21 
ROOT
ATOM      1  N4  <0> d          -1.618  -0.968  -4.117  0.00  0.00    -0.350 N 
ATOM      2  C6  <0> d          -2.867  -0.914  -4.620  0.00  0.00     0.241 C 
ATOM      3  O1  <0> d          -3.791  -0.552  -3.915  0.00  0.00    -0.269 OA
ATOM      4  H9  <0> d          -0.881  -1.257  -4.679  0.00  0.00     0.163 HD
ENDROOT
BRANCH   2   5
ATOM      5  C7  <0> d          -3.113  -1.289  -6.012  0.00  0.00     0.075 C 
ATOM      6  C8  <0> d          -4.364  -1.234  -6.516  0.00  0.00     0.017 C 
BRANCH   6   7
ATOM      7  C9  <0> d          -4.610  -1.611  -7.915  0.00  0.00    -0.036 A 
ATOM      8  C14 <0> d          -5.907  -1.556  -8.439  0.00  0.00     0.013 A 
ATOM      9  C13 <0> d          -6.132  -1.903  -9.752  0.00  0.00     0.031 A 
ATOM     10  C12 <0> d          -5.075  -2.322 -10.554  0.00  0.00     0.039 A 
ATOM     11  C11 <0> d          -3.786  -2.385 -10.036  0.00  0.00     0.031 A 
ATOM     12  C10 <0> d          -3.550  -2.033  -8.726  0.00  0.00     0.013 A 
BRANCH  10  13
ATOM     13  N5  <0> d          -5.310  -2.680 -11.885  0.00  0.00    -0.315 N 
ATOM     14  C17 <0> d          -4.382  -3.105 -12.783  0.00  0.00     0.214 A 
ATOM     15  N6  <0> d          -4.981  -3.346 -13.917  0.00  0.00    -0.254 NA
ATOM     16  C16 <0> d          -6.291  -3.081 -13.793  0.00  0.00     0.135 A 
ATOM     17  C15 <0> d          -6.518  -2.664 -12.534  0.00  0.00     0.117 A 
ENDBRANCH  10  13
ENDBRANCH   6   7
ENDBRANCH   2   5
BRANCH   1  18
ATOM     18  C5  <0> d          -1.372  -0.593  -2.723  0.00  0.00     0.203 C 
BRANCH  18  19
ATOM     19  C3  <0> d           0.096  -0.741  -2.414  0.00  0.00     0.146 A 
ATOM     20  N1  <0> d           0.688  -0.476  -1.203  0.00  0.00    -0.308 N 
ATOM     21  C4  <0> d           2.009  -0.721  -1.315  0.00  0.00     0.196 A 
ATOM     22  N3  <0> d           2.236  -1.141  -2.577  0.00  0.00    -0.251 N 
ATOM     23  S1  <0> d           3.182  -0.536  -0.082  0.00  0.00    -0.039 SA
ATOM     24  N2  <0> d           1.004  -1.138  -3.245  0.00  0.00    -0.157 NA
ATOM     25  H6  <0> d           3.094  -1.394  -2.953  0.00  0.00     0.191 HD
BRANCH  20  26
ATOM     26  C2  <0> d           0.002  -0.004   0.002  0.00  0.00     0.128 C 
ATOM     27  C1  <0> d          -0.019   1.526   0.010  0.00  0.00     0.027 C 
ENDBRANCH  20  26
ENDBRANCH  18  19
ENDBRANCH   1  18
TORSDOF 6
