REMARK  6 active torsions:
REMARK  status: ('A' for Active; 'I' for Inactive)
REMARK    1  A    between atoms: C8_8  and  C9_10 
REMARK    2  A    between atoms: C9_10  and  N2_35 
REMARK    3  A    between atoms: C15_17  and  C19_21 
REMARK    4  A    between atoms: C19_21  and  N3_37 
REMARK    5  A    between atoms: C22_24  and  C25_27 
REMARK    6  A    between atoms: C22_24  and  O2_33 
ROOT
ATOM      1  C10 <0> d          -0.018   1.509   0.010  0.00  0.00     0.262 C 
ATOM      2  C11 <0> d           0.002  -0.004   0.002  0.00  0.00     0.203 C 
ATOM      3  O1  <0> d           0.564  -0.496  -1.221  0.00  0.00    -0.349 OA
ATOM      4  C12 <0> d           1.921  -0.590  -1.242  0.00  0.00     0.076 A 
ATOM      5  C13 <0> d           2.533  -1.836  -1.257  0.00  0.00     0.038 A 
ATOM      6  C14 <0> d           3.912  -1.921  -1.256  0.00  0.00     0.011 A 
ATOM      7  C15 <0> d           4.682  -0.772  -1.237  0.00  0.00    -0.032 A 
ATOM      8  C16 <0> d           4.072   0.470  -1.229  0.00  0.00     0.020 A 
ATOM      9  C17 <0> d           2.696   0.555  -1.242  0.00  0.00     0.002 A 
ATOM     10  C18 <0> d           2.014   1.910  -1.271  0.00  0.00     0.276 C 
ATOM     11  N2  <0> d           1.334   2.104   0.033  0.00  0.00    -0.061 N 
ATOM     12  H32 <0> d           1.886   1.640   0.764  0.00  0.00     0.280 HD
ENDROOT
BRANCH   7  13
ATOM     13  C19 <0> d           6.185  -0.873  -1.224  0.00  0.00     0.273 C 
BRANCH  13  14
ATOM     14  N3  <0> d           6.645  -0.942   0.178  0.00  0.00    -0.067 N 
ATOM     15  C20 <0> d           6.385   0.344   0.859  0.00  0.00     0.238 C 
ATOM     16  C21 <0> d           6.760   0.208   2.337  0.00  0.00     0.071 C 
ATOM     17  C22 <0> d           8.245  -0.145   2.451  0.00  0.00     0.089 C 
ATOM     18  C23 <0> d           8.515  -1.439   1.679  0.00  0.00     0.071 C 
ATOM     19  C24 <0> d           8.090  -1.256   0.221  0.00  0.00     0.238 C 
ATOM     20  H33 <0> d           6.129  -1.686   0.662  0.00  0.00     0.280 HD
BRANCH  17  21
ATOM     21  C25 <0> d           8.607  -0.338   3.901  0.00  0.00    -0.006 A 
ATOM     22  C29 <0> d           8.495  -1.583   4.490  0.00  0.00     0.126 A 
ATOM     23  N1  <0> d           8.815  -1.762   5.757  0.00  0.00    -0.272 NA
ATOM     24  C28 <0> d           9.240  -0.768   6.511  0.00  0.00     0.116 A 
ATOM     25  C27 <0> d           9.371   0.507   5.993  0.00  0.00     0.020 A 
ATOM     26  C26 <0> d           9.050   0.732   4.663  0.00  0.00     0.013 A 
ENDBRANCH  17  21
BRANCH  17  27
ATOM     27  O2  <0> d           9.032   0.913   1.900  0.00  0.00    -0.385 OA
ATOM     28  H31 <0> d           8.911   1.765   2.342  0.00  0.00     0.211 HD
ENDBRANCH  17  27
ENDBRANCH  13  14
ENDBRANCH   7  13
BRANCH  11  29
ATOM     29  C9  <0> d           1.244   3.540   0.344  0.00  0.00     0.281 C 
BRANCH  29  30
ATOM     30  C8  <0> d           0.791   3.692   1.773  0.00  0.00     0.010 A 
ATOM     31  C7  <0> d           1.544   3.741   2.881  0.00  0.00     0.029 A 
ATOM     32  C5  <0> d           0.898   3.899   4.176  0.00  0.00    -0.018 A 
ATOM     33  C4  <0> d          -0.511   3.976   4.125  0.00  0.00     0.015 A 
ATOM     34  C6  <0> d           1.491   3.977   5.458  0.00  0.00     0.013 A 
ATOM     35  C3  <0> d          -1.278   4.121   5.260  0.00  0.00     0.019 A 
ATOM     36  S1  <0> d          -0.873   3.843   2.393  0.00  0.00    -0.092 SA
ATOM     37  C2  <0> d          -0.661   4.194   6.493  0.00  0.00     0.001 A 
ATOM     38  C1  <0> d           0.723   4.121   6.571  0.00  0.00     0.001 A 
ENDBRANCH  29  30
ENDBRANCH  11  29
TORSDOF 6
