REMARK  6 active torsions:
REMARK  status: ('A' for Active; 'I' for Inactive)
REMARK    1  A    between atoms: C6_8  and  C10_13 
REMARK       I    between atoms: C10_13  and  N2_15 
REMARK    2  A    between atoms: N2_15  and  C11_16 
REMARK    3  A    between atoms: C11_16  and  C12_17 
REMARK    4  A    between atoms: C11_16  and  C21_27 
REMARK    5  A    between atoms: C12_17  and  C13_18 
REMARK    6  A    between atoms: C21_27  and  O4_29 
ROOT
ATOM      1  C10 <0> d           6.624   0.407  -0.018  0.00  0.00     0.252 C 
ATOM      2  O2  <0> d           6.963   0.377  -1.185  0.00  0.00    -0.268 OA
ATOM      3  N2  <0> d           7.532   0.673   0.942  0.00  0.00    -0.343 N 
ATOM      4  H10 <0> d           7.261   0.697   1.873  0.00  0.00     0.163 HD
ENDROOT
BRANCH   3   5
ATOM      5  C11 <0> d           8.929   0.924   0.578  0.00  0.00     0.188 C 
BRANCH   5   6
ATOM      6  C12 <0> d           9.834   0.584   1.764  0.00  0.00     0.072 C 
BRANCH   6   7
ATOM      7  C13 <0> d           9.756  -0.894   2.048  0.00  0.00    -0.048 A 
ATOM      8  C20 <0> d           8.724  -1.604   2.895  0.00  0.00     0.155 A 
ATOM      9  N3  <0> d           9.081  -3.026   2.856  0.00  0.00    -0.385 N 
ATOM     10  C19 <0> d          10.155  -3.168   2.118  0.00  0.00     0.038 A 
ATOM     11  H22 <0> d           8.604  -3.742   3.304  0.00  0.00     0.160 HD
ATOM     12  C14 <0> d          10.598  -1.853   1.601  0.00  0.00    -0.006 A 
ATOM     13  C18 <0> d          10.913  -4.316   1.758  0.00  0.00     0.030 A 
ATOM     14  C15 <0> d          11.792  -1.810   0.749  0.00  0.00     0.014 A 
ATOM     15  C16 <0> d          12.441  -2.963   0.468  0.00  0.00     0.001 A 
ATOM     16  C17 <0> d          12.001  -4.196   0.969  0.00  0.00     0.002 A 
ENDBRANCH   6   7
ENDBRANCH   5   6
BRANCH   5  17
ATOM     17  C21 <0> d           9.100   2.377   0.216  0.00  0.00     0.281 C 
ATOM     18  O3  <0> d           8.152   3.126   0.258  0.00  0.00    -0.263 OA
BRANCH  17  19
ATOM     19  O4  <0> d          10.305   2.840  -0.152  0.00  0.00    -0.325 OA
ATOM     20  C22 <0> d          10.394   4.228  -0.481  0.00  0.00     0.213 C 
ENDBRANCH  17  19
ENDBRANCH   5  17
ENDBRANCH   3   5
BRANCH   1  21
ATOM     21  C6  <0> d           5.218   0.154   0.348  0.00  0.00     0.034 A 
ATOM     22  C5  <0> d           4.277  -0.121  -0.647  0.00  0.00     0.048 A 
ATOM     23  C4  <0> d           2.955  -0.360  -0.308  0.00  0.00     0.052 A 
ATOM     24  N1  <0> d           2.031  -0.636  -1.313  0.00  0.00    -0.325 N 
ATOM     25  C9  <0> d           2.579  -0.318   1.039  0.00  0.00     0.028 A 
ATOM     26  C3  <0> d           0.712  -0.492  -1.231  0.00  0.00     0.236 C 
ATOM     27  H6  <0> d           2.385  -0.967  -2.154  0.00  0.00     0.169 HD
ATOM     28  C2  <0> d           0.002  -0.004   0.002  0.00  0.00     0.141 C 
ATOM     29  O1  <0> d           0.043  -0.768  -2.205  0.00  0.00    -0.272 OA
ATOM     30  C1  <0> d          -0.019   1.526   0.010  0.00  0.00     0.031 C 
ATOM     31  S1  <0> d           0.888  -0.610   1.470  0.00  0.00    -0.114 SA
ATOM     32  C8  <0> d           3.514  -0.047   2.029  0.00  0.00     0.022 A 
ATOM     33  C7  <0> d           4.829   0.189   1.691  0.00  0.00     0.018 A 
ENDBRANCH   1  21
TORSDOF 6
