REMARK  6 active torsions:
REMARK  status: ('A' for Active; 'I' for Inactive)
REMARK    1  A    between atoms: C2_2  and  C10_11 
REMARK    2  A    between atoms: C4_4  and  O1_10 
REMARK    3  A    between atoms: C10_11  and  N1_12 
REMARK    4  A    between atoms: N1_12  and  C11_13 
REMARK    5  A    between atoms: N3_20  and  C16_23 
REMARK    6  A    between atoms: C21_28  and  O5_29 
ROOT
ATOM      1  C11 <0> d           0.615  -0.197  -3.674  0.00  0.00     0.105 C 
ATOM      2  C12 <0> d          -0.073   0.196  -4.807  0.00  0.00     0.116 A 
ATOM      3  C13 <0> d          -1.303   1.004  -4.717  0.00  0.00     0.266 A 
ATOM      4  O2  <0> d          -1.747   1.349  -3.638  0.00  0.00    -0.267 OA
ATOM      5  N2  <0> d          -1.922   1.352  -5.864  0.00  0.00    -0.274 N 
ATOM      6  C14 <0> d          -1.444   0.979  -7.059  0.00  0.00     0.337 A 
ATOM      7  O3  <0> d          -2.049   1.325  -8.055  0.00  0.00    -0.246 OA
ATOM      8  N3  <0> d          -0.333   0.246  -7.215  0.00  0.00    -0.226 N 
ATOM      9  C15 <0> d           0.393  -0.168  -6.156  0.00  0.00     0.273 A 
ATOM     10  O4  <0> d           1.403  -0.830  -6.311  0.00  0.00    -0.266 OA
ATOM     11  H22 <0> d          -2.733   1.883  -5.823  0.00  0.00     0.173 HD
ENDROOT
BRANCH   1  12
ATOM     12  N1  <0> d           0.083   0.014  -2.454  0.00  0.00    -0.397 N 
ATOM     13  H20 <0> d          -0.817   0.367  -2.372  0.00  0.00     0.158 HD
BRANCH  12  14
ATOM     14  C10 <0> d           0.863  -0.290  -1.252  0.00  0.00     0.128 C 
BRANCH  14  15
ATOM     15  C2  <0> d           0.024   0.041   0.003  0.00  0.00    -0.025 C 
ATOM     16  C1  <0> d          -0.314   1.533  -0.056  0.00  0.00     0.017 C 
ATOM     17  C7  <0> d           0.864  -0.282   1.225  0.00  0.00     0.019 C 
ATOM     18  C6  <0> d           0.108  -0.437   2.531  0.00  0.00    -0.045 C 
ATOM     19  C5  <0> d          -1.174  -1.248   2.374  0.00  0.00     0.040 C 
ATOM     20  C8  <0> d          -0.208   0.928   3.150  0.00  0.00     0.015 C 
ATOM     21  C9  <0> d           1.020  -1.191   3.523  0.00  0.00     0.015 C 
ATOM     22  C4  <0> d          -2.034  -0.688   1.244  0.00  0.00     0.119 C 
ATOM     23  C3  <0> d          -1.255  -0.786  -0.065  0.00  0.00     0.042 C 
BRANCH  22  24
ATOM     24  O1  <0> d          -3.232  -1.468   1.136  0.00  0.00    -0.396 OA
ATOM     25  H17 <0> d          -3.782  -1.456   1.931  0.00  0.00     0.210 HD
ENDBRANCH  22  24
ENDBRANCH  14  15
ENDBRANCH  12  14
ENDBRANCH   1  12
BRANCH   8  26
ATOM     26  C16 <0> d           0.089  -0.094  -8.510  0.00  0.00     0.080 A 
ATOM     27  C21 <0> d          -0.360  -1.271  -9.104  0.00  0.00     0.095 A 
ATOM     28  C20 <0> d           0.054  -1.598 -10.385  0.00  0.00     0.039 A 
ATOM     29  C19 <0> d           0.921  -0.763 -11.066  0.00  0.00     0.003 A 
ATOM     30  C18 <0> d           1.371   0.403 -10.474  0.00  0.00     0.002 A 
ATOM     31  C17 <0> d           0.958   0.739  -9.199  0.00  0.00     0.033 A 
BRANCH  27  32
ATOM     32  O5  <0> d          -1.208  -2.094  -8.431  0.00  0.00    -0.354 OA
ATOM     33  C22 <0> d          -1.626  -3.284  -9.102  0.00  0.00     0.210 C 
ENDBRANCH  27  32
ENDBRANCH   8  26
TORSDOF 6
