REMARK  2 active torsions:
REMARK  status: ('A' for Active; 'I' for Inactive)
REMARK    1  A    between atoms: C3_3  and  N4_14 
REMARK    2  A    between atoms: C4_4  and  N3_8 
ROOT
ATOM      1  C1  <0> d           1.538   0.623   1.222  0.00  0.00     0.075 C 
ATOM      2  C2  <0> d           0.672  -0.386   0.512  0.00  0.00     0.081 A 
ATOM      3  C3  <0> d           1.131  -1.453  -0.268  0.00  0.00     0.098 A 
ATOM      4  C4  <0> d           0.041  -2.130  -0.732  0.00  0.00     0.150 A 
ATOM      5  N1  <0> d          -1.065  -1.498  -0.253  0.00  0.00    -0.256 N 
ATOM      6  N2  <0> d          -0.638  -0.415   0.526  0.00  0.00    -0.174 NA
ATOM      7  C5  <0> d          -2.456  -1.886  -0.502  0.00  0.00     0.182 C 
ENDROOT
BRANCH   4   8
ATOM      8  N3  <0> d           0.058  -3.263  -1.550  0.00  0.00    -0.360 N 
ATOM      9  C9  <0> d          -0.026  -4.655  -1.086  0.00  0.00     0.082 C 
ATOM     10  C8  <0> d           0.054  -5.559  -2.334  0.00  0.00     0.026 C 
ATOM     11  C10 <0> d           1.139  -4.961  -0.143  0.00  0.00     0.032 C 
ATOM     12  C7  <0> d           0.755  -4.648  -3.376  0.00  0.00     0.022 C 
ATOM     13  C6  <0> d           0.169  -3.260  -3.020  0.00  0.00     0.125 C 
ENDBRANCH   4   8
BRANCH   3  14
ATOM     14  N4  <0> d           2.483  -1.773  -0.528  0.00  0.00    -0.394 N 
ATOM     15  H17 <0> d           3.190  -1.189  -0.212  0.00  0.00     0.156 HD
ATOM     16  H18 <0> d           2.705  -2.577  -1.024  0.00  0.00     0.156 HD
ENDBRANCH   3  14
TORSDOF 2
