REMARK  4 active torsions:
REMARK  status: ('A' for Active; 'I' for Inactive)
REMARK    1  A    between atoms: C7_12  and  C8_13 
REMARK    2  A    between atoms: C9_14  and  C10_15 
REMARK    3  A    between atoms: C10_15  and  C11_16 
REMARK    4  A    between atoms: C11_16  and  C12_17 
ROOT
ATOM      1  C8  <0> d           0.137  -4.189  -2.366  0.00  0.00     0.001 C 
ATOM      2  C9  <0> d           0.212  -4.851  -1.146  0.00  0.00     0.000 C 
ENDROOT
BRANCH   2   3
ATOM      3  C10 <0> d           0.449  -6.221  -1.112  0.00  0.00     0.001 C 
BRANCH   3   4
ATOM      4  C11 <0> d           0.608  -6.924  -2.290  0.00  0.00     0.023 C 
BRANCH   4   5
ATOM      5  C12 <0> d           0.943  -8.291  -2.254  0.00  0.00     0.100 A 
ATOM      6  C15 <0> d           1.266  -8.992  -3.444  0.00  0.00     0.267 A 
ATOM      7  N4  <0> d           1.589 -10.304  -3.367  0.00  0.00    -0.270 N 
ATOM      8  O6  <0> d           1.259  -8.419  -4.522  0.00  0.00    -0.267 OA
ATOM      9  C14 <0> d           1.594 -10.944  -2.185  0.00  0.00     0.333 A 
ATOM     10  C16 <0> d           1.930 -11.038  -4.588  0.00  0.00     0.164 C 
ATOM     11  N3  <0> d           1.288 -10.317  -1.037  0.00  0.00    -0.270 N 
ATOM     12  O5  <0> d           1.883 -12.124  -2.155  0.00  0.00    -0.246 OA
ATOM     13  C13 <0> d           0.961  -9.004  -1.028  0.00  0.00     0.267 A 
ATOM     14  C17 <0> d           1.310 -11.065   0.223  0.00  0.00     0.164 C 
ATOM     15  O4  <0> d           0.684  -8.442   0.019  0.00  0.00    -0.267 OA
ENDBRANCH   4   5
ENDBRANCH   3   4
ENDBRANCH   2   3
BRANCH   1  16
ATOM     16  C7  <0> d          -0.029  -2.818  -2.399  0.00  0.00     0.023 C 
ATOM     17  C3  <0> d           0.012  -2.075  -1.204  0.00  0.00     0.100 A 
ATOM     18  C2  <0> d           1.145  -2.129  -0.353  0.00  0.00     0.267 A 
ATOM     19  C4  <0> d          -1.079  -1.254  -0.820  0.00  0.00     0.267 A 
ATOM     20  N1  <0> d           1.145  -1.399   0.788  0.00  0.00    -0.270 N 
ATOM     21  O1  <0> d           2.106  -2.823  -0.644  0.00  0.00    -0.267 OA
ATOM     22  C1  <0> d           2.310  -1.446   1.676  0.00  0.00     0.164 C 
ATOM     23  C5  <0> d           0.090  -0.637   1.119  0.00  0.00     0.333 A 
ATOM     24  N2  <0> d          -1.000  -0.555   0.337  0.00  0.00    -0.270 N 
ATOM     25  O3  <0> d           0.123   0.001   2.153  0.00  0.00    -0.246 OA
ATOM     26  C6  <0> d          -2.119   0.297   0.744  0.00  0.00     0.164 C 
ATOM     27  O2  <0> d          -2.075  -1.178  -1.522  0.00  0.00    -0.267 OA
ENDBRANCH   1  16
TORSDOF 4
