REMARK  5 active torsions:
REMARK  status: ('A' for Active; 'I' for Inactive)
REMARK    1  A    between atoms: C2_2  and  C3_3 
REMARK    2  A    between atoms: C2_2  and  N3_19 
REMARK       I    between atoms: C3_3  and  N1_5 
REMARK    3  A    between atoms: N1_5  and  C4_6 
REMARK    4  A    between atoms: C11_14  and  C12_15 
REMARK    5  A    between atoms: C12_15  and  O3_17 
ROOT
ATOM      1  C4  <0> d           0.940  -0.687  -3.670  0.00  0.00     0.057 A 
ATOM      2  C5  <0> d           0.592  -0.563  -5.003  0.00  0.00     0.015 A 
ATOM      3  C6  <0> d          -0.531   0.009  -5.648  0.00  0.00     0.016 A 
ATOM      4  C7  <0> d          -0.612  -0.012  -7.002  0.00  0.00     0.001 A 
ATOM      5  C8  <0> d           0.391  -0.587  -7.787  0.00  0.00     0.002 A 
ATOM      6  C9  <0> d           1.494  -1.153  -7.238  0.00  0.00     0.030 A 
ATOM      7  C10 <0> d           1.651  -1.170  -5.828  0.00  0.00     0.041 A 
ATOM      8  N2  <0> d           2.611  -1.649  -5.063  0.00  0.00    -0.371 N 
ATOM      9  C11 <0> d           2.276  -1.396  -3.658  0.00  0.00     0.233 A 
ATOM     10  H24 <0> d           3.413  -2.094  -5.379  0.00  0.00     0.161 HD
ENDROOT
BRANCH   1  11
ATOM     11  N1  <0> d           0.229  -0.255  -2.591  0.00  0.00    -0.326 N 
ATOM     12  C3  <0> d           0.781  -0.293  -1.361  0.00  0.00     0.252 C 
ATOM     13  O1  <0> d           1.943  -0.610  -1.228  0.00  0.00    -0.271 OA
ATOM     14  H6  <0> d          -0.673   0.080  -2.707  0.00  0.00     0.168 HD
BRANCH  12  15
ATOM     15  C2  <0> d          -0.048   0.058  -0.152  0.00  0.00     0.275 C 
ATOM     16  C1  <0> d          -0.450   1.532  -0.220  0.00  0.00     0.050 C 
BRANCH  15  17
ATOM     17  N3  <0> d           0.738  -0.180   1.066  0.00  0.00    -0.059 N 
ATOM     18  C18 <0> d           1.856   0.769   1.118  0.00  0.00     0.236 C 
ATOM     19  C17 <0> d           2.724   0.473   2.343  0.00  0.00     0.028 C 
ATOM     20  C16 <0> d           1.875   0.612   3.609  0.00  0.00     0.003 C 
ATOM     21  C15 <0> d           0.671  -0.328   3.511  0.00  0.00     0.028 C 
ATOM     22  C14 <0> d          -0.121  -0.003   2.243  0.00  0.00     0.236 C 
ATOM     23  H25 <0> d           1.098  -1.123   1.054  0.00  0.00     0.280 HD
ENDBRANCH  15  17
ENDBRANCH  12  15
ENDBRANCH   1  11
BRANCH   9  24
ATOM     24  C12 <0> d           2.166  -2.700  -2.911  0.00  0.00     0.287 C 
ATOM     25  O2  <0> d           2.084  -3.740  -3.520  0.00  0.00    -0.262 OA
BRANCH  24  26
ATOM     26  O3  <0> d           2.159  -2.705  -1.569  0.00  0.00    -0.325 OA
ATOM     27  C13 <0> d           2.052  -3.977  -0.926  0.00  0.00     0.213 C 
ENDBRANCH  24  26
ENDBRANCH   9  24
TORSDOF 5
