REMARK  6 active torsions:
REMARK  status: ('A' for Active; 'I' for Inactive)
REMARK    1  A    between atoms: C3_3  and  C7_10 
REMARK    2  A    between atoms: C5_5  and  N1_7 
REMARK    3  A    between atoms: C8_11  and  C12_22 
REMARK    4  A    between atoms: C9_12  and  C11_17 
REMARK    5  A    between atoms: C9_12  and  O4_21 
REMARK    6  A    between atoms: C12_22  and  C13_24 
ROOT
ATOM      1  C7  <0> d          -3.566  -1.383   0.691  0.00  0.00     0.136 C 
ATOM      2  C8  <0> d          -2.748  -0.513  -0.269  0.00  0.00     0.153 C 
ATOM      3  C9  <0> d          -3.307  -0.690  -1.685  0.00  0.00     0.248 C 
ATOM      4  N2  <0> d          -4.737  -0.378  -1.679  0.00  0.00    -0.303 N 
ATOM      5  C10 <0> d          -5.487  -0.566  -0.583  0.00  0.00     0.319 C 
ATOM      6  O3  <0> d          -6.673  -0.301  -0.635  0.00  0.00    -0.247 OA
ATOM      7  N3  <0> d          -4.982  -1.034   0.568  0.00  0.00    -0.333 N 
ATOM      8  H7  <0> d          -5.151  -0.029  -2.484  0.00  0.00     0.167 HD
ATOM      9  H8  <0> d          -5.566  -1.142   1.334  0.00  0.00     0.165 HD
ENDROOT
BRANCH   1  10
ATOM     10  C3  <0> d          -3.373  -2.836   0.342  0.00  0.00    -0.032 A 
ATOM     11  C2  <0> d          -2.250  -3.510   0.783  0.00  0.00     0.009 A 
ATOM     12  C1  <0> d          -2.073  -4.843   0.462  0.00  0.00     0.003 A 
ATOM     13  C6  <0> d          -3.020  -5.502  -0.299  0.00  0.00     0.036 A 
ATOM     14  C5  <0> d          -4.144  -4.828  -0.740  0.00  0.00     0.103 A 
ATOM     15  C4  <0> d          -4.323  -3.497  -0.416  0.00  0.00     0.045 A 
BRANCH  14  16
ATOM     16  N1  <0> d          -5.158  -5.534  -1.556  0.00  0.00    -0.116 N 
ATOM     17  O1  <0> d          -5.002  -6.708  -1.839  0.00  0.00    -0.532 OA
ATOM     18  O2  <0> d          -6.148  -4.940  -1.944  0.00  0.00    -0.532 OA
ENDBRANCH  14  16
ENDBRANCH   1  10
BRANCH   2  19
ATOM     19  C12 <0> d          -2.857   0.933   0.140  0.00  0.00     0.172 C 
ATOM     20  O5  <0> d          -3.897   1.535  -0.029  0.00  0.00    -0.292 OA
BRANCH  19  21
ATOM     21  C13 <0> d          -1.703   1.616   0.746  0.00  0.00     0.028 A 
ATOM     22  C17 <0> d          -0.521   0.918   1.009  0.00  0.00     0.131 A 
ATOM     23  N4  <0> d           0.513   1.531   1.545  0.00  0.00    -0.272 NA
ATOM     24  C16 <0> d           0.479   2.812   1.859  0.00  0.00     0.116 A 
ATOM     25  C15 <0> d          -0.655   3.573   1.636  0.00  0.00     0.020 A 
ATOM     26  C14 <0> d          -1.771   2.979   1.074  0.00  0.00     0.018 A 
ENDBRANCH  19  21
ENDBRANCH   2  19
BRANCH   3  27
ATOM     27  C11 <0> d          -2.582   0.256  -2.644  0.00  0.00     0.438 C 
ATOM     28  F1  <0> d          -1.200   0.068  -2.529  0.00  0.00    -0.166 F 
ATOM     29  F2  <0> d          -2.981  -0.015  -3.957  0.00  0.00    -0.166 F 
ATOM     30  F3  <0> d          -2.900   1.580  -2.323  0.00  0.00    -0.166 F 
ENDBRANCH   3  27
BRANCH   3  31
ATOM     31  O4  <0> d          -3.115  -2.041  -2.109  0.00  0.00    -0.363 OA
ATOM     32  H9  <0> d          -3.446  -2.226  -2.998  0.00  0.00     0.213 HD
ENDBRANCH   3  31
TORSDOF 6
