REMARK  4 active torsions:
REMARK  status: ('A' for Active; 'I' for Inactive)
REMARK    1  A    between atoms: C4_4  and  S1_8 
REMARK    2  A    between atoms: S1_8  and  C6_9 
REMARK    3  A    between atoms: C6_9  and  C7_10 
REMARK    4  A    between atoms: C10_13  and  N4_20 
ROOT
ATOM      1  C7  <0> d          -0.307  -6.187  -1.007  0.00  0.00    -0.019 A 
ATOM      2  C8  <0> d          -1.504  -6.787  -1.256  0.00  0.00     0.012 A 
ATOM      3  C9  <0> d          -1.573  -8.024  -1.886  0.00  0.00     0.030 A 
ATOM      4  C10 <0> d          -0.423  -8.678  -2.278  0.00  0.00     0.038 A 
ATOM      5  C11 <0> d           0.831  -8.079  -2.032  0.00  0.00     0.019 A 
ATOM      6  C12 <0> d           0.889  -6.816  -1.393  0.00  0.00     0.076 A 
ATOM      7  N3  <0> d           2.075  -6.242  -1.162  0.00  0.00    -0.260 NA
ATOM      8  C13 <0> d           3.194  -6.823  -1.520  0.00  0.00     0.117 A 
ATOM      9  C14 <0> d           3.206  -8.062  -2.156  0.00  0.00     0.020 A 
ATOM     10  C15 <0> d           2.029  -8.708  -2.412  0.00  0.00     0.017 A 
ENDROOT
BRANCH   1  11
ATOM     11  C6  <0> d          -0.264  -4.846  -0.322  0.00  0.00     0.121 C 
BRANCH  11  12
ATOM     12  S1  <0> d          -0.329  -3.528  -1.567  0.00  0.00    -0.106 SA
BRANCH  12  13
ATOM     13  C4  <0> d          -0.425  -2.048  -0.617  0.00  0.00     0.091 A 
ATOM     14  C3  <0> d          -0.153  -1.924   0.713  0.00  0.00     0.067 A 
ATOM     15  C2  <0> d          -0.351  -0.587   1.068  0.00  0.00     0.053 A 
ATOM     16  C1  <0> d          -0.164  -0.004   2.445  0.00  0.00     0.072 C 
ATOM     17  N2  <0> d          -0.733   0.072   0.004  0.00  0.00    -0.177 NA
ATOM     18  N1  <0> d          -0.784  -0.820  -1.075  0.00  0.00    -0.267 N 
ATOM     19  C5  <0> d          -1.162  -0.489  -2.451  0.00  0.00     0.181 C 
ENDBRANCH  12  13
ENDBRANCH  11  12
ENDBRANCH   1  11
BRANCH   4  20
ATOM     20  N4  <0> d          -0.498  -9.917  -2.908  0.00  0.00    -0.398 N 
ATOM     21  H15 <0> d          -1.363 -10.324  -3.074  0.00  0.00     0.156 HD
ATOM     22  H16 <0> d           0.313 -10.372  -3.181  0.00  0.00     0.156 HD
ENDBRANCH   4  20
TORSDOF 4
