REMARK  4 active torsions:
REMARK  status: ('A' for Active; 'I' for Inactive)
REMARK    1  A    between atoms: C2_2  and  C3_3 
REMARK    2  A    between atoms: C2_2  and  N2_9 
REMARK    3  A    between atoms: N2_9  and  S1_10 
REMARK    4  A    between atoms: S1_10  and  C8_13 
ROOT
ATOM      1  N2  <0> d           0.482  -0.561   1.063  0.00  0.00    -0.313 N 
ATOM      2  H15 <0> d           1.439  -0.593   0.912  0.00  0.00     0.172 HD
ENDROOT
BRANCH   1   3
ATOM      3  C2  <0> d          -0.429  -0.314  -0.057  0.00  0.00     0.119 C 
ATOM      4  C1  <0> d          -0.186   1.091  -0.612  0.00  0.00     0.035 C 
BRANCH   3   5
ATOM      5  C3  <0> d          -0.175  -1.347  -1.157  0.00  0.00     0.208 C 
ATOM      6  N1  <0> d          -1.087  -1.098  -2.281  0.00  0.00    -0.069 N 
ATOM      7  C7  <0> d          -0.799  -2.036  -3.373  0.00  0.00     0.233 C 
ATOM      8  H14 <0> d          -2.040  -1.222  -1.973  0.00  0.00     0.277 HD
ATOM      9  H25 <0> d          -0.963  -0.152  -2.610  0.00  0.00     0.277 HD
ATOM     10  C6  <0> d          -1.065  -3.467  -2.902  0.00  0.00     0.027 C 
ATOM     11  C5  <0> d          -0.162  -3.782  -1.706  0.00  0.00     0.004 C 
ATOM     12  C4  <0> d          -0.417  -2.752  -0.602  0.00  0.00     0.035 C 
ENDBRANCH   3   5
ENDBRANCH   1   3
BRANCH   1  13
ATOM     13  S1  <0> d          -0.124  -0.784   2.588  0.00  0.00     0.231 S 
ATOM     14  O1  <0> d          -1.136  -1.770   2.436  0.00  0.00    -0.206 OA
ATOM     15  O2  <0> d           1.016  -1.037   3.398  0.00  0.00    -0.206 OA
BRANCH  13  16
ATOM     16  C8  <0> d          -0.866   0.810   3.034  0.00  0.00     0.133 C 
ATOM     17  C12 <0> d          -1.458   0.724   4.444  0.00  0.00     0.048 C 
ATOM     18  C11 <0> d          -2.011   2.095   4.842  0.00  0.00     0.169 C 
ATOM     19  O3  <0> d          -0.967   3.067   4.768  0.00  0.00    -0.391 OA
ATOM     20  C10 <0> d          -0.407   3.226   3.463  0.00  0.00     0.169 C 
ATOM     21  C9  <0> d           0.210   1.900   3.010  0.00  0.00     0.048 C 
ENDBRANCH  13  16
ENDBRANCH   1  13
TORSDOF 4
