REMARK  3 active torsions:
REMARK  status: ('A' for Active; 'I' for Inactive)
REMARK    1  A    between atoms: C2_2  and  C3_3 
REMARK    2  A    between atoms: C3_3  and  C4_4 
REMARK    3  A    between atoms: C3_3  and  N2_7 
ROOT
ATOM      1  N2  <0> d          -2.082  -0.162   1.273  0.00  0.00    -0.276 N 
ATOM      2  C5  <0> d          -1.617  -0.547   2.469  0.00  0.00     0.228 A 
ATOM      3  O1  <0> d          -0.633  -1.230   2.653  0.00  0.00    -0.273 OA
ATOM      4  C6  <0> d          -2.517   0.007   3.554  0.00  0.00     0.122 A 
ATOM      5  C7  <0> d          -3.586   0.783   2.767  0.00  0.00     0.050 A 
ATOM      6  C8  <0> d          -3.185   0.597   1.325  0.00  0.00     0.236 A 
ATOM      7  O2  <0> d          -3.768   1.058   0.367  0.00  0.00    -0.272 OA
ATOM      8  C9  <0> d          -3.552   2.259   3.144  0.00  0.00     0.020 C 
ATOM      9  C10 <0> d          -4.605   3.019   2.333  0.00  0.00     0.001 C 
ATOM     10  C11 <0> d          -5.989   2.433   2.621  0.00  0.00     0.000 C 
ATOM     11  C12 <0> d          -6.014   0.958   2.216  0.00  0.00     0.001 C 
ATOM     12  C13 <0> d          -4.967   0.190   3.026  0.00  0.00     0.020 C 
ENDROOT
BRANCH   1  13
ATOM     13  C3  <0> d          -1.433  -0.534   0.013  0.00  0.00     0.156 C 
BRANCH  13  14
ATOM     14  C2  <0> d           0.002  -0.004   0.002  0.00  0.00     0.028 C 
ATOM     15  C1  <0> d          -0.019   1.526   0.010  0.00  0.00     0.007 C 
ENDBRANCH  13  14
BRANCH  13  16
ATOM     16  C4  <0> d          -1.416  -2.035  -0.119  0.00  0.00     0.094 C 
ATOM     17  S1  <0> d          -1.942  -2.949   1.083  0.00  0.00    -0.064 SA
ATOM     18  N1  <0> d          -0.957  -2.607  -1.250  0.00  0.00    -0.392 N 
ATOM     19  H7  <0> d          -0.638  -2.052  -1.979  0.00  0.00     0.156 HD
ATOM     20  H8  <0> d          -0.946  -3.573  -1.335  0.00  0.00     0.156 HD
ENDBRANCH  13  16
ENDBRANCH   1  13
TORSDOF 3
