REMARK  4 active torsions:
REMARK  status: ('A' for Active; 'I' for Inactive)
REMARK    1  A    between atoms: C3_3  and  N6_21 
REMARK    2  A    between atoms: C6_6  and  N1_7 
REMARK    3  A    between atoms: N4_11  and  C8_12 
REMARK    4  A    between atoms: C11_15  and  N5_18 
ROOT
ATOM      1  N1  <0> d          -1.268  -0.661  -0.262  0.00  0.00    -0.149 N 
ATOM      2  N2  <0> d          -2.388  -0.220   0.201  0.00  0.00    -0.141 NA
ATOM      3  C7  <0> d          -3.172  -1.263   0.411  0.00  0.00     0.281 A 
ATOM      4  N3  <0> d          -2.486  -2.337   0.059  0.00  0.00    -0.141 NA
ATOM      5  N4  <0> d          -1.330  -1.944  -0.354  0.00  0.00    -0.149 N 
ENDROOT
BRANCH   1   6
ATOM      6  C6  <0> d          -0.176   0.121  -0.612  0.00  0.00     0.079 A 
ATOM      7  C1  <0> d           0.610  -0.226  -1.706  0.00  0.00     0.036 A 
ATOM      8  C2  <0> d           1.695   0.555  -2.050  0.00  0.00     0.038 A 
ATOM      9  C3  <0> d           2.001   1.681  -1.308  0.00  0.00     0.103 A 
ATOM     10  C4  <0> d           1.223   2.031  -0.220  0.00  0.00     0.038 A 
ATOM     11  C5  <0> d           0.136   1.256   0.132  0.00  0.00     0.036 A 
BRANCH   9  12
ATOM     12  N6  <0> d           3.166   2.516  -1.681  0.00  0.00    -0.116 N 
ATOM     13  O3  <0> d           3.848   2.212  -2.632  0.00  0.00    -0.532 OA
ATOM     14  O4  <0> d           3.436   3.501  -1.034  0.00  0.00    -0.532 OA
ENDBRANCH   9  12
ENDBRANCH   1   6
BRANCH   5  15
ATOM     15  C8  <0> d          -0.315  -2.769  -0.817  0.00  0.00     0.079 A 
ATOM     16  C13 <0> d          -0.624  -3.906  -1.558  0.00  0.00     0.036 A 
ATOM     17  C12 <0> d           0.389  -4.721  -2.022  0.00  0.00     0.038 A 
ATOM     18  C11 <0> d           1.708  -4.417  -1.741  0.00  0.00     0.103 A 
ATOM     19  C10 <0> d           2.019  -3.291  -1.000  0.00  0.00     0.038 A 
ATOM     20  C9  <0> d           1.014  -2.466  -0.537  0.00  0.00     0.036 A 
BRANCH  18  21
ATOM     21  N5  <0> d           2.790  -5.297  -2.235  0.00  0.00    -0.116 N 
ATOM     22  O1  <0> d           3.944  -5.032  -1.991  0.00  0.00    -0.532 OA
ATOM     23  O2  <0> d           2.520  -6.282  -2.883  0.00  0.00    -0.532 OA
ENDBRANCH  18  21
ENDBRANCH   5  15
TORSDOF 4
