REMARK  8 active torsions:
REMARK  status: ('A' for Active; 'I' for Inactive)
REMARK    1  A    between atoms: C2_2  and  C3_3 
REMARK    2  A    between atoms: C3_3  and  C4_4 
REMARK    3  A    between atoms: C4_4  and  N1_5 
REMARK    4  A    between atoms: C9_15  and  C10_17 
REMARK    5  A    between atoms: C10_17  and  O3_18 
REMARK    6  A    between atoms: O3_18  and  C11_19 
REMARK    7  A    between atoms: C11_19  and  C12_21 
REMARK    8  A    between atoms: C13_22  and  N6_32 
ROOT
ATOM      1  C10 <0> d          -2.277  -2.730  -5.396  0.00  0.00     0.257 C 
ENDROOT
BRANCH   1   2
ATOM      2  C9  <0> d          -0.912  -2.773  -4.761  0.00  0.00     0.133 A 
ATOM      3  N3  <0> d           0.224  -3.141  -5.386  0.00  0.00    -0.330 N 
ATOM      4  C6  <0> d           1.244  -3.042  -4.462  0.00  0.00     0.151 A 
ATOM      5  C21 <0> d           0.351  -3.565  -6.783  0.00  0.00     0.158 C 
ATOM      6  C5  <0> d           0.657  -2.604  -3.281  0.00  0.00     0.168 A 
ATOM      7  C7  <0> d           2.635  -3.280  -4.491  0.00  0.00     0.280 A 
ATOM      8  N1  <0> d           1.458  -2.414  -2.167  0.00  0.00    -0.282 N 
ATOM      9  N4  <0> d          -0.649  -2.457  -3.518  0.00  0.00    -0.212 NA
ATOM     10  C8  <0> d           2.782  -2.647  -2.239  0.00  0.00     0.331 A 
ATOM     11  N2  <0> d           3.362  -3.077  -3.373  0.00  0.00    -0.273 N 
ATOM     12  O2  <0> d           3.470  -2.470  -1.252  0.00  0.00    -0.246 OA
ATOM     13  H1  <0> d           4.318  -3.239  -3.389  0.00  0.00     0.173 HD
ATOM     14  O1  <0> d           3.172  -3.664  -5.514  0.00  0.00    -0.265 OA
BRANCH   8  15
ATOM     15  C4  <0> d           0.865  -1.952  -0.909  0.00  0.00     0.135 C 
BRANCH  15  16
ATOM     16  C3  <0> d           0.878  -0.423  -0.870  0.00  0.00     0.020 C 
BRANCH  16  17
ATOM     17  C2  <0> d           0.258   0.059   0.443  0.00  0.00    -0.003 C 
ATOM     18  C1  <0> d           0.271   1.589   0.482  0.00  0.00     0.005 C 
ENDBRANCH  16  17
ENDBRANCH  15  16
ENDBRANCH   8  15
ENDBRANCH   1   2
BRANCH   1  19
ATOM     19  O3  <0> d          -2.921  -3.995  -5.228  0.00  0.00    -0.309 OA
BRANCH  19  20
ATOM     20  C11 <0> d          -4.161  -4.125  -5.744  0.00  0.00     0.303 C 
ATOM     21  O4  <0> d          -4.682  -3.188  -6.321  0.00  0.00    -0.259 OA
BRANCH  20  22
ATOM     22  C12 <0> d          -4.856  -5.351  -5.614  0.00  0.00     0.109 A 
ATOM     23  S1  <0> d          -4.312  -6.851  -4.822  0.00  0.00    -0.063 SA
ATOM     24  C18 <0> d          -5.746  -7.859  -5.104  0.00  0.00     0.088 A 
ATOM     25  C14 <0> d          -6.623  -7.011  -5.818  0.00  0.00     0.032 A 
ATOM     26  N5  <0> d          -6.059  -9.098  -4.793  0.00  0.00    -0.354 N 
ATOM     27  C13 <0> d          -6.115  -5.672  -6.075  0.00  0.00     0.063 A 
ATOM     28  C15 <0> d          -7.872  -7.569  -6.187  0.00  0.00    -0.045 A 
ATOM     29  C16 <0> d          -8.150  -8.869  -5.838  0.00  0.00     0.032 A 
ATOM     30  C20 <0> d          -8.881  -6.750  -6.951  0.00  0.00     0.049 C 
ATOM     31  C17 <0> d          -7.221  -9.621  -5.135  0.00  0.00     0.006 A 
ATOM     32  C19 <0> d          -7.540 -11.045  -4.759  0.00  0.00     0.068 C 
ATOM     33  H25 <0> d          -5.422  -9.639  -4.300  0.00  0.00     0.166 HD
BRANCH  27  34
ATOM     34  N6  <0> d          -6.878  -4.742  -6.766  0.00  0.00    -0.397 N 
ATOM     35  H20 <0> d          -6.733  -3.794  -6.624  0.00  0.00     0.156 HD
ATOM     36  H21 <0> d          -7.557  -5.041  -7.391  0.00  0.00     0.156 HD
ENDBRANCH  27  34
ENDBRANCH  20  22
ENDBRANCH  19  20
ENDBRANCH   1  19
TORSDOF 8
