REMARK  6 active torsions:
REMARK  status: ('A' for Active; 'I' for Inactive)
REMARK    1  A    between atoms: C5_6  and  N3_13 
REMARK       I    between atoms: N3_13  and  C10_14 
REMARK    2  A    between atoms: C10_14  and  C11_16 
REMARK       I    between atoms: C11_16  and  N4_18 
REMARK    3  A    between atoms: N4_18  and  C12_19 
REMARK    4  A    between atoms: C12_19  and  C13_20 
REMARK    5  A    between atoms: C13_20  and  C14_21 
REMARK    6  A    between atoms: C13_20  and  N5_26 
ROOT
ATOM      1  N3  <0> d          -3.794  -4.084   0.240  0.00  0.00    -0.319 N 
ATOM      2  C10 <0> d          -5.115  -3.834   0.337  0.00  0.00     0.313 C 
ATOM      3  O2  <0> d          -5.511  -2.690   0.424  0.00  0.00    -0.262 OA
ATOM      4  H11 <0> d          -3.481  -4.991   0.100  0.00  0.00     0.169 HD
ENDROOT
BRANCH   2   5
ATOM      5  C11 <0> d          -6.090  -4.964   0.338  0.00  0.00     0.309 C 
ATOM      6  O3  <0> d          -5.694  -6.108   0.251  0.00  0.00    -0.262 OA
ATOM      7  N4  <0> d          -7.411  -4.715   0.435  0.00  0.00    -0.351 N 
ATOM      8  H12 <0> d          -7.728  -3.800   0.504  0.00  0.00     0.162 HD
BRANCH   7   9
ATOM      9  C12 <0> d          -8.368  -5.824   0.436  0.00  0.00     0.163 C 
BRANCH   9  10
ATOM     10  C13 <0> d          -9.793  -5.268   0.426  0.00  0.00     0.261 C 
BRANCH  10  11
ATOM     11  C14 <0> d         -10.052  -4.526   1.713  0.00  0.00     0.085 A 
ATOM     12  O4  <0> d          -9.654  -3.274   1.991  0.00  0.00    -0.325 OA
ATOM     13  C17 <0> d         -10.063  -2.939   3.226  0.00  0.00     0.142 A 
ATOM     14  C16 <0> d         -10.722  -3.986   3.754  0.00  0.00     0.027 A 
ATOM     15  C15 <0> d         -10.715  -5.009   2.779  0.00  0.00     0.037 A 
ENDBRANCH  10  11
BRANCH  10  16
ATOM     16  N5  <0> d          -9.953  -4.349  -0.709  0.00  0.00    -0.067 N 
ATOM     17  C18 <0> d          -9.804  -5.093  -1.966  0.00  0.00     0.270 C 
ATOM     18  C19 <0> d         -11.287  -3.735  -0.658  0.00  0.00     0.270 C 
ATOM     19  H24 <0> d          -9.249  -3.628  -0.659  0.00  0.00     0.280 HD
ENDBRANCH  10  16
ENDBRANCH   9  10
ENDBRANCH   7   9
ENDBRANCH   2   5
BRANCH   1  20
ATOM     20  C5  <0> d          -2.875  -3.034   0.341  0.00  0.00     0.037 A 
ATOM     21  C4  <0> d          -1.646  -3.245   0.957  0.00  0.00     0.032 A 
ATOM     22  C3  <0> d          -0.734  -2.214   1.060  0.00  0.00     0.034 A 
ATOM     23  C2  <0> d          -1.044  -0.963   0.547  0.00  0.00     0.065 A 
ATOM     24  N1  <0> d          -0.352   0.246   0.497  0.00  0.00    -0.302 N 
ATOM     25  C7  <0> d          -2.277  -0.748  -0.073  0.00  0.00     0.067 A 
ATOM     26  C1  <0> d           0.991   0.489   1.029  0.00  0.00     0.161 C 
ATOM     27  C8  <0> d          -1.131   1.155  -0.120  0.00  0.00     0.329 A 
ATOM     28  N2  <0> d          -2.296   0.584  -0.480  0.00  0.00    -0.302 N 
ATOM     29  O1  <0> d          -0.828   2.316  -0.323  0.00  0.00    -0.246 OA
ATOM     30  C9  <0> d          -3.399   1.252  -1.176  0.00  0.00     0.161 C 
ATOM     31  C6  <0> d          -3.190  -1.786  -0.175  0.00  0.00     0.061 A 
ENDBRANCH   1  20
TORSDOF 6
