REMARK  4 active torsions:
REMARK  status: ('A' for Active; 'I' for Inactive)
REMARK    1  A    between atoms: C6_6  and  C8_8 
REMARK       I    between atoms: C8_8  and  N1_10 
REMARK    2  A    between atoms: N1_10  and  C9_11 
REMARK    3  A    between atoms: C9_11  and  C21_30 
REMARK    4  A    between atoms: N3_19  and  C15_24 
ROOT
ATOM      1  C9  <0> d          -5.758   4.431  -0.516  0.00  0.00     0.249 A 
ATOM      2  C10 <0> d          -6.472   3.174  -0.077  0.00  0.00     0.101 A 
ATOM      3  C11 <0> d          -6.557   1.883  -0.614  0.00  0.00     0.262 A 
ATOM      4  O2  <0> d          -5.973   1.606  -1.647  0.00  0.00    -0.267 OA
ATOM      5  N2  <0> d          -7.293   0.949   0.025  0.00  0.00    -0.274 N 
ATOM      6  H1  <0> d          -7.360   0.025  -0.350  0.00  0.00     0.173 HD
ATOM      7  C12 <0> d          -7.936   1.259   1.166  0.00  0.00     0.335 A 
ATOM      8  O3  <0> d          -8.594   0.405   1.728  0.00  0.00    -0.246 OA
ATOM      9  N3  <0> d          -7.865   2.491   1.697  0.00  0.00    -0.248 N 
ATOM     10  C13 <0> d          -7.126   3.481   1.079  0.00  0.00     0.134 A 
ATOM     11  N4  <0> d          -6.913   4.791   1.431  0.00  0.00    -0.309 N 
ATOM     12  C14 <0> d          -6.121   5.437   0.557  0.00  0.00     0.266 A 
ATOM     13  O4  <0> d          -5.768   6.596   0.616  0.00  0.00    -0.270 OA
ATOM     14  H10 <0> d          -7.292   5.205   2.223  0.00  0.00     0.170 HD
ENDROOT
BRANCH   1  15
ATOM     15  N1  <0> d          -4.310   4.215  -0.553  0.00  0.00    -0.327 N 
ATOM     16  C8  <0> d          -3.483   5.242  -0.834  0.00  0.00     0.253 C 
ATOM     17  O1  <0> d          -3.939   6.346  -1.057  0.00  0.00    -0.268 OA
ATOM     18  H9  <0> d          -3.946   3.334  -0.375  0.00  0.00     0.164 HD
BRANCH  16  19
ATOM     19  C6  <0> d          -2.021   5.025  -0.871  0.00  0.00     0.032 A 
ATOM     20  C5  <0> d          -1.494   3.757  -0.621  0.00  0.00     0.017 A 
ATOM     21  C4  <0> d          -0.129   3.562  -0.652  0.00  0.00     0.002 A 
ATOM     22  C3  <0> d           0.717   4.618  -0.941  0.00  0.00     0.007 A 
ATOM     23  C2  <0> d           0.201   5.877  -1.195  0.00  0.00    -0.061 A 
ATOM     24  C1  <0> d           1.130   7.021  -1.508  0.00  0.00     0.048 C 
ATOM     25  C7  <0> d          -1.162   6.086  -1.162  0.00  0.00     0.023 A 
ENDBRANCH  16  19
ENDBRANCH   1  15
BRANCH   1  26
ATOM     26  C21 <0> d          -6.267   4.893  -1.883  0.00  0.00     0.426 C 
ATOM     27  F1  <0> d          -5.992   3.911  -2.840  0.00  0.00    -0.167 F 
ATOM     28  F2  <0> d          -7.648   5.107  -1.818  0.00  0.00    -0.167 F 
ATOM     29  F3  <0> d          -5.627   6.085  -2.240  0.00  0.00    -0.167 F 
ENDBRANCH   1  26
BRANCH   9  30
ATOM     30  C15 <0> d          -8.549   2.775   2.886  0.00  0.00     0.045 A 
ATOM     31  C20 <0> d          -7.921   2.591   4.111  0.00  0.00     0.030 A 
ATOM     32  C19 <0> d          -8.597   2.872   5.282  0.00  0.00     0.002 A 
ATOM     33  C18 <0> d          -9.899   3.337   5.235  0.00  0.00     0.000 A 
ATOM     34  C17 <0> d         -10.528   3.520   4.017  0.00  0.00     0.002 A 
ATOM     35  C16 <0> d          -9.854   3.247   2.843  0.00  0.00     0.030 A 
ENDBRANCH   9  30
TORSDOF 4
