REMARK  6 active torsions:
REMARK  status: ('A' for Active; 'I' for Inactive)
REMARK    1  A    between atoms: O1_2  and  C2_3 
REMARK    2  A    between atoms: C7_8  and  C8_9 
REMARK    3  A    between atoms: C8_9  and  N1_10 
REMARK    4  A    between atoms: N1_10  and  C9_11 
REMARK    5  A    between atoms: C12_17  and  S2_18 
REMARK    6  A    between atoms: S2_18  and  C13_21 
ROOT
ATOM      1  C9  <0> d          -2.032  -3.723   0.818  0.00  0.00     0.254 C 
ATOM      2  C10 <0> d          -2.279  -2.825   2.051  0.00  0.00     0.177 C 
ATOM      3  S1  <0> d          -4.063  -2.404   1.838  0.00  0.00     0.147 S 
ATOM      4  O2  <0> d          -4.186  -1.330   0.915  0.00  0.00    -0.228 OA
ATOM      5  O3  <0> d          -4.680  -2.310   3.115  0.00  0.00    -0.228 OA
ATOM      6  C11 <0> d          -4.582  -3.975   1.021  0.00  0.00     0.162 C 
ATOM      7  C12 <0> d          -3.298  -4.351   0.254  0.00  0.00     0.162 C 
ENDROOT
BRANCH   1   8
ATOM      8  N1  <0> d          -1.402  -2.913  -0.233  0.00  0.00     0.094 N 
ATOM      9  H12 <0> d          -1.815  -1.993  -0.277  0.00  0.00     0.316 HD
BRANCH   8  10
ATOM     10  C8  <0> d           0.051  -2.828  -0.033  0.00  0.00     0.311 C 
BRANCH  10  11
ATOM     11  C7  <0> d           0.661  -1.991  -1.128  0.00  0.00     0.003 A 
ATOM     12  C2  <0> d           0.606  -0.607  -1.056  0.00  0.00     0.076 A 
ATOM     13  C3  <0> d           1.173   0.161  -2.063  0.00  0.00     0.037 A 
ATOM     14  C4  <0> d           1.786  -0.455  -3.136  0.00  0.00     0.003 A 
ATOM     15  C5  <0> d           1.836  -1.835  -3.208  0.00  0.00     0.001 A 
ATOM     16  C6  <0> d           1.271  -2.602  -2.207  0.00  0.00     0.012 A 
BRANCH  12  17
ATOM     17  O1  <0> d           0.002  -0.004   0.002  0.00  0.00    -0.355 OA
ATOM     18  C1  <0> d          -0.017   1.425   0.010  0.00  0.00     0.210 C 
ENDBRANCH  12  17
ENDBRANCH  10  11
ENDBRANCH   8  10
ENDBRANCH   1   8
BRANCH   7  19
ATOM     19  S2  <0> d          -3.114  -6.155   0.289  0.00  0.00     0.189 S 
ATOM     20  O4  <0> d          -2.113  -6.563  -0.633  0.00  0.00    -0.222 OA
ATOM     21  O5  <0> d          -3.095  -6.619   1.632  0.00  0.00    -0.222 OA
BRANCH  19  22
ATOM     22  C13 <0> d          -4.622  -6.776  -0.380  0.00  0.00     0.100 A 
ATOM     23  S3  <0> d          -6.134  -7.205   0.466  0.00  0.00    -0.090 SA
ATOM     24  C16 <0> d          -7.080  -7.723  -0.957  0.00  0.00     0.051 A 
ATOM     25  C15 <0> d          -6.191  -7.544  -1.965  0.00  0.00     0.009 A 
ATOM     26  C14 <0> d          -4.931  -7.059  -1.669  0.00  0.00     0.031 A 
ENDBRANCH  19  22
ENDBRANCH   7  19
TORSDOF 6
