REMARK  3 active torsions:
REMARK  status: ('A' for Active; 'I' for Inactive)
REMARK    1  A    between atoms: C5_6  and  C6_7 
REMARK       I    between atoms: C6_7  and  N2_9 
REMARK       I    between atoms: N2_9  and  C7_10 
REMARK    2  A    between atoms: C7_10  and  C8_12 
REMARK    3  A    between atoms: C8_12  and  N3_13 
ROOT
ATOM      1  C6  <0> d          -1.549   3.932   0.015  0.00  0.00     0.275 C 
ATOM      2  O1  <0> d          -1.224   5.101   0.107  0.00  0.00    -0.266 OA
ATOM      3  N2  <0> d          -2.853   3.600  -0.073  0.00  0.00    -0.291 N 
ATOM      4  C7  <0> d          -3.789   4.566  -0.164  0.00  0.00     0.242 C 
ATOM      5  O2  <0> d          -3.459   5.732  -0.167  0.00  0.00    -0.271 OA
ATOM      6  H7  <0> d          -3.152   2.542  -0.071  0.00  0.00     0.172 HD
ENDROOT
BRANCH   4   7
ATOM      7  C8  <0> d          -5.246   4.194  -0.263  0.00  0.00     0.236 C 
BRANCH   7   8
ATOM      8  N3  <0> d          -6.055   5.413  -0.350  0.00  0.00    -0.299 N 
ATOM      9  C14 <0> d          -6.524   6.005   0.775  0.00  0.00     0.268 A 
ATOM     10  C13 <0> d          -7.285   7.166   0.638  0.00  0.00     0.101 A 
ATOM     11  O3  <0> d          -6.282   5.540   1.876  0.00  0.00    -0.266 OA
ATOM     12  C10 <0> d          -7.574   7.708  -0.627  0.00  0.00     0.081 A 
ATOM     13  S1  <0> d          -8.093   8.279   1.757  0.00  0.00    -0.094 SA
ATOM     14  N4  <0> d          -7.058   7.029  -1.703  0.00  0.00    -0.242 NA
ATOM     15  C11 <0> d          -8.352   8.873  -0.620  0.00  0.00     0.040 A 
ATOM     16  C9  <0> d          -6.348   5.956  -1.561  0.00  0.00     0.213 A 
ATOM     17  C12 <0> d          -8.774   9.403   0.549  0.00  0.00     0.053 A 
ENDBRANCH   7   8
ENDBRANCH   4   7
BRANCH   1  18
ATOM     18  C5  <0> d          -0.524   2.885  -0.000  0.00  0.00     0.102 A 
ATOM     19  N1  <0> d           0.839   3.080  -0.010  0.00  0.00    -0.357 N 
ATOM     20  C1  <0> d           1.515   4.380  -0.006  0.00  0.00     0.156 C 
ATOM     21  C2  <0> d           1.449   1.877  -0.026  0.00  0.00     0.091 A 
ATOM     22  C3  <0> d           0.505   0.904  -0.019  0.00  0.00     0.020 A 
ATOM     23  C4  <0> d          -0.748   1.524  -0.002  0.00  0.00     0.037 A 
ENDBRANCH   1  18
TORSDOF 3
