REMARK  4 active torsions:
REMARK  status: ('A' for Active; 'I' for Inactive)
REMARK    1  A    between atoms: C6_6  and  N1_8 
REMARK    2  A    between atoms: C8_9  and  O3_30 
REMARK    3  A    between atoms: C9_11  and  O2_29 
REMARK    4  A    between atoms: C10_12  and  C12_15 
ROOT
ATOM      1  N1  <0> d           0.240  -2.857   2.494  0.00  0.00    -0.270 N 
ATOM      2  C8  <0> d           1.458  -3.292   3.162  0.00  0.00     0.361 C 
ATOM      3  N2  <0> d           1.217  -4.397   4.075  0.00  0.00    -0.218 NA
ATOM      4  C9  <0> d           0.074  -4.692   4.559  0.00  0.00     0.153 C 
ATOM      5  C10 <0> d          -1.172  -3.921   4.234  0.00  0.00     0.193 C 
ATOM      6  C11 <0> d          -0.981  -3.122   2.976  0.00  0.00     0.242 C 
ATOM      7  O1  <0> d          -1.955  -2.712   2.381  0.00  0.00    -0.272 OA
ENDROOT
BRANCH   5   8
ATOM      8  C12 <0> d          -1.492  -2.966   5.386  0.00  0.00     0.291 C 
ATOM      9  N4  <0> d          -0.435  -1.948   5.493  0.00  0.00     0.095 N 
ATOM     10  C22 <0> d          -0.805  -0.890   6.445  0.00  0.00     0.275 C 
ATOM     11  H19 <0> d           0.448  -2.369   5.740  0.00  0.00     0.316 HD
ATOM     12  C21 <0> d          -1.923  -0.026   5.847  0.00  0.00     0.071 C 
ATOM     13  C14 <0> d          -2.996  -0.949   5.326  0.00  0.00    -0.019 A 
ATOM     14  C13 <0> d          -2.807  -2.272   5.119  0.00  0.00     0.051 A 
ATOM     15  C15 <0> d          -4.363  -0.651   4.962  0.00  0.00    -0.001 A 
ATOM     16  N3  <0> d          -3.961  -2.837   4.649  0.00  0.00    -0.357 N 
ATOM     17  H4  <0> d          -4.074  -3.774   4.427  0.00  0.00     0.166 HD
ATOM     18  C20 <0> d          -4.931  -1.881   4.539  0.00  0.00     0.043 A 
ATOM     19  C19 <0> d          -6.257  -1.942   4.115  0.00  0.00     0.030 A 
ATOM     20  C18 <0> d          -6.974  -0.758   4.130  0.00  0.00     0.002 A 
ATOM     21  C17 <0> d          -6.416   0.440   4.543  0.00  0.00     0.001 A 
ATOM     22  C16 <0> d          -5.112   0.530   4.966  0.00  0.00     0.014 A 
ENDBRANCH   5   8
BRANCH   4  23
ATOM     23  O2  <0> d          -0.019  -5.742   5.401  0.00  0.00    -0.347 OA
ATOM     24  H20 <0> d           0.822  -6.191   5.564  0.00  0.00     0.219 HD
ENDBRANCH   4  23
BRANCH   1  25
ATOM     25  C6  <0> d           0.349  -2.128   1.305  0.00  0.00     0.048 A 
ATOM     26  C5  <0> d           0.377  -2.788   0.084  0.00  0.00    -0.035 A 
ATOM     27  C4  <0> d           0.485  -2.066  -1.088  0.00  0.00     0.009 A 
ATOM     28  C23 <0> d           0.290  -4.292   0.038  0.00  0.00     0.050 C 
ATOM     29  C3  <0> d           0.565  -0.686  -1.046  0.00  0.00     0.007 A 
ATOM     30  C2  <0> d           0.537  -0.025   0.168  0.00  0.00    -0.060 A 
ATOM     31  C1  <0> d           0.625   1.479   0.209  0.00  0.00     0.048 C 
ATOM     32  C7  <0> d           0.435  -0.742   1.344  0.00  0.00     0.037 A 
ENDBRANCH   1  25
BRANCH   2  33
ATOM     33  O3  <0> d           2.002  -2.195   3.898  0.00  0.00    -0.358 OA
ATOM     34  H21 <0> d           2.817  -2.405   4.372  0.00  0.00     0.214 HD
ENDBRANCH   2  33
TORSDOF 4
