REMARK  6 active torsions:
REMARK  status: ('A' for Active; 'I' for Inactive)
REMARK    1  A    between atoms: C2_2  and  C3_3 
REMARK    2  A    between atoms: C2_2  and  N3_23 
REMARK       I    between atoms: C3_3  and  N1_5 
REMARK    3  A    between atoms: N1_5  and  C4_6 
REMARK    4  A    between atoms: C5_7  and  C11_14 
REMARK       I    between atoms: C11_14  and  N2_16 
REMARK    5  A    between atoms: N2_16  and  C12_17 
REMARK    6  A    between atoms: C12_17  and  C13_18 
ROOT
ATOM      1  C4  <0> d           0.880  -0.611  -3.597  0.00  0.00     0.093 A 
ATOM      2  C5  <0> d           0.541  -0.374  -4.916  0.00  0.00     0.073 A 
ATOM      3  C6  <0> d           1.397  -0.963  -5.944  0.00  0.00    -0.026 A 
ATOM      4  C7  <0> d           2.427  -1.679  -5.456  0.00  0.00    -0.008 A 
ATOM      5  S1  <0> d           2.260  -1.559  -3.693  0.00  0.00    -0.075 SA
ATOM      6  C8  <0> d           3.271  -2.266  -6.554  0.00  0.00     0.047 C 
ATOM      7  C9  <0> d           2.386  -2.178  -7.817  0.00  0.00     0.010 C 
ATOM      8  C10 <0> d           1.458  -0.997  -7.470  0.00  0.00     0.041 C 
ENDROOT
BRANCH   1   9
ATOM      9  N1  <0> d           0.231  -0.164  -2.456  0.00  0.00    -0.319 N 
ATOM     10  C3  <0> d           0.707  -0.490  -1.238  0.00  0.00     0.245 C 
ATOM     11  O1  <0> d           1.704  -1.174  -1.140  0.00  0.00    -0.271 OA
ATOM     12  H6  <0> d          -0.566   0.383  -2.534  0.00  0.00     0.169 HD
BRANCH  10  13
ATOM     13  C2  <0> d           0.002  -0.004   0.002  0.00  0.00     0.184 C 
ATOM     14  C1  <0> d          -0.019   1.526   0.010  0.00  0.00     0.043 C 
BRANCH  13  15
ATOM     15  N3  <0> d           0.711  -0.489   1.189  0.00  0.00    -0.266 N 
ATOM     16  C24 <0> d           0.165  -1.279   2.132  0.00  0.00     0.262 A 
ATOM     17  C23 <0> d           1.186  -1.556   3.163  0.00  0.00     0.048 A 
ATOM     18  O5  <0> d          -0.976  -1.696   2.134  0.00  0.00    -0.267 OA
ATOM     19  C18 <0> d           2.346  -0.868   2.753  0.00  0.00     0.048 A 
ATOM     20  C22 <0> d           1.201  -2.290   4.338  0.00  0.00     0.018 A 
ATOM     21  C17 <0> d           1.991  -0.200   1.482  0.00  0.00     0.262 A 
ATOM     22  C19 <0> d           3.494  -0.929   3.526  0.00  0.00     0.018 A 
ATOM     23  O4  <0> d           2.732   0.494   0.816  0.00  0.00    -0.267 OA
ATOM     24  C20 <0> d           3.494  -1.667   4.699  0.00  0.00     0.001 A 
ATOM     25  C21 <0> d           2.357  -2.342   5.102  0.00  0.00     0.001 A 
ENDBRANCH  13  15
ENDBRANCH  10  13
ENDBRANCH   1   9
BRANCH   2  26
ATOM     26  C11 <0> d          -0.628   0.437  -5.269  0.00  0.00     0.255 C 
ATOM     27  O2  <0> d          -0.514   1.640  -5.414  0.00  0.00    -0.268 OA
ATOM     28  N2  <0> d          -1.830  -0.151  -5.434  0.00  0.00    -0.354 N 
ATOM     29  H13 <0> d          -1.921  -1.109  -5.318  0.00  0.00     0.162 HD
BRANCH  28  30
ATOM     30  C12 <0> d          -2.999   0.659  -5.787  0.00  0.00     0.155 C 
BRANCH  30  31
ATOM     31  C13 <0> d          -4.227  -0.245  -5.913  0.00  0.00     0.139 C 
ATOM     32  O3  <0> d          -4.562  -0.791  -4.631  0.00  0.00    -0.384 OA
ATOM     33  C16 <0> d          -5.873  -0.348  -4.240  0.00  0.00     0.168 C 
ATOM     34  C15 <0> d          -6.602  -0.018  -5.566  0.00  0.00     0.029 C 
ATOM     35  C14 <0> d          -5.437   0.579  -6.402  0.00  0.00     0.035 C 
ENDBRANCH  30  31
ENDBRANCH  28  30
ENDBRANCH   2  26
TORSDOF 6
