REMARK  7 active torsions:
REMARK  status: ('A' for Active; 'I' for Inactive)
REMARK    1  A    between atoms: N1_2  and  C3_4 
REMARK    2  A    between atoms: C4_5  and  C8_10 
REMARK    3  A    between atoms: C8_10  and  N3_11 
REMARK       I    between atoms: N3_11  and  C9_12 
REMARK    4  A    between atoms: C9_12  and  C10_14 
REMARK       I    between atoms: C10_14  and  N4_16 
REMARK    5  A    between atoms: N4_16  and  C11_17 
REMARK    6  A    between atoms: C15_21  and  C17_23 
REMARK    7  A    between atoms: C17_23  and  N5_24 
ROOT
ATOM      1  C10 <0> d          -3.347  -3.576   2.105  0.00  0.00     0.313 C 
ATOM      2  O2  <0> d          -4.207  -3.038   1.439  0.00  0.00    -0.262 OA
ATOM      3  N4  <0> d          -3.680  -4.217   3.244  0.00  0.00    -0.319 N 
ATOM      4  H13 <0> d          -3.005  -4.706   3.740  0.00  0.00     0.169 HD
ENDROOT
BRANCH   1   5
ATOM      5  C9  <0> d          -1.921  -3.529   1.664  0.00  0.00     0.309 C 
ATOM      6  N3  <0> d          -1.589  -2.889   0.526  0.00  0.00    -0.349 N 
ATOM      7  H12 <0> d          -2.276  -2.458  -0.007  0.00  0.00     0.163 HD
ATOM      8  O1  <0> d          -1.062  -4.068   2.330  0.00  0.00    -0.262 OA
BRANCH   6   9
ATOM      9  C8  <0> d          -0.190  -2.842   0.093  0.00  0.00     0.165 C 
BRANCH   9  10
ATOM     10  C4  <0> d          -0.089  -2.072  -1.199  0.00  0.00     0.004 A 
ATOM     11  C3  <0> d          -0.093  -0.681  -1.193  0.00  0.00     0.110 A 
ATOM     12  N2  <0> d          -0.009  -0.002  -2.326  0.00  0.00    -0.352 N 
ATOM     13  C7  <0> d           0.090  -0.612  -3.492  0.00  0.00     0.089 A 
ATOM     14  H23 <0> d          -0.017   0.968  -2.298  0.00  0.00     0.166 HD
ATOM     15  C6  <0> d           0.099  -1.989  -3.572  0.00  0.00     0.018 A 
ATOM     16  C5  <0> d           0.008  -2.739  -2.406  0.00  0.00     0.014 A 
BRANCH  11  17
ATOM     17  N1  <0> d          -0.190   0.002   0.014  0.00  0.00    -0.376 N 
ATOM     18  C1  <0> d          -1.506   0.274   0.598  0.00  0.00     0.150 C 
ATOM     19  C2  <0> d           1.023   0.451   0.702  0.00  0.00     0.150 C 
ENDBRANCH  11  17
ENDBRANCH   9  10
ENDBRANCH   6   9
ENDBRANCH   1   5
BRANCH   3  20
ATOM     20  C11 <0> d          -4.996  -4.177   3.709  0.00  0.00     0.035 A 
ATOM     21  C16 <0> d          -6.053  -4.176   2.808  0.00  0.00     0.038 A 
ATOM     22  C15 <0> d          -7.354  -4.143   3.271  0.00  0.00    -0.036 A 
ATOM     23  C14 <0> d          -7.604  -4.098   4.631  0.00  0.00     0.009 A 
ATOM     24  C13 <0> d          -6.554  -4.094   5.530  0.00  0.00     0.003 A 
ATOM     25  C12 <0> d          -5.252  -4.133   5.074  0.00  0.00     0.029 A 
BRANCH  22  26
ATOM     26  C17 <0> d          -8.502  -4.148   2.295  0.00  0.00     0.189 C 
BRANCH  26  27
ATOM     27  N5  <0> d          -8.846  -2.770   1.938  0.00  0.00    -0.277 N 
ATOM     28  N6  <0> d          -9.171  -1.743   2.834  0.00  0.00    -0.185 NA
ATOM     29  C20 <0> d          -9.414  -0.659   2.143  0.00  0.00     0.140 A 
ATOM     30  C19 <0> d          -9.262  -0.962   0.786  0.00  0.00     0.040 A 
ATOM     31  C18 <0> d          -8.913  -2.266   0.688  0.00  0.00     0.114 A 
ENDBRANCH  26  27
ENDBRANCH  22  26
ENDBRANCH   3  20
TORSDOF 7
