REMARK  4 active torsions:
REMARK  status: ('A' for Active; 'I' for Inactive)
REMARK    1  A    between atoms: C4_4  and  O4_30 
REMARK    2  A    between atoms: C5_5  and  C7_7 
REMARK    3  A    between atoms: P1_14  and  C17_23 
REMARK    4  A    between atoms: C22_28  and  O3_29 
ROOT
ATOM      1  C7  <0> d           1.245  -2.165  -0.023  0.00  0.00    -0.005 C 
ATOM      2  C8  <0> d           0.950  -2.844  -1.145  0.00  0.00    -0.007 C 
ATOM      3  C9  <0> d           0.973  -4.348  -1.124  0.00  0.00     0.020 C 
ATOM      4  C10 <0> d           0.102  -4.912  -2.239  0.00  0.00     0.047 C 
ATOM      5  C11 <0> d          -1.372  -4.552  -2.013  0.00  0.00     0.238 C 
ATOM      6  C12 <0> d          -2.171  -5.184  -3.161  0.00  0.00     0.213 C 
ATOM      7  O1  <0> d          -3.561  -4.837  -3.028  0.00  0.00    -0.312 OA
ATOM      8  P1  <0> d          -4.265  -5.085  -1.582  0.00  0.00     0.346 P 
ATOM      9  O2  <0> d          -4.639  -6.508  -1.430  0.00  0.00    -0.260 OA
ATOM     10  N1  <0> d          -3.121  -4.671  -0.467  0.00  0.00    -0.172 N 
ATOM     11  N2  <0> d          -1.819  -5.055  -0.712  0.00  0.00     0.018 N 
ATOM     12  C13 <0> d          -1.014  -4.465   0.369  0.00  0.00     0.272 C 
ATOM     13  C14 <0> d           0.441  -4.849   0.222  0.00  0.00     0.045 C 
ATOM     14  C15 <0> d           1.216  -4.182   1.332  0.00  0.00     0.005 C 
ATOM     15  C16 <0> d           1.601  -2.915   1.202  0.00  0.00     0.041 C 
ATOM     16 Cl1  <0> d           2.509  -2.143   2.464  0.00  0.00    -0.084 Cl
ATOM     17  H13 <0> d          -3.357  -4.176   0.333  0.00  0.00     0.197 HD
ATOM     18  H23 <0> d          -1.750  -6.061  -0.694  0.00  0.00     0.309 HD
ENDROOT
BRANCH   8  19
ATOM     19  C17 <0> d          -5.730  -4.029  -1.407  0.00  0.00     0.084 A 
ATOM     20  C22 <0> d          -6.971  -4.490  -1.820  0.00  0.00     0.083 A 
ATOM     21  C21 <0> d          -8.091  -3.682  -1.680  0.00  0.00     0.037 A 
ATOM     22  C20 <0> d          -7.965  -2.417  -1.140  0.00  0.00     0.003 A 
ATOM     23  C19 <0> d          -6.725  -1.958  -0.734  0.00  0.00     0.001 A 
ATOM     24  C18 <0> d          -5.609  -2.763  -0.868  0.00  0.00     0.022 A 
BRANCH  20  25
ATOM     25  O3  <0> d          -7.092  -5.733  -2.356  0.00  0.00    -0.360 OA
ATOM     26  H21 <0> d          -7.271  -6.426  -1.706  0.00  0.00     0.217 HD
ENDBRANCH  20  25
ENDBRANCH   8  19
BRANCH   1  27
ATOM     27  C5  <0> d           1.219  -0.683  -0.014  0.00  0.00     0.009 A 
ATOM     28  C4  <0> d           2.415   0.041  -0.022  0.00  0.00     0.076 A 
ATOM     29  C3  <0> d           2.382   1.426  -0.013  0.00  0.00     0.037 A 
ATOM     30  C2  <0> d           1.169   2.089   0.002  0.00  0.00     0.003 A 
ATOM     31  C1  <0> d          -0.017   1.376   0.010  0.00  0.00     0.001 A 
ATOM     32  C6  <0> d           0.002  -0.004   0.002  0.00  0.00     0.015 A 
BRANCH  28  33
ATOM     33  O4  <0> d           3.607  -0.612  -0.038  0.00  0.00    -0.360 OA
ATOM     34  H22 <0> d           3.961  -0.806   0.841  0.00  0.00     0.217 HD
ENDBRANCH  28  33
ENDBRANCH   1  27
TORSDOF 4
