REMARK  2 active torsions:
REMARK  status: ('A' for Active; 'I' for Inactive)
REMARK    1  A    between atoms: C5_5  and  O4_25 
REMARK    2  A    between atoms: C19_21  and  O3_23 
ROOT
ATOM      1  C1  <0> d          -0.309   1.139   0.132  0.00  0.00     0.016 C 
ATOM      2  C2  <0> d          -0.193  -0.385   0.019  0.00  0.00    -0.029 C 
ATOM      3  C3  <0> d          -1.608  -0.976  -0.049  0.00  0.00     0.013 C 
ATOM      4  C4  <0> d          -2.382  -0.682   1.232  0.00  0.00     0.032 C 
ATOM      5  C5  <0> d          -1.640  -1.249   2.442  0.00  0.00     0.118 C 
ATOM      6  C6  <0> d          -0.236  -0.650   2.519  0.00  0.00     0.037 C 
ATOM      7  C7  <0> d           0.534  -0.951   1.234  0.00  0.00    -0.003 C 
ATOM      8  C8  <0> d           0.682  -2.470   1.087  0.00  0.00     0.006 C 
ATOM      9  C9  <0> d           1.530  -2.748  -0.166  0.00  0.00     0.006 C 
ATOM     10  C10 <0> d           0.779  -2.241  -1.386  0.00  0.00     0.002 C 
ATOM     11  C11 <0> d           0.540  -0.732  -1.269  0.00  0.00     0.068 C 
ATOM     12  C12 <0> d           1.888  -0.070  -1.399  0.00  0.00     0.133 C 
ATOM     13  O1  <0> d           2.402   0.582  -0.531  0.00  0.00    -0.298 OA
ATOM     14  C13 <0> d           2.607  -0.294  -2.722  0.00  0.00     0.091 C 
ATOM     15  C14 <0> d           2.776  -1.799  -2.935  0.00  0.00     0.004 C 
ATOM     16  C15 <0> d           1.472  -2.547  -2.715  0.00  0.00     0.003 C 
ATOM     17  C16 <0> d           0.437  -2.204  -3.800  0.00  0.00     0.013 C 
ATOM     18  C17 <0> d           0.954  -2.566  -5.191  0.00  0.00     0.082 C 
ATOM     19  C18 <0> d           2.259  -1.817  -5.377  0.00  0.00     0.161 C 
ATOM     20  O2  <0> d           2.424  -1.062  -6.300  0.00  0.00    -0.295 OA
ATOM     21  C19 <0> d           3.329  -2.069  -4.346  0.00  0.00     0.122 C 
ATOM     22  C20 <0> d           4.543  -1.183  -4.622  0.00  0.00     0.055 C 
ATOM     23  C21 <0> d           3.869  -2.316  -1.979  0.00  0.00     0.019 C 
ENDROOT
BRANCH  21  24
ATOM     24  O3  <0> d           3.734  -3.444  -4.419  0.00  0.00    -0.382 OA
ATOM     25  H28 <0> d           4.097  -3.702  -5.277  0.00  0.00     0.211 HD
ENDBRANCH  21  24
BRANCH   5  26
ATOM     26  O4  <0> d          -2.360  -0.922   3.635  0.00  0.00    -0.396 OA
ATOM     27  H32 <0> d          -3.260  -1.274   3.660  0.00  0.00     0.210 HD
ENDBRANCH   5  26
TORSDOF 2
