REMARK  4 active torsions:
REMARK  status: ('A' for Active; 'I' for Inactive)
REMARK    1  A    between atoms: C6_6  and  C12_14 
REMARK    2  A    between atoms: C12_14  and  C13_15 
REMARK    3  A    between atoms: C13_15  and  N2_16 
REMARK       I    between atoms: N2_16  and  C14_17 
REMARK    4  A    between atoms: C14_17  and  C15_19 
ROOT
ATOM      1  C13 <0> d          -1.068  -6.397  -3.123  0.00  0.00     0.123 C 
ENDROOT
BRANCH   1   2
ATOM      2  C12 <0> d          -1.179  -4.878  -2.983  0.00  0.00     0.037 C 
BRANCH   2   3
ATOM      3  C6  <0> d          -0.089  -4.371  -2.037  0.00  0.00     0.103 A 
ATOM      4  C5  <0> d           1.253  -4.622  -2.697  0.00  0.00     0.001 A 
ATOM      5  C4  <0> d           2.058  -3.542  -2.906  0.00  0.00    -0.012 A 
ATOM      6  C3  <0> d           3.370  -3.694  -3.537  0.00  0.00     0.020 A 
ATOM      7  C8  <0> d           1.623  -2.194  -2.499  0.00  0.00     0.045 A 
ATOM      8  C2  <0> d           4.138  -2.590  -3.725  0.00  0.00    -0.055 A 
ATOM      9  C1  <0> d           5.491  -2.734  -4.373  0.00  0.00     0.049 C 
ATOM     10  C10 <0> d           3.703  -1.325  -3.325  0.00  0.00    -0.054 A 
ATOM     11  C9  <0> d           2.495  -1.117  -2.740  0.00  0.00     0.037 A 
ATOM     12  C11 <0> d           4.608  -0.143  -3.558  0.00  0.00     0.049 C 
ATOM     13  N1  <0> d           0.442  -1.979  -1.919  0.00  0.00    -0.326 N 
ATOM     14  C7  <0> d          -0.424  -2.945  -1.664  0.00  0.00     0.230 A 
ATOM     15  H23 <0> d           0.207  -1.071  -1.673  0.00  0.00     0.169 HD
ATOM     16  O1  <0> d          -1.487  -2.687  -1.132  0.00  0.00    -0.272 OA
ENDBRANCH   2   3
ENDBRANCH   1   2
BRANCH   1  17
ATOM     17  N2  <0> d          -2.186  -6.897  -3.927  0.00  0.00    -0.360 N 
ATOM     18  C14 <0> d          -2.295  -8.216  -4.184  0.00  0.00     0.231 C 
ATOM     19  O2  <0> d          -1.467  -8.988  -3.749  0.00  0.00    -0.273 OA
ATOM     20  H16 <0> d          -2.847  -6.279  -4.275  0.00  0.00     0.162 HD
BRANCH  18  21
ATOM     21  C15 <0> d          -3.445  -8.729  -5.011  0.00  0.00     0.182 C 
ATOM     22  C23 <0> d          -3.399  -8.113  -6.395  0.00  0.00     0.277 C 
ATOM     23  O3  <0> d          -2.307  -8.378  -7.142  0.00  0.00    -0.278 OA
ATOM     24  O4  <0> d          -4.297  -7.419  -6.809  0.00  0.00    -0.264 OA
ATOM     25  C22 <0> d          -1.809  -9.645  -7.103  0.00  0.00     0.085 A 
ATOM     26  C17 <0> d          -2.252 -10.574  -6.178  0.00  0.00    -0.023 A 
ATOM     27  C21 <0> d          -0.820  -9.994  -8.016  0.00  0.00     0.038 A 
ATOM     28  C16 <0> d          -3.329 -10.248  -5.175  0.00  0.00     0.065 C 
ATOM     29  C18 <0> d          -1.698 -11.845  -6.165  0.00  0.00     0.010 A 
ATOM     30  C19 <0> d          -0.714 -12.188  -7.070  0.00  0.00     0.001 A 
ATOM     31  C20 <0> d          -0.275 -11.261  -7.998  0.00  0.00     0.003 A 
ENDBRANCH  18  21
ENDBRANCH   1  17
TORSDOF 4
