REMARK  6 active torsions:
REMARK  status: ('A' for Active; 'I' for Inactive)
REMARK    1  A    between atoms: C5_8  and  C6_10 
REMARK    2  A    between atoms: C6_10  and  C7_11 
REMARK    3  A    between atoms: C6_10  and  N4_19 
REMARK    4  A    between atoms: N5_22  and  C17_25 
REMARK    5  A    between atoms: C17_25  and  C18_26 
REMARK    6  A    between atoms: C18_26  and  O1_27 
ROOT
ATOM      1  C6  <0> d          -1.091   3.339  -2.968  0.00  0.00     0.265 C 
ENDROOT
BRANCH   1   2
ATOM      2  C5  <0> d          -2.208   2.327  -2.938  0.00  0.00     0.077 A 
ATOM      3  C4  <0> d          -2.728   1.613  -3.942  0.00  0.00     0.219 A 
ATOM      4  N2  <0> d          -3.753   0.726  -3.713  0.00  0.00    -0.181 N 
ATOM      5  O2  <0> d          -2.236   1.763  -5.202  0.00  0.00    -0.169 OA
ATOM      6  C3  <0> d          -4.212   0.620  -2.436  0.00  0.00     0.198 A 
ATOM      7  N3  <0> d          -4.556  -0.186  -4.447  0.00  0.00    -0.148 NA
ATOM      8  N1  <0> d          -5.181  -0.253  -2.390  0.00  0.00    -0.206 NA
ATOM      9  S1  <0> d          -3.188   1.771  -1.552  0.00  0.00    -0.048 SA
ATOM     10  C2  <0> d          -5.391  -0.743  -3.611  0.00  0.00     0.145 A 
ATOM     11  C1  <0> d          -6.427  -1.776  -3.970  0.00  0.00     0.095 C 
ENDBRANCH   1   2
BRANCH   1  12
ATOM     12  C7  <0> d          -1.661   4.721  -2.779  0.00  0.00    -0.021 A 
ATOM     13  C12 <0> d          -1.777   5.575  -3.859  0.00  0.00     0.035 A 
ATOM     14  C11 <0> d          -2.300   6.844  -3.686  0.00  0.00     0.056 A 
ATOM     15  C10 <0> d          -2.708   7.257  -2.429  0.00  0.00     0.055 A 
ATOM     16 Cl1  <0> d          -2.446   7.916  -5.043  0.00  0.00    -0.083 Cl
ATOM     17  C9  <0> d          -2.592   6.401  -1.348  0.00  0.00     0.026 A 
ATOM     18 Cl2  <0> d          -3.366   8.849  -2.209  0.00  0.00    -0.083 Cl
ATOM     19  C8  <0> d          -2.073   5.132  -1.525  0.00  0.00     0.011 A 
ENDBRANCH   1  12
BRANCH   1  20
ATOM     20  N4  <0> d          -0.138   3.050  -1.889  0.00  0.00    -0.055 N 
ATOM     21  C16 <0> d           0.328   1.658  -1.957  0.00  0.00     0.266 C 
ATOM     22  C15 <0> d           1.255   1.375  -0.772  0.00  0.00     0.300 C 
ATOM     23  N5  <0> d           2.389   2.309  -0.805  0.00  0.00     0.093 N 
ATOM     24  C14 <0> d           1.922   3.701  -0.738  0.00  0.00     0.300 C 
ATOM     25  C13 <0> d           0.995   3.984  -1.923  0.00  0.00     0.266 C 
ATOM     26  H21 <0> d          -0.662   3.186  -0.931  0.00  0.00     0.281 HD
BRANCH  23  27
ATOM     27  C17 <0> d           3.341   2.020   0.275  0.00  0.00     0.298 C 
BRANCH  27  28
ATOM     28  C18 <0> d           3.731   0.542   0.229  0.00  0.00     0.194 C 
BRANCH  28  29
ATOM     29  O1  <0> d           4.408   0.265  -0.999  0.00  0.00    -0.399 OA
ATOM     30  H20 <0> d           4.767  -0.752  -1.212  0.00  0.00     0.209 HD
ENDBRANCH  28  29
ENDBRANCH  27  28
ENDBRANCH  23  27
ENDBRANCH   1  20
TORSDOF 6
