REMARK  2 active torsions:
REMARK  status: ('A' for Active; 'I' for Inactive)
REMARK    1  A    between atoms: C3_5  and  C4_6 
REMARK    2  A    between atoms: C5_9  and  C7_14 
ROOT
ATOM      1  C4  <0> d          -0.659  -0.561   1.265  0.00  0.00     0.176 C 
ATOM      2  N3  <0> d          -0.643  -2.048   1.280  0.00  0.00    -0.213 NA
ATOM      3  N4  <0> d          -1.753  -2.630   1.817  0.00  0.00    -0.228 N 
ATOM      4  C5  <0> d          -2.094  -3.854   2.365  0.00  0.00     0.253 A 
ATOM      5  N5  <0> d          -3.358  -3.820   2.667  0.00  0.00    -0.123 NA
ATOM      6  N6  <0> d          -3.852  -2.669   2.373  0.00  0.00    -0.121 NA
ATOM      7  C6  <0> d          -2.921  -1.914   1.877  0.00  0.00     0.208 A 
ATOM      8  S1  <0> d          -2.486  -0.307   1.243  0.00  0.00    -0.065 SA
ATOM      9  H5  <0> d          -0.451  -2.417   0.360  0.00  0.00     0.148 HD
ENDROOT
BRANCH   1  10
ATOM     10  C3  <0> d           0.002  -0.004   0.002  0.00  0.00     0.184 A 
ATOM     11  C1  <0> d          -0.018   1.514   0.010  0.00  0.00     0.025 A 
ATOM     12  C2  <0> d           1.272   1.853  -0.000  0.00  0.00     0.138 A 
ATOM     13  N1  <0> d           2.058   0.753  -0.013  0.00  0.00    -0.167 NA
ATOM     14  N2  <0> d           1.442  -0.316  -0.013  0.00  0.00    -0.182 NA
ENDBRANCH   1  10
BRANCH   4  15
ATOM     15  C7  <0> d          -1.165  -5.021   2.574  0.00  0.00     0.454 C 
ATOM     16  F1  <0> d          -1.915  -6.176   2.823  0.00  0.00    -0.163 F 
ATOM     17  F2  <0> d          -0.387  -5.209   1.426  0.00  0.00    -0.163 F 
ATOM     18  F3  <0> d          -0.330  -4.763   3.666  0.00  0.00    -0.163 F 
ENDBRANCH   4  15
TORSDOF 2
