REMARK  4 active torsions:
REMARK  status: ('A' for Active; 'I' for Inactive)
REMARK       I    between atoms: C2_2  and  N1_4 
REMARK    1  A    between atoms: N1_4  and  C3_5 
REMARK    2  A    between atoms: C8_10  and  N2_11 
REMARK       I    between atoms: N2_11  and  C9_12 
REMARK    3  A    between atoms: C9_12  and  C10_14 
REMARK    4  A    between atoms: C12_16  and  C13_17 
ROOT
ATOM      1  N2  <0> d           0.152  -2.221  -3.593  0.00  0.00    -0.325 N 
ATOM      2  C9  <0> d           0.133  -2.931  -4.738  0.00  0.00     0.227 C 
ATOM      3  O2  <0> d           0.242  -4.138  -4.705  0.00  0.00    -0.273 OA
ATOM      4  H10 <0> d           0.146  -1.251  -3.623  0.00  0.00     0.169 HD
ENDROOT
BRANCH   1   5
ATOM      5  C8  <0> d           0.179  -2.883  -2.359  0.00  0.00     0.063 A 
ATOM      6  C3  <0> d           0.709  -2.248  -1.236  0.00  0.00     0.061 A 
ATOM      7  C4  <0> d           0.727  -2.907  -0.016  0.00  0.00     0.033 A 
ATOM      8  C5  <0> d           0.227  -4.191   0.084  0.00  0.00     0.021 A 
ATOM      9  C6  <0> d          -0.294  -4.824  -1.031  0.00  0.00     0.013 A 
ATOM     10  C7  <0> d          -0.316  -4.174  -2.251  0.00  0.00     0.051 A 
ATOM     11 Br1  <0> d          -0.976  -6.581  -0.885  0.00  0.00    -0.051 Br
BRANCH   6  12
ATOM     12  N1  <0> d           1.216  -0.946  -1.339  0.00  0.00    -0.326 N 
ATOM     13  C2  <0> d           1.255  -0.150  -0.253  0.00  0.00     0.218 C 
ATOM     14  C1  <0> d           1.913   1.203  -0.333  0.00  0.00     0.117 C 
ATOM     15  O1  <0> d           0.761  -0.523   0.790  0.00  0.00    -0.274 OA
ATOM     16  H6  <0> d           1.538  -0.617  -2.193  0.00  0.00     0.169 HD
ENDBRANCH   6  12
ENDBRANCH   1   5
BRANCH   2  17
ATOM     17  C10 <0> d          -0.021  -2.224  -6.060  0.00  0.00     0.087 A 
ATOM     18  C12 <0> d          -0.037  -3.086  -7.324  0.00  0.00     0.035 A 
ATOM     19  C11 <0> d          -1.329  -2.436  -6.825  0.00  0.00     0.025 A 
BRANCH  18  20
ATOM     20  C13 <0> d           0.104  -4.577  -7.152  0.00  0.00    -0.017 A 
ATOM     21  C15 <0> d           1.087  -5.348  -7.670  0.00  0.00     0.120 A 
ATOM     22  N4  <0> d           0.857  -6.621  -7.285  0.00  0.00    -0.285 N 
ATOM     23  N3  <0> d          -0.312  -6.633  -6.513  0.00  0.00    -0.185 NA
ATOM     24  C16 <0> d           1.680  -7.786  -7.622  0.00  0.00     0.179 C 
ATOM     25  C14 <0> d          -0.762  -5.407  -6.434  0.00  0.00     0.147 A 
ENDBRANCH  18  20
ENDBRANCH   2  17
TORSDOF 4
