REMARK  4 active torsions:
REMARK  status: ('A' for Active; 'I' for Inactive)
REMARK    1  A    between atoms: C7_9  and  C10_12 
REMARK    2  A    between atoms: C10_12  and  N2_13 
REMARK       I    between atoms: N2_13  and  C11_14 
REMARK       I    between atoms: C11_14  and  N3_16 
REMARK    3  A    between atoms: N3_16  and  C12_17 
REMARK    4  A    between atoms: C16_21  and  C19_24 
REMARK       I    between atoms: C19_24  and  N4_26 
ROOT
ATOM      1  N2  <0> d          -0.671  -0.565   5.724  0.00  0.00    -0.339 N 
ATOM      2  C11 <0> d          -1.103  -0.593   7.000  0.00  0.00     0.321 C 
ATOM      3  O1  <0> d          -0.303  -0.544   7.914  0.00  0.00    -0.247 OA
ATOM      4  N3  <0> d          -2.422  -0.676   7.263  0.00  0.00    -0.308 N 
ATOM      5  H10 <0> d          -1.309  -0.605   4.994  0.00  0.00     0.164 HD
ATOM      6  H11 <0> d          -3.064  -0.644   6.537  0.00  0.00     0.170 HD
ENDROOT
BRANCH   1   7
ATOM      7  C10 <0> d           0.763  -0.475   5.438  0.00  0.00     0.162 C 
BRANCH   7   8
ATOM      8  C7  <0> d           0.978  -0.461   3.946  0.00  0.00    -0.040 A 
ATOM      9  C6  <0> d           1.001   0.730   3.276  0.00  0.00     0.023 A 
ATOM     10  C5  <0> d           1.200   0.745   1.895  0.00  0.00    -0.001 A 
ATOM     11  C2  <0> d           1.279   1.806   0.888  0.00  0.00    -0.027 A 
ATOM     12  C4  <0> d           1.373  -0.465   1.198  0.00  0.00     0.043 A 
ATOM     13  C1  <0> d           1.151   3.287   1.136  0.00  0.00     0.051 C 
ATOM     14  C3  <0> d           1.493   1.210  -0.295  0.00  0.00     0.012 A 
ATOM     15  N1  <0> d           1.552  -0.147  -0.130  0.00  0.00    -0.359 N 
ATOM     16  C21 <0> d           1.646   1.928  -1.611  0.00  0.00     0.068 C 
ATOM     17  H1  <0> d           1.699  -0.789  -0.842  0.00  0.00     0.166 HD
ATOM     18  C9  <0> d           1.341  -1.666   1.899  0.00  0.00     0.031 A 
ATOM     19  C8  <0> d           1.152  -1.657   3.264  0.00  0.00     0.011 A 
ENDBRANCH   7   8
ENDBRANCH   1   7
BRANCH   4  20
ATOM     20  C12 <0> d          -2.866  -0.808   8.584  0.00  0.00     0.043 A 
ATOM     21  C17 <0> d          -4.170  -0.476   8.914  0.00  0.00    -0.019 A 
ATOM     22  C16 <0> d          -4.609  -0.614  10.231  0.00  0.00     0.040 A 
ATOM     23  C18 <0> d          -5.114   0.027   7.852  0.00  0.00     0.052 C 
ATOM     24  C15 <0> d          -3.728  -1.077  11.210  0.00  0.00     0.018 A 
ATOM     25  C14 <0> d          -2.429  -1.399  10.872  0.00  0.00     0.003 A 
ATOM     26  C13 <0> d          -1.996  -1.267   9.566  0.00  0.00     0.030 A 
BRANCH  22  27
ATOM     27  C19 <0> d          -6.001  -0.268  10.589  0.00  0.00     0.251 C 
ATOM     28  O2  <0> d          -6.802   0.007   9.718  0.00  0.00    -0.268 OA
ATOM     29  N4  <0> d          -6.380  -0.257  11.882  0.00  0.00    -0.361 N 
ATOM     30  C20 <0> d          -7.760   0.087  12.238  0.00  0.00     0.149 C 
ATOM     31  H18 <0> d          -5.741  -0.476  12.578  0.00  0.00     0.162 HD
ENDBRANCH  22  27
ENDBRANCH   4  20
TORSDOF 4
