REMARK  2 active torsions:
REMARK  status: ('A' for Active; 'I' for Inactive)
REMARK    1  A    between atoms: C4_5  and  O3_17 
REMARK    2  A    between atoms: C7_8  and  O2_16 
ROOT
ATOM      1  C1  <0> d          -0.018   1.465   0.010  0.00  0.00     0.269 C 
ATOM      2  N1  <0> d           0.002  -0.004   0.002  0.00  0.00    -0.074 N 
ATOM      3  C2  <0> d           0.676  -0.475  -1.213  0.00  0.00     0.239 C 
ATOM      4  C3  <0> d           0.651  -2.004  -1.266  0.00  0.00     0.097 C 
ATOM      5  C4  <0> d           1.383  -2.555  -0.033  0.00  0.00     0.177 C 
ATOM      6  C5  <0> d           0.675  -2.016   1.218  0.00  0.00     0.107 C 
ATOM      7  C6  <0> d           0.713  -0.488   1.193  0.00  0.00     0.247 C 
ATOM      8  C7  <0> d           1.385  -2.544   2.462  0.00  0.00     0.165 C 
ATOM      9  C8  <0> d           2.875  -2.371   2.322  0.00  0.00     0.004 A 
ATOM     10  C9  <0> d           3.666  -2.442   3.457  0.00  0.00     0.012 A 
ATOM     11  C10 <0> d           5.035  -2.293   3.363  0.00  0.00     0.001 A 
ATOM     12  C11 <0> d           5.623  -2.074   2.131  0.00  0.00     0.003 A 
ATOM     13  C12 <0> d           4.841  -2.001   0.997  0.00  0.00     0.037 A 
ATOM     14  C13 <0> d           3.460  -2.146   1.088  0.00  0.00     0.081 A 
ATOM     15  O1  <0> d           2.723  -2.055  -0.044  0.00  0.00    -0.313 OA
ATOM     16  H18 <0> d          -0.945  -0.352   0.013  0.00  0.00     0.279 HD
ENDROOT
BRANCH   5  17
ATOM     17  O3  <0> d           1.381  -3.984  -0.046  0.00  0.00    -0.364 OA
ATOM     18  H17 <0> d           1.814  -4.371  -0.820  0.00  0.00     0.213 HD
ENDBRANCH   5  17
BRANCH   8  19
ATOM     19  O2  <0> d           0.933  -1.820   3.608  0.00  0.00    -0.390 OA
ATOM     20  H16 <0> d           1.342  -2.102   4.438  0.00  0.00     0.210 HD
ENDBRANCH   8  19
TORSDOF 2
