REMARK  3 active torsions:
REMARK  status: ('A' for Active; 'I' for Inactive)
REMARK    1  A    between atoms: C2_2  and  C3_3 
REMARK    2  A    between atoms: C3_3  and  N4_24 
REMARK    3  A    between atoms: N2_12  and  C10_16 
ROOT
ATOM      1  C4  <0> d           5.205  -0.566   2.470  0.00  0.00     0.283 C 
ATOM      2  C5  <0> d           4.679  -0.265   1.091  0.00  0.00     0.075 A 
ATOM      3  C6  <0> d           5.394  -0.728  -0.028  0.00  0.00     0.260 A 
ATOM      4  O1  <0> d           6.425  -1.359   0.123  0.00  0.00    -0.267 OA
ATOM      5  N1  <0> d           4.934  -0.471  -1.268  0.00  0.00    -0.274 N 
ATOM      6  H1  <0> d           5.445  -0.796  -2.064  0.00  0.00     0.173 HD
ATOM      7  C7  <0> d           3.793   0.219  -1.441  0.00  0.00     0.335 A 
ATOM      8  O2  <0> d           3.390   0.438  -2.568  0.00  0.00    -0.246 OA
ATOM      9  N2  <0> d           3.091   0.671  -0.388  0.00  0.00    -0.253 N 
ATOM     10  C8  <0> d           3.532   0.444   0.900  0.00  0.00     0.106 A 
ATOM     11  N3  <0> d           2.790   0.936   1.940  0.00  0.00    -0.254 NA
ATOM     12  C9  <0> d           3.072   0.260   3.209  0.00  0.00     0.330 C 
ATOM     13  H11 <0> d           1.804   0.910   1.727  0.00  0.00     0.130 HD
ATOM     14  N4  <0> d           4.527   0.309   3.443  0.00  0.00    -0.055 N 
ATOM     15  H21 <0> d           4.857   1.273   3.316  0.00  0.00     0.281 HD
ENDROOT
BRANCH   9  16
ATOM     16  C10 <0> d           1.903   1.384  -0.600  0.00  0.00     0.051 A 
ATOM     17  C15 <0> d           1.935   2.765  -0.731  0.00  0.00    -0.035 A 
ATOM     18  C14 <0> d           0.763   3.466  -0.939  0.00  0.00     0.009 A 
ATOM     19  C16 <0> d           3.248   3.501  -0.645  0.00  0.00     0.050 C 
ATOM     20  C13 <0> d          -0.442   2.792  -1.017  0.00  0.00     0.001 A 
ATOM     21  C12 <0> d          -0.476   1.415  -0.892  0.00  0.00     0.002 A 
ATOM     22  C11 <0> d           0.692   0.710  -0.679  0.00  0.00     0.031 A 
ENDBRANCH   9  16
BRANCH  14  23
ATOM     23  C3  <0> d           4.837  -0.130   4.824  0.00  0.00     0.236 C 
BRANCH  23  24
ATOM     24  C2  <0> d           4.149  -1.465   5.118  0.00  0.00     0.023 C 
ATOM     25  C1  <0> d           4.577  -1.966   6.499  0.00  0.00     0.007 C 
ENDBRANCH  23  24
ENDBRANCH  14  23
TORSDOF 3
