REMARK  7 active torsions:
REMARK  status: ('A' for Active; 'I' for Inactive)
REMARK    1  A    between atoms: C2_2  and  N1_3 
REMARK       I    between atoms: N1_3  and  C3_4 
REMARK    2  A    between atoms: C3_4  and  C4_6 
REMARK    3  A    between atoms: C4_6  and  N2_8 
REMARK    4  A    between atoms: N2_8  and  C6_9 
REMARK    5  A    between atoms: C6_9  and  C7_10 
REMARK    6  A    between atoms: C10_13  and  O2_17 
REMARK    7  A    between atoms: O2_17  and  C13_18 
ROOT
ATOM      1  C6  <0> d           2.132  -4.228  -3.936  0.00  0.00     0.271 C 
ENDROOT
BRANCH   1   2
ATOM      2  N2  <0> d           1.552  -3.753  -2.673  0.00  0.00    -0.059 N 
ATOM      3  H11 <0> d           2.110  -4.087  -1.901  0.00  0.00     0.278 HD
ATOM      4  H21 <0> d           0.610  -4.103  -2.583  0.00  0.00     0.278 HD
BRANCH   2   5
ATOM      5  C4  <0> d           1.532  -2.285  -2.665  0.00  0.00     0.273 C 
ATOM      6  C5  <0> d           2.968  -1.755  -2.676  0.00  0.00     0.050 C 
BRANCH   5   7
ATOM      7  C3  <0> d           0.827  -1.799  -1.425  0.00  0.00     0.248 C 
ATOM      8  N1  <0> d           0.688  -0.476  -1.203  0.00  0.00    -0.360 N 
ATOM      9  H7  <0> d           1.042   0.162  -1.842  0.00  0.00     0.162 HD
ATOM     10  O1  <0> d           0.384  -2.597  -0.627  0.00  0.00    -0.271 OA
BRANCH   8  11
ATOM     11  C2  <0> d           0.002  -0.004   0.002  0.00  0.00     0.118 C 
ATOM     12  C1  <0> d          -0.019   1.526   0.010  0.00  0.00     0.026 C 
ENDBRANCH   8  11
ENDBRANCH   5   7
ENDBRANCH   2   5
ENDBRANCH   1   2
BRANCH   1  13
ATOM     13  C7  <0> d           2.152  -5.735  -3.945  0.00  0.00    -0.030 A 
ATOM     14  C12 <0> d           1.071  -6.437  -4.444  0.00  0.00     0.030 A 
ATOM     15  C11 <0> d           1.090  -7.819  -4.458  0.00  0.00     0.046 A 
ATOM     16  C10 <0> d           2.190  -8.502  -3.960  0.00  0.00     0.103 A 
ATOM     17 Br1  <0> d          -0.386  -8.779  -5.149  0.00  0.00    -0.048 Br
ATOM     18  C9  <0> d           3.272  -7.795  -3.454  0.00  0.00     0.046 A 
ATOM     19  C8  <0> d           3.250  -6.413  -3.447  0.00  0.00     0.030 A 
ATOM     20 Br2  <0> d           4.774  -8.722  -2.775  0.00  0.00    -0.048 Br
BRANCH  16  21
ATOM     21  O2  <0> d           2.209  -9.862  -3.969  0.00  0.00    -0.349 OA
BRANCH  21  22
ATOM     22  C13 <0> d           1.686 -10.525  -2.816  0.00  0.00     0.171 C 
ATOM     23  C14 <0> d           1.791 -12.039  -3.007  0.00  0.00     0.034 C 
ENDBRANCH  21  22
ENDBRANCH  16  21
ENDBRANCH   1  13
TORSDOF 7
