REMARK  7 active torsions:
REMARK  status: ('A' for Active; 'I' for Inactive)
REMARK    1  A    between atoms: C3_3  and  N6_25 
REMARK    2  A    between atoms: C6_6  and  C7_7 
REMARK    3  A    between atoms: C8_10  and  S1_13 
REMARK    4  A    between atoms: N3_11  and  N4_12 
REMARK    5  A    between atoms: S1_13  and  C9_14 
REMARK    6  A    between atoms: C9_14  and  C10_15 
REMARK       I    between atoms: C10_15  and  N5_17 
REMARK    7  A    between atoms: N5_17  and  C11_18 
ROOT
ATOM      1  C7  <0> d          -1.263  -0.768   0.033  0.00  0.00     0.179 A 
ATOM      2  N1  <0> d          -2.454  -0.296   0.320  0.00  0.00    -0.127 NA
ATOM      3  N2  <0> d          -3.331  -1.230   0.225  0.00  0.00    -0.121 NA
ATOM      4  C8  <0> d          -2.754  -2.357  -0.129  0.00  0.00     0.206 A 
ATOM      5  N3  <0> d          -1.420  -2.102  -0.269  0.00  0.00    -0.235 N 
ENDROOT
BRANCH   4   6
ATOM      6  S1  <0> d          -3.554  -3.906  -0.383  0.00  0.00    -0.080 SA
BRANCH   6   7
ATOM      7  C9  <0> d          -5.302  -3.558  -0.045  0.00  0.00     0.185 C 
BRANCH   7   8
ATOM      8  C10 <0> d          -6.109  -4.818  -0.228  0.00  0.00     0.231 C 
ATOM      9  O1  <0> d          -5.559  -5.848  -0.554  0.00  0.00    -0.272 OA
ATOM     10  N5  <0> d          -7.442  -4.799  -0.029  0.00  0.00    -0.327 N 
ATOM     11  H9  <0> d          -7.872  -3.993   0.296  0.00  0.00     0.169 HD
BRANCH  10  12
ATOM     12  C11 <0> d          -8.205  -5.942  -0.292  0.00  0.00     0.034 A 
ATOM     13  C16 <0> d          -7.677  -7.202  -0.047  0.00  0.00     0.031 A 
ATOM     14  C15 <0> d          -8.435  -8.329  -0.303  0.00  0.00     0.020 A 
ATOM     15  C14 <0> d          -9.714  -8.202  -0.814  0.00  0.00     0.006 A 
ATOM     16  C13 <0> d         -10.241  -6.947  -1.064  0.00  0.00     0.020 A 
ATOM     17  I1  <0> d         -10.857  -9.913  -1.207  0.00  0.00    -0.045 I 
ATOM     18  C12 <0> d          -9.490  -5.818  -0.805  0.00  0.00     0.031 A 
ENDBRANCH  10  12
ENDBRANCH   7   8
ENDBRANCH   6   7
ENDBRANCH   4   6
BRANCH   5  19
ATOM     19  N4  <0> d          -0.443  -2.986  -0.629  0.00  0.00    -0.239 NA
ATOM     20  H5  <0> d          -0.050  -3.441   0.181  0.00  0.00     0.143 HD
ATOM     21  H6  <0> d          -0.795  -3.664  -1.289  0.00  0.00     0.143 HD
ENDBRANCH   5  19
BRANCH   1  22
ATOM     22  C6  <0> d           0.005  -0.009   0.029  0.00  0.00     0.013 A 
ATOM     23  C1  <0> d          -0.013   1.386   0.046  0.00  0.00     0.018 A 
ATOM     24  C2  <0> d           1.175   2.088   0.043  0.00  0.00     0.037 A 
ATOM     25  C3  <0> d           2.382   1.412   0.021  0.00  0.00     0.102 A 
ATOM     26  C4  <0> d           2.407   0.029   0.003  0.00  0.00     0.037 A 
ATOM     27  C5  <0> d           1.226  -0.685   0.006  0.00  0.00     0.018 A 
BRANCH  25  28
ATOM     28  N6  <0> d           3.653   2.172   0.017  0.00  0.00    -0.116 N 
ATOM     29  O2  <0> d           3.634   3.381   0.033  0.00  0.00    -0.532 OA
ATOM     30  O3  <0> d           4.709   1.584  -0.001  0.00  0.00    -0.532 OA
ENDBRANCH  25  28
ENDBRANCH   1  22
TORSDOF 7
