REMARK  4 active torsions:
REMARK  status: ('A' for Active; 'I' for Inactive)
REMARK    1  A    between atoms: C9_13  and  C10_14 
REMARK       I    between atoms: C10_14  and  N3_16 
REMARK    2  A    between atoms: N3_16  and  C11_17 
REMARK    3  A    between atoms: C11_17  and  C12_18 
REMARK    4  A    between atoms: C12_18  and  N4_19 
ROOT
ATOM      1  C1  <0> d          -3.601  -2.497   0.036  0.00  0.00     0.051 C 
ATOM      2  C2  <0> d          -2.190  -3.026   0.012  0.00  0.00    -0.021 A 
ATOM      3  C3  <0> d          -1.958  -4.403  -0.003  0.00  0.00     0.075 A 
ATOM      4  C4  <0> d          -0.602  -4.799  -0.018  0.00  0.00     0.116 A 
ATOM      5  N1  <0> d          -0.245  -6.077  -0.028  0.00  0.00    -0.227 NA
ATOM      6  C5  <0> d          -1.133  -7.035  -0.024  0.00  0.00     0.105 A 
ATOM      7  N2  <0> d          -2.464  -6.779  -0.011  0.00  0.00    -0.306 N 
ATOM      8  C6  <0> d          -2.935  -5.516   0.001  0.00  0.00     0.262 A 
ATOM      9  O1  <0> d          -4.133  -5.296   0.013  0.00  0.00    -0.267 OA
ATOM     10  C7  <0> d          -3.410  -7.897  -0.007  0.00  0.00     0.161 C 
ATOM     11  C8  <0> d          -0.663  -8.467  -0.036  0.00  0.00     0.091 C 
ATOM     12  S1  <0> d           0.274  -3.255  -0.017  0.00  0.00    -0.063 SA
ATOM     13  C9  <0> d          -1.136  -2.160   0.001  0.00  0.00     0.081 A 
ENDROOT
BRANCH  13  14
ATOM     14  C10 <0> d          -1.156  -0.694   0.009  0.00  0.00     0.259 C 
ATOM     15  O2  <0> d          -2.218  -0.100   0.023  0.00  0.00    -0.267 OA
ATOM     16  N3  <0> d           0.002  -0.004   0.002  0.00  0.00    -0.355 N 
ATOM     17  H10 <0> d           0.962  -0.541  -0.010  0.00  0.00     0.162 HD
BRANCH  16  18
ATOM     18  C11 <0> d          -0.018   1.461   0.010  0.00  0.00     0.153 C 
BRANCH  18  19
ATOM     19  C12 <0> d           1.418   1.990  -0.001  0.00  0.00     0.292 C 
BRANCH  19  20
ATOM     20  N4  <0> d           1.398   3.459   0.007  0.00  0.00     0.094 N 
ATOM     21  C16 <0> d           2.744   4.003   0.236  0.00  0.00     0.298 C 
ATOM     22  C15 <0> d           2.668   5.531   0.296  0.00  0.00     0.198 C 
ATOM     23  O3  <0> d           2.084   6.022  -0.913  0.00  0.00    -0.388 OA
ATOM     24  C14 <0> d           0.771   5.513  -1.167  0.00  0.00     0.198 C 
ATOM     25  C13 <0> d           0.828   3.985  -1.242  0.00  0.00     0.298 C 
ENDBRANCH  19  20
ENDBRANCH  18  19
ENDBRANCH  16  18
ENDBRANCH  13  14
TORSDOF 4
