REMARK  3 active torsions:
REMARK  status: ('A' for Active; 'I' for Inactive)
REMARK    1  A    between atoms: C3_3  and  C6_8 
REMARK    2  A    between atoms: C6_8  and  N2_10 
REMARK    3  A    between atoms: C13_17  and  N4_19 
ROOT
ATOM      1  N2  <0> d           1.122  -0.789  -3.318  0.00  0.00    -0.324 N 
ATOM      2  C8  <0> d           1.354  -2.111  -3.535  0.00  0.00     0.104 A 
ATOM      3  N3  <0> d           2.463  -2.268  -4.198  0.00  0.00    -0.234 NA
ATOM      4  C9  <0> d           3.019  -1.055  -4.452  0.00  0.00     0.087 A 
ATOM      5  C10 <0> d           2.165  -0.088  -3.896  0.00  0.00     0.065 A 
ATOM      6  C11 <0> d           2.476   1.260  -4.005  0.00  0.00     0.034 A 
ATOM      7  C12 <0> d           3.623   1.650  -4.662  0.00  0.00     0.031 A 
ATOM      8  C13 <0> d           4.474   0.697  -5.219  0.00  0.00     0.028 A 
ATOM      9  C14 <0> d           4.182  -0.650  -5.112  0.00  0.00     0.063 A 
ATOM     10  C15 <0> d           0.458  -3.231  -3.075  0.00  0.00     0.091 C 
ENDROOT
BRANCH   1  11
ATOM     11  C6  <0> d          -0.023  -0.213  -2.608  0.00  0.00     0.129 C 
ATOM     12  C7  <0> d           0.478   0.715  -1.500  0.00  0.00     0.038 C 
BRANCH  11  13
ATOM     13  C3  <0> d          -0.871   0.572  -3.575  0.00  0.00     0.031 A 
ATOM     14  C2  <0> d          -2.132   0.331  -4.015  0.00  0.00     0.046 A 
ATOM     15  C1  <0> d          -2.916  -0.868  -3.545  0.00  0.00     0.071 C 
ATOM     16  N1  <0> d          -2.639   1.190  -4.877  0.00  0.00    -0.250 NA
ATOM     17  C4  <0> d          -1.957   2.233  -5.280  0.00  0.00     0.072 A 
ATOM     18  S1  <0> d          -0.495   2.076  -4.460  0.00  0.00    -0.075 SA
ATOM     19  C5  <0> d          -2.377   3.310  -6.247  0.00  0.00     0.078 C 
ENDBRANCH  11  13
ENDBRANCH   1  11
BRANCH   8  20
ATOM     20  N4  <0> d           5.636   1.106  -5.884  0.00  0.00    -0.399 N 
ATOM     21  H14 <0> d           5.846   2.050  -5.956  0.00  0.00     0.156 HD
ATOM     22  H15 <0> d           6.230   0.446  -6.272  0.00  0.00     0.156 HD
ENDBRANCH   8  20
TORSDOF 3
