REMARK  4 active torsions:
REMARK  status: ('A' for Active; 'I' for Inactive)
REMARK    1  A    between atoms: C2_2  and  N1_3 
REMARK    2  A    between atoms: C9_11  and  C12_15 
REMARK       I    between atoms: C12_15  and  N2_17 
REMARK    3  A    between atoms: N2_17  and  C13_18 
REMARK    4  A    between atoms: C14_19  and  C21_27 
REMARK       I    between atoms: C21_27  and  N3_29 
ROOT
ATOM      1  C12 <0> d           3.131   0.217  -3.190  0.00  0.00     0.267 C 
ATOM      2  O3  <0> d           3.289   1.245  -2.566  0.00  0.00    -0.269 OA
ATOM      3  N2  <0> d           3.314   0.205  -4.526  0.00  0.00    -0.317 N 
ATOM      4  H13 <0> d           3.188  -0.618  -5.024  0.00  0.00     0.169 HD
ENDROOT
BRANCH   1   5
ATOM      5  C9  <0> d           2.732  -1.046  -2.472  0.00  0.00     0.225 C 
ATOM      6  O1  <0> d           1.864  -1.814  -3.308  0.00  0.00    -0.319 OA
ATOM      7  C8  <0> d           0.585  -1.371  -3.443  0.00  0.00     0.098 A 
ATOM      8  C3  <0> d          -0.032  -0.711  -2.383  0.00  0.00     0.070 A 
ATOM      9  C7  <0> d          -0.113  -1.590  -4.619  0.00  0.00     0.039 A 
ATOM     10  N1  <0> d           0.688  -0.476  -1.203  0.00  0.00    -0.313 N 
ATOM     11  C4  <0> d          -1.347  -0.289  -2.501  0.00  0.00     0.033 A 
ATOM     12  C10 <0> d           2.021  -0.686  -1.193  0.00  0.00     0.269 C 
ATOM     13  O2  <0> d           2.644  -0.590  -0.157  0.00  0.00    -0.269 OA
ATOM     14  C5  <0> d          -2.039  -0.516  -3.677  0.00  0.00     0.002 A 
ATOM     15  C6  <0> d          -1.423  -1.162  -4.733  0.00  0.00     0.003 A 
ATOM     16  C11 <0> d           3.984  -1.865  -2.149  0.00  0.00     0.068 C 
BRANCH  10  17
ATOM     17  C2  <0> d           0.002  -0.004   0.002  0.00  0.00     0.128 C 
ATOM     18  C1  <0> d          -0.019   1.526   0.010  0.00  0.00     0.027 C 
ENDBRANCH  10  17
ENDBRANCH   1   5
BRANCH   3  19
ATOM     19  C13 <0> d           3.681   1.367  -5.186  0.00  0.00     0.093 A 
ATOM     20  S1  <0> d           3.950   2.888  -4.527  0.00  0.00    -0.075 SA
ATOM     21  C16 <0> d           4.370   3.783  -5.994  0.00  0.00    -0.008 A 
ATOM     22  C15 <0> d           4.284   2.871  -6.987  0.00  0.00    -0.026 A 
ATOM     23  C17 <0> d           4.737   5.228  -6.129  0.00  0.00     0.047 C 
ATOM     24  C14 <0> d           3.905   1.542  -6.543  0.00  0.00     0.073 A 
ATOM     25  C20 <0> d           4.567   3.249  -8.434  0.00  0.00     0.041 C 
ATOM     26  C19 <0> d           4.483   4.771  -8.569  0.00  0.00     0.005 C 
ATOM     27  C18 <0> d           5.369   5.438  -7.513  0.00  0.00     0.005 C 
BRANCH  24  28
ATOM     28  C21 <0> d           3.765   0.431  -7.489  0.00  0.00     0.254 C 
ATOM     29  O4  <0> d           2.691   0.213  -8.019  0.00  0.00    -0.268 OA
ATOM     30  N3  <0> d           4.827  -0.350  -7.773  0.00  0.00    -0.361 N 
ATOM     31  C22 <0> d           4.687  -1.460  -8.719  0.00  0.00     0.149 C 
ATOM     32  H22 <0> d           5.683  -0.177  -7.351  0.00  0.00     0.162 HD
ENDBRANCH  24  28
ENDBRANCH   3  19
TORSDOF 4
