REMARK  7 active torsions:
REMARK  status: ('A' for Active; 'I' for Inactive)
REMARK    1  A    between atoms: C2_2  and  C3_3 
REMARK    2  A    between atoms: C2_2  and  S1_15 
REMARK    3  A    between atoms: S1_15  and  C11_16 
REMARK    4  A    between atoms: C12_19  and  C16_26 
REMARK    5  A    between atoms: N5_20  and  C13_21 
REMARK    6  A    between atoms: C13_21  and  C14_22 
REMARK    7  A    between atoms: C14_22  and  C15_23 
REMARK       I    between atoms: C15_23  and  N6_25 
ROOT
ATOM      1  C11 <0> d          -0.906  -6.625  -0.758  0.00  0.00     0.192 A 
ATOM      2  N3  <0> d           0.224  -7.160  -0.358  0.00  0.00    -0.123 NA
ATOM      3  N4  <0> d           0.184  -8.435  -0.519  0.00  0.00    -0.134 NA
ATOM      4  C12 <0> d          -0.960  -8.785  -1.034  0.00  0.00     0.135 A 
ATOM      5  N5  <0> d          -1.696  -7.644  -1.205  0.00  0.00    -0.310 N 
ENDROOT
BRANCH   1   6
ATOM      6  S1  <0> d          -1.321  -4.912  -0.730  0.00  0.00    -0.078 SA
BRANCH   6   7
ATOM      7  C2  <0> d           0.198  -4.232  -0.020  0.00  0.00     0.121 C 
ATOM      8  C1  <0> d           0.365  -4.742   1.413  0.00  0.00     0.030 C 
BRANCH   7   9
ATOM      9  C3  <0> d           0.119  -2.727  -0.012  0.00  0.00     0.121 A 
ATOM     10  N2  <0> d           1.227  -2.051  -0.020  0.00  0.00    -0.233 NA
ATOM     11  C10 <0> d           1.234  -0.695  -0.013  0.00  0.00     0.074 A 
ATOM     12  C5  <0> d           0.002  -0.004   0.002  0.00  0.00     0.061 A 
ATOM     13  C9  <0> d           2.426   0.032  -0.021  0.00  0.00     0.032 A 
ATOM     14  C4  <0> d          -1.235  -0.799   0.011  0.00  0.00     0.259 A 
ATOM     15  C6  <0> d          -0.017   1.389   0.010  0.00  0.00     0.019 A 
ATOM     16  N1  <0> d          -1.110  -2.147   0.003  0.00  0.00    -0.310 N 
ATOM     17  O1  <0> d          -2.329  -0.266   0.024  0.00  0.00    -0.267 OA
ATOM     18  H2  <0> d          -2.014  -2.773   0.009  0.00  0.00     0.170 HD
ATOM     19  C7  <0> d           1.173   2.084   0.002  0.00  0.00     0.001 A 
ATOM     20  C8  <0> d           2.386   1.408  -0.014  0.00  0.00     0.002 A 
ENDBRANCH   7   9
ENDBRANCH   6   7
ENDBRANCH   1   6
BRANCH   5  21
ATOM     21  C13 <0> d          -3.050  -7.539  -1.753  0.00  0.00     0.142 C 
BRANCH  21  22
ATOM     22  C14 <0> d          -2.973  -7.346  -3.269  0.00  0.00     0.123 C 
BRANCH  22  23
ATOM     23  C15 <0> d          -4.366  -7.238  -3.833  0.00  0.00     0.216 C 
ATOM     24  O2  <0> d          -5.326  -7.308  -3.096  0.00  0.00    -0.274 OA
ATOM     25  N6  <0> d          -4.545  -7.063  -5.158  0.00  0.00    -0.370 N 
ATOM     26  H14 <0> d          -5.562  -6.984  -5.570  0.00  0.00     0.159 HD
ATOM     27  H15 <0> d          -3.674  -7.000  -5.827  0.00  0.00     0.159 HD
ENDBRANCH  22  23
ENDBRANCH  21  22
ENDBRANCH   5  21
BRANCH   4  28
ATOM     28  C16 <0> d          -1.393 -10.187  -1.378  0.00  0.00     0.057 A 
ATOM     29  C18 <0> d          -0.552 -10.956  -2.398  0.00  0.00     0.013 A 
ATOM     30  C17 <0> d          -0.496 -11.337  -0.917  0.00  0.00     0.013 A 
ENDBRANCH   4  28
TORSDOF 7
