REMARK  3 active torsions:
REMARK  status: ('A' for Active; 'I' for Inactive)
REMARK    1  A    between atoms: N1_2  and  C3_4 
REMARK    2  A    between atoms: N2_7  and  C7_9 
REMARK    3  A    between atoms: C11_14  and  O2_15 
ROOT
ATOM      1  C3  <0> d          -1.372  -0.495  -0.170  0.00  0.00     0.249 C 
ATOM      2  C4  <0> d          -2.256  -0.108   1.044  0.00  0.00     0.065 C 
ATOM      3  C5  <0> d          -3.344  -1.202   1.045  0.00  0.00     0.238 C 
ATOM      4  N2  <0> d          -2.798  -2.362   0.316  0.00  0.00    -0.060 N 
ATOM      5  C6  <0> d          -1.419  -2.043  -0.112  0.00  0.00     0.271 C 
ATOM      6  H23 <0> d          -3.368  -2.554  -0.494  0.00  0.00     0.280 HD
ENDROOT
BRANCH   4   7
ATOM      7  C7  <0> d          -2.783  -3.537   1.197  0.00  0.00     0.240 C 
ATOM      8  C11 <0> d          -4.215  -3.876   1.624  0.00  0.00     0.153 C 
ATOM      9  C10 <0> d          -4.194  -5.148   2.477  0.00  0.00     0.060 C 
ATOM     10  C9  <0> d          -3.542  -6.279   1.678  0.00  0.00     0.170 C 
ATOM     11  O1  <0> d          -2.225  -5.887   1.288  0.00  0.00    -0.389 OA
ATOM     12  C8  <0> d          -2.185  -4.731   0.448  0.00  0.00     0.203 C 
BRANCH   8  13
ATOM     13  O2  <0> d          -5.021  -4.092   0.464  0.00  0.00    -0.393 OA
ATOM     14  H22 <0> d          -5.942  -4.311   0.661  0.00  0.00     0.210 HD
ENDBRANCH   8  13
ENDBRANCH   4   7
BRANCH   1  15
ATOM     15  N1  <0> d           0.002  -0.004   0.002  0.00  0.00     0.086 N 
ATOM     16  C1  <0> d           0.878  -0.504  -1.066  0.00  0.00     0.310 C 
ATOM     17  C2  <0> d           0.033   1.463   0.064  0.00  0.00     0.310 C 
ENDBRANCH   1  15
TORSDOF 3
