REMARK  4 active torsions:
REMARK  status: ('A' for Active; 'I' for Inactive)
REMARK    1  A    between atoms: C6_6  and  N1_8 
REMARK    2  A    between atoms: C9_11  and  C16_22 
REMARK    3  A    between atoms: C10_14  and  N3_15 
REMARK    4  A    between atoms: C16_22  and  C17_23 
ROOT
ATOM      1  N1  <0> d           0.011  -0.006  -0.124  0.00  0.00    -0.113 N 
ATOM      2  C8  <0> d          -0.010   1.343  -0.132  0.00  0.00     0.275 A 
ATOM      3  O1  <0> d          -0.975   2.066  -0.258  0.00  0.00    -0.269 OA
ATOM      4  C9  <0> d           1.436   1.761   0.052  0.00  0.00     0.168 A 
ATOM      5  H1  <0> d           3.255   0.485   0.289  0.00  0.00     0.179 HD
ATOM      6  N2  <0> d           2.164   0.486   0.149  0.00  0.00    -0.204 N 
ATOM      7  C10 <0> d           1.294  -0.470   0.042  0.00  0.00     0.687 A 
ENDROOT
BRANCH   7   8
ATOM      8  N3  <0> d           1.621  -1.804   0.088  0.00  0.00    -0.214 N 
ATOM      9  C14 <0> d           0.730  -2.777   0.738  0.00  0.00     0.169 C 
ATOM     10  C13 <0> d           1.553  -3.604   1.732  0.00  0.00     0.254 C 
ATOM     11  N4  <0> d           2.710  -4.187   1.039  0.00  0.00    -0.072 N 
ATOM     12  C12 <0> d           3.610  -3.142   0.533  0.00  0.00     0.254 C 
ATOM     13  C15 <0> d           3.429  -5.124   1.912  0.00  0.00     0.269 C 
ATOM     14  H27 <0> d           2.332  -4.751   0.174  0.00  0.00     0.279 HD
ATOM     15  C11 <0> d           2.868  -2.298  -0.516  0.00  0.00     0.169 C 
ENDBRANCH   7   8
BRANCH   1  16
ATOM     16  C6  <0> d          -1.120  -0.822  -0.266  0.00  0.00     0.060 A 
ATOM     17  C5  <0> d          -2.091  -0.843   0.726  0.00  0.00     0.030 A 
ATOM     18  C4  <0> d          -3.205  -1.648   0.583  0.00  0.00     0.003 A 
ATOM     19  C3  <0> d          -3.353  -2.431  -0.547  0.00  0.00     0.007 A 
ATOM     20  C2  <0> d          -2.388  -2.412  -1.537  0.00  0.00    -0.060 A 
ATOM     21  C1  <0> d          -2.554  -3.266  -2.767  0.00  0.00     0.048 C 
ATOM     22  C7  <0> d          -1.275  -1.605  -1.402  0.00  0.00     0.037 A 
ENDBRANCH   1  16
BRANCH   4  23
ATOM     23  C16 <0> d           1.918   2.570  -1.155  0.00  0.00     0.083 C 
BRANCH  23  24
ATOM     24  C17 <0> d           3.314   3.076  -0.894  0.00  0.00    -0.055 A 
ATOM     25  C22 <0> d           4.406   2.312  -1.262  0.00  0.00     0.007 A 
ATOM     26  C21 <0> d           5.686   2.777  -1.024  0.00  0.00     0.001 A 
ATOM     27  C20 <0> d           5.873   4.005  -0.418  0.00  0.00     0.000 A 
ATOM     28  C19 <0> d           4.781   4.769  -0.051  0.00  0.00     0.001 A 
ATOM     29  C18 <0> d           3.501   4.307  -0.293  0.00  0.00     0.007 A 
ENDBRANCH  23  24
ENDBRANCH   4  23
TORSDOF 4
