REMARK  3 active torsions:
REMARK  status: ('A' for Active; 'I' for Inactive)
REMARK    1  A    between atoms: N2_4  and  C4_6 
REMARK    2  A    between atoms: C7_9  and  C9_12 
REMARK       I    between atoms: C9_12  and  N4_14 
REMARK    3  A    between atoms: N4_14  and  C10_15 
ROOT
ATOM      1  C4  <0> d           1.764  -1.714  -0.025  0.00  0.00     0.149 A 
ATOM      2  C5  <0> d           3.133  -1.962  -0.034  0.00  0.00     0.053 A 
ATOM      3  C6  <0> d           3.582  -3.267  -0.045  0.00  0.00     0.022 A 
ATOM      4  C7  <0> d           2.632  -4.298  -0.048  0.00  0.00     0.050 A 
ATOM      5  C8  <0> d           1.276  -3.969  -0.038  0.00  0.00     0.136 A 
ATOM      6  N3  <0> d           0.891  -2.711  -0.022  0.00  0.00    -0.240 NA
ENDROOT
BRANCH   4   7
ATOM      7  C9  <0> d           3.061  -5.711  -0.060  0.00  0.00     0.259 C 
ATOM      8  O1  <0> d           4.245  -5.987  -0.069  0.00  0.00    -0.267 OA
ATOM      9  N4  <0> d           2.139  -6.695  -0.062  0.00  0.00    -0.301 N 
ATOM     10  H7  <0> d           1.194  -6.474  -0.056  0.00  0.00     0.171 HD
BRANCH   9  11
ATOM     11  C10 <0> d           2.542  -8.024  -0.074  0.00  0.00     0.173 A 
ATOM     12  S1  <0> d           1.583  -9.407  -0.079  0.00  0.00    -0.062 SA
ATOM     13  C12 <0> d           2.896 -10.617  -0.096  0.00  0.00     0.072 A 
ATOM     14  C11 <0> d           3.985  -9.809  -0.090  0.00  0.00     0.126 A 
ATOM     15  N5  <0> d           3.766  -8.507  -0.079  0.00  0.00    -0.236 NA
ENDBRANCH   9  11
ENDBRANCH   4   7
BRANCH   1  16
ATOM     16  N2  <0> d           1.303  -0.398  -0.013  0.00  0.00    -0.227 N 
ATOM     17  N1  <0> d           2.099   0.755  -0.014  0.00  0.00    -0.179 NA
ATOM     18  C2  <0> d           1.309   1.798  -0.001  0.00  0.00     0.141 A 
ATOM     19  C1  <0> d          -0.016   1.348   0.009  0.00  0.00     0.040 A 
ATOM     20  C3  <0> d           0.002  -0.004   0.002  0.00  0.00     0.122 A 
ENDBRANCH   1  16
TORSDOF 3
