REMARK  4 active torsions:
REMARK  status: ('A' for Active; 'I' for Inactive)
REMARK    1  A    between atoms: C3_3  and  C14_24 
REMARK    2  A    between atoms: C5_6  and  N2_9 
REMARK       I    between atoms: N2_9  and  C7_10 
REMARK    3  A    between atoms: C7_10  and  C8_12 
REMARK    4  A    between atoms: C10_14  and  C12_18 
ROOT
ATOM      1  N2  <0> d          -0.824   3.943   1.559  0.00  0.00    -0.340 N 
ATOM      2  C7  <0> d          -1.516   4.087   2.707  0.00  0.00     0.270 C 
ATOM      3  O2  <0> d          -1.179   3.474   3.701  0.00  0.00    -0.266 OA
ATOM      4  H6  <0> d          -1.141   4.366   0.745  0.00  0.00     0.163 HD
ENDROOT
BRANCH   1   5
ATOM      5  C5  <0> d           0.406   3.147   1.540  0.00  0.00     0.211 C 
ATOM      6  C4  <0> d           0.755   2.567   0.182  0.00  0.00     0.187 C 
ATOM      7  N1  <0> d           2.078   3.245   0.254  0.00  0.00    -0.293 N 
ATOM      8  S1  <0> d           1.114   0.777   0.160  0.00  0.00    -0.136 SA
ATOM      9  C3  <0> d           3.228   2.949  -0.490  0.00  0.00     0.118 C 
ATOM     10  C6  <0> d           1.663   3.948   1.301  0.00  0.00     0.251 C 
ATOM     11  C2  <0> d           3.342   1.782  -1.108  0.00  0.00    -0.041 C 
ATOM     12  C1  <0> d           4.642   1.544  -1.832  0.00  0.00     0.047 C 
ATOM     13  C13 <0> d           2.344   0.672  -1.177  0.00  0.00     0.112 C 
ATOM     14  O1  <0> d           2.135   4.909   1.872  0.00  0.00    -0.271 OA
BRANCH   9  15
ATOM     15  C14 <0> d           4.315   3.940  -0.587  0.00  0.00     0.227 C 
ATOM     16  O3  <0> d           4.213   5.011  -0.022  0.00  0.00    -0.643 OA
ATOM     17  O4  <0> d           5.422   3.659  -1.302  0.00  0.00    -0.643 OA
ENDBRANCH   9  15
ENDBRANCH   1   5
BRANCH   2  18
ATOM     18  C8  <0> d          -2.679   4.987   2.756  0.00  0.00     0.122 A 
ATOM     19  N4  <0> d          -3.431   5.295   3.854  0.00  0.00    -0.268 N 
ATOM     20  N3  <0> d          -4.362   6.115   3.523  0.00  0.00    -0.168 NA
ATOM     21  C11 <0> d          -3.208   4.772   5.204  0.00  0.00     0.180 C 
ATOM     22  C10 <0> d          -4.308   6.393   2.245  0.00  0.00     0.163 A 
ATOM     23  C9  <0> d          -3.234   5.687   1.699  0.00  0.00     0.075 A 
BRANCH  22  24
ATOM     24  C12 <0> d          -5.239   7.311   1.496  0.00  0.00     0.436 C 
ATOM     25  F1  <0> d          -6.326   6.577   1.009  0.00  0.00    -0.165 F 
ATOM     26  F2  <0> d          -5.701   8.311   2.359  0.00  0.00    -0.165 F 
ATOM     27  F3  <0> d          -4.555   7.897   0.426  0.00  0.00    -0.165 F 
ENDBRANCH  22  24
ENDBRANCH   2  18
TORSDOF 4
