REMARK  10 active torsions:
REMARK  status: ('A' for Active; 'I' for Inactive)
REMARK    1  A    between atoms: C4_4  and  S1_23 
REMARK    2  A    between atoms: C5_5  and  N1_7 
REMARK       I    between atoms: N1_7  and  C7_8 
REMARK    3  A    between atoms: C7_8  and  C8_10 
REMARK       I    between atoms: C8_10  and  N2_12 
REMARK    4  A    between atoms: N2_12  and  C9_13 
REMARK    5  A    between atoms: C9_13  and  C10_14 
REMARK    6  A    between atoms: C10_14  and  C11_15 
REMARK    7  A    between atoms: C10_14  and  O3_22 
REMARK    8  A    between atoms: C11_15  and  N3_16 
REMARK    9  A    between atoms: S1_23  and  C17_24 
REMARK   10  A    between atoms: C17_24  and  C18_25 
ROOT
ATOM      1  N1  <0> d           1.207  -2.024   0.481  0.00  0.00    -0.318 N 
ATOM      2  C7  <0> d           0.059  -2.728   0.524  0.00  0.00     0.314 C 
ATOM      3  O1  <0> d          -1.008  -2.148   0.564  0.00  0.00    -0.262 OA
ATOM      4  H6  <0> d           2.054  -2.484   0.371  0.00  0.00     0.169 HD
ENDROOT
BRANCH   2   5
ATOM      5  C8  <0> d           0.097  -4.221   0.524  0.00  0.00     0.309 C 
ATOM      6  O2  <0> d           1.163  -4.800   0.485  0.00  0.00    -0.262 OA
ATOM      7  N2  <0> d          -1.051  -4.925   0.567  0.00  0.00    -0.350 N 
ATOM      8  H7  <0> d          -1.903  -4.461   0.599  0.00  0.00     0.162 HD
BRANCH   7   9
ATOM      9  C9  <0> d          -1.013  -6.389   0.567  0.00  0.00     0.156 C 
BRANCH   9  10
ATOM     10  C10 <0> d          -2.441  -6.936   0.620  0.00  0.00     0.161 C 
BRANCH  10  11
ATOM     11  C11 <0> d          -2.399  -8.460   0.746  0.00  0.00     0.268 C 
BRANCH  11  12
ATOM     12  N3  <0> d          -3.768  -8.991   0.734  0.00  0.00    -0.069 N 
ATOM     13  C16 <0> d          -4.478  -8.537   1.936  0.00  0.00     0.235 C 
ATOM     14  C15 <0> d          -5.929  -9.020   1.890  0.00  0.00     0.028 C 
ATOM     15  C14 <0> d          -5.951 -10.550   1.829  0.00  0.00     0.003 C 
ATOM     16  C13 <0> d          -5.146 -11.014   0.612  0.00  0.00     0.028 C 
ATOM     17  C12 <0> d          -3.723 -10.458   0.706  0.00  0.00     0.235 C 
ATOM     18  H25 <0> d          -4.251  -8.656  -0.086  0.00  0.00     0.280 HD
ENDBRANCH  11  12
ENDBRANCH  10  11
BRANCH  10  19
ATOM     19  O3  <0> d          -3.135  -6.576  -0.576  0.00  0.00    -0.392 OA
ATOM     20  H22 <0> d          -2.728  -6.917  -1.384  0.00  0.00     0.210 HD
ENDBRANCH  10  19
ENDBRANCH   9  10
ENDBRANCH   7   9
ENDBRANCH   2   5
BRANCH   1  21
ATOM     21  C5  <0> d           1.178  -0.630   0.595  0.00  0.00     0.052 A 
ATOM     22  C4  <0> d           2.215   0.138   0.062  0.00  0.00     0.027 A 
ATOM     23  C3  <0> d           2.179   1.520   0.179  0.00  0.00     0.021 A 
ATOM     24  C2  <0> d           1.118   2.132   0.820  0.00  0.00     0.002 A 
ATOM     25  C1  <0> d           0.091   1.371   1.347  0.00  0.00     0.002 A 
ATOM     26  C6  <0> d           0.118  -0.006   1.237  0.00  0.00     0.031 A 
BRANCH  22  27
ATOM     27  S1  <0> d           3.565  -0.645  -0.755  0.00  0.00    -0.119 SA
BRANCH  27  28
ATOM     28  C17 <0> d           4.630   0.733  -1.262  0.00  0.00     0.196 C 
BRANCH  28  29
ATOM     29  C18 <0> d           5.858   0.186  -1.994  0.00  0.00     0.396 C 
ATOM     30  F1  <0> d           5.447  -0.527  -3.125  0.00  0.00    -0.170 F 
ATOM     31  F2  <0> d           6.679   1.249  -2.384  0.00  0.00    -0.170 F 
ATOM     32  F3  <0> d           6.569  -0.664  -1.140  0.00  0.00    -0.170 F 
ENDBRANCH  28  29
ENDBRANCH  27  28
ENDBRANCH  22  27
ENDBRANCH   1  21
TORSDOF 10
