REMARK  5 active torsions:
REMARK  status: ('A' for Active; 'I' for Inactive)
REMARK    1  A    between atoms: C3_3  and  C10_13 
REMARK    2  A    between atoms: C10_13  and  C11_14 
REMARK    3  A    between atoms: C10_13  and  O3_32 
REMARK    4  A    between atoms: C11_14  and  N2_15 
REMARK    5  A    between atoms: C18_22  and  O2_31 
ROOT
ATOM      1  N2  <0> d           2.091   1.471  -2.434  0.00  0.00    -0.068 N 
ATOM      2  C12 <0> d           1.857   2.920  -2.452  0.00  0.00     0.238 C 
ATOM      3  C13 <0> d           1.359   3.340  -3.837  0.00  0.00     0.066 C 
ATOM      4  C14 <0> d           2.402   2.958  -4.887  0.00  0.00     0.073 C 
ATOM      5  C15 <0> d           2.671   1.453  -4.814  0.00  0.00     0.066 C 
ATOM      6  C16 <0> d           3.129   1.089  -3.400  0.00  0.00     0.238 C 
ATOM      7  C17 <0> d           1.880   3.316  -6.283  0.00  0.00     0.075 C 
ATOM      8  C18 <0> d           1.518   4.803  -6.295  0.00  0.00     0.157 C 
ATOM      9  C19 <0> d           2.649   5.605  -5.702  0.00  0.00     0.005 A 
ATOM     10  C20 <0> d           2.702   6.966  -5.952  0.00  0.00     0.036 A 
ATOM     11  C21 <0> d           3.720   7.734  -5.419  0.00  0.00     0.034 A 
ATOM     12  C22 <0> d           4.693   7.142  -4.632  0.00  0.00     0.026 A 
ATOM     13  C23 <0> d           4.645   5.786  -4.383  0.00  0.00     0.039 A 
ATOM     14  C24 <0> d           3.622   5.010  -4.918  0.00  0.00     0.078 A 
ATOM     15  O1  <0> d           3.611   3.677  -4.653  0.00  0.00    -0.339 OA
ATOM     16 Cl1  <0> d           3.780   9.440  -5.736  0.00  0.00    -0.084 Cl
ATOM     17  H27 <0> d           1.156   0.976  -2.733  0.00  0.00     0.280 HD
ENDROOT
BRANCH   1  18
ATOM     18  C11 <0> d           2.435   1.010  -1.082  0.00  0.00     0.271 C 
BRANCH  18  19
ATOM     19  C10 <0> d           1.386   1.514  -0.089  0.00  0.00     0.179 C 
BRANCH  19  20
ATOM     20  C3  <0> d           1.733   1.032   1.296  0.00  0.00     0.007 A 
ATOM     21  C2  <0> d           2.242   1.772   2.294  0.00  0.00     0.015 A 
ATOM     22  C1  <0> d           2.562   3.242   2.205  0.00  0.00     0.069 C 
ATOM     23  N1  <0> d           2.425   0.995   3.405  0.00  0.00    -0.359 N 
ATOM     24  C9  <0> d           2.035  -0.300   3.139  0.00  0.00     0.043 A 
ATOM     25  H1  <0> d           2.830   1.438   4.326  0.00  0.00     0.166 HD
ATOM     26  C4  <0> d           1.585  -0.333   1.807  0.00  0.00     0.004 A 
ATOM     27  C8  <0> d           2.015  -1.467   3.896  0.00  0.00     0.033 A 
ATOM     28  C5  <0> d           1.124  -1.530   1.255  0.00  0.00     0.056 A 
ATOM     29  C6  <0> d           1.113  -2.674   2.023  0.00  0.00     0.117 A 
ATOM     30  C7  <0> d           1.558  -2.641   3.339  0.00  0.00     0.044 A 
ATOM     31  F1  <0> d           0.667  -3.834   1.493  0.00  0.00    -0.206 F 
ENDBRANCH  19  20
BRANCH  19  32
ATOM     32  O3  <0> d           0.100   1.011  -0.459  0.00  0.00    -0.389 OA
ATOM     33  H26 <0> d          -0.325   1.259  -1.443  0.00  0.00     0.210 HD
ENDBRANCH  19  32
ENDBRANCH  18  19
ENDBRANCH   1  18
BRANCH   8  34
ATOM     34  O2  <0> d           1.288   5.226  -7.640  0.00  0.00    -0.391 OA
ATOM     35  H25 <0> d           1.015   6.271  -7.849  0.00  0.00     0.210 HD
ENDBRANCH   8  34
TORSDOF 5
