REMARK  3 active torsions:
REMARK  status: ('A' for Active; 'I' for Inactive)
REMARK    1  A    between atoms: C6_6  and  N1_7 
REMARK    2  A    between atoms: N1_7  and  S1_8 
REMARK    3  A    between atoms: S1_8  and  C7_11 
ROOT
ATOM      1  C7  <0> d          -0.128  -3.226  -0.377  0.00  0.00     0.082 A 
ATOM      2  C8  <0> d           1.269  -3.128  -0.782  0.00  0.00     0.028 A 
ATOM      3  C9  <0> d           2.203  -4.004  -0.351  0.00  0.00     0.033 A 
ATOM      4  C10 <0> d           1.814  -5.087   0.550  0.00  0.00     0.063 A 
ATOM      5  N2  <0> d           2.446  -6.073   1.135  0.00  0.00    -0.307 N 
ATOM      6  C11 <0> d           1.539  -6.786   1.883  0.00  0.00     0.325 A 
ATOM      7  O3  <0> d           1.802  -7.764   2.551  0.00  0.00    -0.247 OA
ATOM      8  N3  <0> d           0.290  -6.224   1.761  0.00  0.00    -0.306 N 
ATOM      9  C12 <0> d           0.379  -5.187   0.967  0.00  0.00     0.064 A 
ATOM     10  C13 <0> d          -0.565  -4.195   0.457  0.00  0.00     0.057 A 
ATOM     11  H9  <0> d          -0.519  -6.542   2.191  0.00  0.00     0.170 HD
ATOM     12  H10 <0> d           3.393  -6.268   1.055  0.00  0.00     0.170 HD
ENDROOT
BRANCH   1  13
ATOM     13  S1  <0> d          -1.280  -2.040  -0.987  0.00  0.00     0.263 S 
ATOM     14  O1  <0> d          -2.573  -2.601  -0.808  0.00  0.00    -0.200 OA
ATOM     15  O2  <0> d          -0.799  -1.624  -2.257  0.00  0.00    -0.200 OA
BRANCH  13  16
ATOM     16  N1  <0> d          -1.195  -0.719   0.008  0.00  0.00    -0.281 N 
ATOM     17  H5  <0> d          -0.922   0.140  -0.349  0.00  0.00     0.179 HD
BRANCH  16  18
ATOM     18  C6  <0> d          -1.517  -0.842   1.362  0.00  0.00     0.042 A 
ATOM     19  C1  <0> d          -0.690  -0.283   2.328  0.00  0.00     0.032 A 
ATOM     20  C2  <0> d          -1.010  -0.406   3.665  0.00  0.00     0.026 A 
ATOM     21  C3  <0> d          -2.154  -1.086   4.044  0.00  0.00     0.034 A 
ATOM     22  C4  <0> d          -2.980  -1.645   3.085  0.00  0.00     0.026 A 
ATOM     23 Cl1  <0> d          -2.553  -1.239   5.727  0.00  0.00    -0.084 Cl
ATOM     24  C5  <0> d          -2.664  -1.525   1.746  0.00  0.00     0.032 A 
ENDBRANCH  16  18
ENDBRANCH  13  16
ENDBRANCH   1  13
TORSDOF 3
