REMARK  9 active torsions:
REMARK  status: ('A' for Active; 'I' for Inactive)
REMARK    1  A    between atoms: C5_5  and  C8_9 
REMARK    2  A    between atoms: C6_6  and  O1_8 
REMARK    3  A    between atoms: N3_17  and  C20_28 
REMARK    4  A    between atoms: C12_18  and  C13_19 
REMARK    5  A    between atoms: C16_22  and  O4_27 
REMARK    6  A    between atoms: C17_23  and  O3_25 
REMARK    7  A    between atoms: C20_28  and  C21_29 
REMARK    8  A    between atoms: C21_29  and  C22_30 
REMARK    9  A    between atoms: C22_30  and  O5_31 
ROOT
ATOM      1  C8  <0> d           0.105  -4.354  -0.125  0.00  0.00     0.101 A 
ATOM      2  C9  <0> d           0.199  -5.155   1.019  0.00  0.00     0.034 A 
ATOM      3  C10 <0> d           0.168  -6.460   0.568  0.00  0.00     0.129 A 
ATOM      4  N1  <0> d           0.060  -6.390  -0.792  0.00  0.00    -0.272 N 
ATOM      5  H1  <0> d           0.015  -7.154  -1.388  0.00  0.00     0.189 HD
ATOM      6  N2  <0> d           0.020  -5.160  -1.165  0.00  0.00    -0.173 NA
ATOM      7  C11 <0> d           0.263  -7.356   1.726  0.00  0.00     0.273 A 
ATOM      8  O2  <0> d           0.263  -8.571   1.666  0.00  0.00    -0.266 OA
ATOM      9  N3  <0> d           0.351  -6.644   2.863  0.00  0.00    -0.334 N 
ATOM     10  C12 <0> d           0.319  -5.217   2.517  0.00  0.00     0.159 A 
ENDROOT
BRANCH   1  11
ATOM     11  C5  <0> d           0.096  -2.870  -0.160  0.00  0.00     0.034 A 
ATOM     12  C4  <0> d           0.951  -2.187  -1.021  0.00  0.00    -0.046 A 
ATOM     13  C3  <0> d           0.939  -0.807  -1.051  0.00  0.00     0.014 A 
ATOM     14  C23 <0> d           1.888  -2.952  -1.919  0.00  0.00     0.049 C 
ATOM     15  C2  <0> d           0.080  -0.100  -0.228  0.00  0.00    -0.059 A 
ATOM     16  C1  <0> d           0.074   1.407  -0.267  0.00  0.00     0.048 C 
ATOM     17  C7  <0> d          -0.768  -0.768   0.634  0.00  0.00     0.044 A 
ATOM     18  C6  <0> d          -0.770  -2.154   0.670  0.00  0.00     0.079 A 
BRANCH  18  19
ATOM     19  O1  <0> d          -1.607  -2.812   1.512  0.00  0.00    -0.360 OA
ATOM     20  H8  <0> d          -1.264  -2.912   2.411  0.00  0.00     0.217 HD
ENDBRANCH  18  19
ENDBRANCH   1  11
BRANCH  10  21
ATOM     21  C13 <0> d           1.591  -4.545   2.964  0.00  0.00    -0.028 A 
ATOM     22  C18 <0> d           1.535  -3.333   3.627  0.00  0.00     0.049 A 
ATOM     23  C17 <0> d           2.704  -2.716   4.043  0.00  0.00     0.101 A 
ATOM     24  C16 <0> d           3.933  -3.314   3.783  0.00  0.00     0.099 A 
ATOM     25  C15 <0> d           3.983  -4.526   3.113  0.00  0.00     0.040 A 
ATOM     26  C14 <0> d           2.812  -5.138   2.705  0.00  0.00     0.012 A 
BRANCH  23  27
ATOM     27  O3  <0> d           2.650  -1.527   4.700  0.00  0.00    -0.353 OA
ATOM     28  C19 <0> d           1.354  -0.972   4.933  0.00  0.00     0.210 C 
ENDBRANCH  23  27
BRANCH  24  29
ATOM     29  O4  <0> d           5.083  -2.710   4.186  0.00  0.00    -0.358 OA
ATOM     30  H15 <0> d           5.461  -2.107   3.530  0.00  0.00     0.217 HD
ENDBRANCH  24  29
ENDBRANCH  10  21
BRANCH   9  31
ATOM     31  C20 <0> d           0.459  -7.196   4.216  0.00  0.00     0.129 C 
BRANCH  31  32
ATOM     32  C21 <0> d           1.935  -7.383   4.574  0.00  0.00     0.046 C 
BRANCH  32  33
ATOM     33  C22 <0> d           2.047  -7.960   5.986  0.00  0.00     0.165 C 
BRANCH  33  34
ATOM     34  O5  <0> d           3.426  -8.135   6.321  0.00  0.00    -0.401 OA
ATOM     35  H22 <0> d           3.573  -8.498   7.205  0.00  0.00     0.209 HD
ENDBRANCH  33  34
ENDBRANCH  32  33
ENDBRANCH  31  32
ENDBRANCH   9  31
TORSDOF 9
