REMARK  5 active torsions:
REMARK  status: ('A' for Active; 'I' for Inactive)
REMARK    1  A    between atoms: C2_2  and  C3_3 
REMARK    2  A    between atoms: C2_2  and  N3_26 
REMARK    3  A    between atoms: C5_8  and  C6_9 
REMARK    4  A    between atoms: C11_14  and  O1_19 
REMARK    5  A    between atoms: C17_21  and  N3_26 
ROOT
ATOM      1  C3  <0> d           2.748  -0.127   0.696  0.00  0.00     0.016 A 
ATOM      2  C4  <0> d           4.044  -0.419   0.453  0.00  0.00     0.120 A 
ATOM      3  N1  <0> d           4.508   0.466  -0.455  0.00  0.00    -0.288 N 
ATOM      4  H1  <0> d           5.437   0.497  -0.823  0.00  0.00     0.188 HD
ATOM      5  N2  <0> d           3.462   1.335  -0.790  0.00  0.00    -0.174 NA
ATOM      6  C5  <0> d           2.398   0.980  -0.102  0.00  0.00     0.096 A 
ENDROOT
BRANCH   6   7
ATOM      7  C6  <0> d           1.067   1.633  -0.154  0.00  0.00    -0.004 A 
ATOM      8  C15 <0> d           0.980   3.013  -0.155  0.00  0.00     0.026 A 
ATOM      9  C14 <0> d          -0.281   3.626  -0.204  0.00  0.00    -0.025 A 
ATOM     10  C9  <0> d          -1.447   2.820  -0.251  0.00  0.00    -0.023 A 
ATOM     11  C13 <0> d          -0.409   5.027  -0.206  0.00  0.00     0.015 A 
ATOM     12  C8  <0> d          -1.324   1.418  -0.254  0.00  0.00     0.013 A 
ATOM     13  C10 <0> d          -2.708   3.436  -0.299  0.00  0.00     0.049 A 
ATOM     14  C7  <0> d          -0.095   0.845  -0.201  0.00  0.00     0.014 A 
ATOM     15  C11 <0> d          -2.796   4.799  -0.300  0.00  0.00     0.069 A 
ATOM     16  C12 <0> d          -1.644   5.592  -0.253  0.00  0.00     0.037 A 
BRANCH  15  17
ATOM     17  O1  <0> d          -4.017   5.393  -0.347  0.00  0.00    -0.356 OA
ATOM     18  C16 <0> d          -4.044   6.821  -0.345  0.00  0.00     0.210 C 
ENDBRANCH  15  17
ENDBRANCH   6   7
BRANCH   1  19
ATOM     19  C2  <0> d           1.837  -0.856   1.650  0.00  0.00     0.277 C 
BRANCH  19  20
ATOM     20  N3  <0> d           1.621  -0.013   2.844  0.00  0.00    -0.065 N 
ATOM     21  C1  <0> d           2.897   0.178   3.565  0.00  0.00     0.270 C 
ATOM     22  H24 <0> d           1.266   0.903   2.546  0.00  0.00     0.280 HD
BRANCH  20  23
ATOM     23  C17 <0> d           0.626  -0.645   3.736  0.00  0.00     0.213 C 
ATOM     24  C20 <0> d          -0.741  -0.747   3.026  0.00  0.00     0.201 C 
ATOM     25  O2  <0> d          -1.752  -0.406   3.981  0.00  0.00    -0.389 OA
ATOM     26  C19 <0> d          -1.149  -0.133   5.256  0.00  0.00     0.169 C 
ATOM     27  C18 <0> d           0.306   0.290   4.934  0.00  0.00     0.061 C 
ENDBRANCH  20  23
ENDBRANCH  19  20
ENDBRANCH   1  19
TORSDOF 5
