REMARK  4 active torsions:
REMARK  status: ('A' for Active; 'I' for Inactive)
REMARK    1  A    between atoms: C2_2  and  N1_3 
REMARK    2  A    between atoms: C4_5  and  S1_9 
REMARK    3  A    between atoms: S1_9  and  N3_12 
REMARK    4  A    between atoms: N3_12  and  C7_13 
ROOT
ATOM      1  S1  <0> d          -2.114   4.327   3.087  0.00  0.00     0.263 S 
ATOM      2  O1  <0> d          -3.266   4.463   3.907  0.00  0.00    -0.200 OA
ATOM      3  O2  <0> d          -0.857   3.911   3.602  0.00  0.00    -0.200 OA
ENDROOT
BRANCH   1   4
ATOM      4  C4  <0> d          -1.852   5.893   2.323  0.00  0.00     0.129 A 
ATOM      5  C3  <0> d          -0.674   6.361   1.849  0.00  0.00     0.052 A 
ATOM      6  N1  <0> d          -0.894   7.591   1.341  0.00  0.00    -0.273 N 
ATOM      7  C11 <0> d           0.647   5.635   1.879  0.00  0.00     0.072 C 
ATOM      8  N2  <0> d          -2.250   7.894   1.517  0.00  0.00    -0.176 NA
ATOM      9  C5  <0> d          -2.823   6.875   2.106  0.00  0.00     0.076 A 
ATOM     10  C6  <0> d          -4.279   6.778   2.484  0.00  0.00     0.074 C 
BRANCH   6  11
ATOM     11  C2  <0> d           0.110   8.460   0.721  0.00  0.00     0.147 C 
ATOM     12  C1  <0> d           0.755   9.340   1.793  0.00  0.00     0.028 C 
ENDBRANCH   6  11
ENDBRANCH   1   4
BRANCH   1  13
ATOM     13  N3  <0> d          -2.511   3.257   1.887  0.00  0.00    -0.310 N 
ATOM     14  H10 <0> d          -3.557   2.933   1.780  0.00  0.00     0.172 HD
BRANCH  13  15
ATOM     15  C7  <0> d          -1.530   2.921   0.851  0.00  0.00     0.108 C 
ATOM     16  C10 <0> d          -2.256   2.700  -0.507  0.00  0.00     0.166 C 
ATOM     17  S2  <0> d          -0.978   1.733  -1.417  0.00  0.00     0.146 S 
ATOM     18  C9  <0> d          -0.013   1.086   0.008  0.00  0.00     0.142 C 
ATOM     19  O3  <0> d          -0.163   2.628  -2.160  0.00  0.00    -0.228 OA
ATOM     20  O4  <0> d          -1.607   0.645  -2.082  0.00  0.00    -0.228 OA
ATOM     21  C8  <0> d          -0.802   1.617   1.228  0.00  0.00     0.041 C 
ENDBRANCH  13  15
ENDBRANCH   1  13
TORSDOF 4
