REMARK  2 active torsions:
REMARK  status: ('A' for Active; 'I' for Inactive)
REMARK    1  A    between atoms: C6_6  and  N1_8 
REMARK    2  A    between atoms: C10_12  and  C11_13 
ROOT
ATOM      1  N1  <0> d          -1.048  -3.007   2.232  0.00  0.00    -0.228 N 
ATOM      2  C8  <0> d          -0.643  -4.295   2.276  0.00  0.00     0.270 A 
ATOM      3  O1  <0> d          -0.420  -4.920   1.257  0.00  0.00    -0.266 OA
ATOM      4  C9  <0> d          -0.482  -4.921   3.611  0.00  0.00     0.087 A 
ATOM      5  C10 <0> d          -0.081  -6.205   3.747  0.00  0.00     0.024 C 
ATOM      6  C19 <0> d          -0.779  -4.074   4.786  0.00  0.00     0.220 A 
ATOM      7  O2  <0> d          -0.658  -4.562   6.038  0.00  0.00    -0.169 OA
ATOM      8  N3  <0> d          -1.165  -2.829   4.581  0.00  0.00    -0.165 NA
ATOM      9  C20 <0> d          -1.289  -2.318   3.357  0.00  0.00     0.358 A 
ATOM     10  O3  <0> d          -1.646  -1.159   3.253  0.00  0.00    -0.244 OA
ENDROOT
BRANCH   5  11
ATOM     11  C11 <0> d          -0.171  -6.885   5.089  0.00  0.00     0.130 A 
ATOM     12  N2  <0> d          -0.818  -8.194   4.950  0.00  0.00    -0.378 N 
ATOM     13  C18 <0> d           0.028  -9.120   5.338  0.00  0.00     0.038 A 
ATOM     14  H15 <0> d          -1.719  -8.349   4.627  0.00  0.00     0.160 HD
ATOM     15  C13 <0> d           1.304  -8.503   5.766  0.00  0.00    -0.011 A 
ATOM     16  C17 <0> d          -0.084 -10.536   5.406  0.00  0.00     0.030 A 
ATOM     17  C12 <0> d           1.215  -7.160   5.628  0.00  0.00     0.016 A 
ATOM     18  C14 <0> d           2.378  -9.385   6.236  0.00  0.00     0.013 A 
ATOM     19  C15 <0> d           2.167 -10.720   6.261  0.00  0.00     0.001 A 
ATOM     20  C16 <0> d           0.950 -11.282   5.850  0.00  0.00     0.002 A 
ENDBRANCH   5  11
BRANCH   1  21
ATOM     21  C6  <0> d          -1.212  -2.379   0.991  0.00  0.00     0.048 A 
ATOM     22  C5  <0> d          -0.429  -1.282   0.657  0.00  0.00     0.030 A 
ATOM     23  C4  <0> d          -0.594  -0.665  -0.568  0.00  0.00     0.003 A 
ATOM     24  C3  <0> d          -1.536  -1.139  -1.461  0.00  0.00     0.007 A 
ATOM     25  C2  <0> d          -2.317  -2.232  -1.132  0.00  0.00    -0.060 A 
ATOM     26  C1  <0> d          -3.344  -2.745  -2.109  0.00  0.00     0.048 C 
ATOM     27  C7  <0> d          -2.161  -2.850   0.093  0.00  0.00     0.037 A 
ENDBRANCH   1  21
TORSDOF 2
