REMARK  5 active torsions:
REMARK  status: ('A' for Active; 'I' for Inactive)
REMARK    1  A    between atoms: C3_3  and  N1_8 
REMARK    2  A    between atoms: N1_8  and  C7_9 
REMARK    3  A    between atoms: C8_10  and  N5_25 
REMARK    4  A    between atoms: C9_11  and  N4_15 
REMARK    5  A    between atoms: N4_15  and  C11_16 
ROOT
ATOM      1  C7  <0> d           4.786   1.425   0.398  0.00  0.00     0.159 A 
ATOM      2  C8  <0> d           5.987   2.136   0.331  0.00  0.00     0.119 A 
ATOM      3  C9  <0> d           7.182   1.421   0.425  0.00  0.00     0.159 A 
ATOM      4  N2  <0> d           7.132   0.099   0.575  0.00  0.00    -0.222 NA
ATOM      5  C10 <0> d           5.978  -0.533   0.633  0.00  0.00     0.237 A 
ATOM      6  N3  <0> d           4.827   0.104   0.553  0.00  0.00    -0.222 NA
ENDROOT
BRANCH   3   7
ATOM      7  N4  <0> d           8.405   2.079   0.364  0.00  0.00    -0.339 N 
ATOM      8  H7  <0> d           8.433   3.048   0.334  0.00  0.00     0.167 HD
BRANCH   7   9
ATOM      9  C11 <0> d           9.595   1.343   0.346  0.00  0.00     0.036 A 
ATOM     10  C16 <0> d           9.634   0.100  -0.271  0.00  0.00     0.069 A 
ATOM     11  C15 <0> d          10.814  -0.625  -0.294  0.00  0.00     0.107 A 
ATOM     12  C14 <0> d          11.957  -0.110   0.312  0.00  0.00     0.105 A 
ATOM     13  O1  <0> d          11.115  -1.845  -0.828  0.00  0.00    -0.323 OA
ATOM     14  C13 <0> d          11.913   1.129   0.933  0.00  0.00     0.042 A 
ATOM     15  O2  <0> d          12.975  -1.008   0.158  0.00  0.00    -0.323 OA
ATOM     16  C12 <0> d          10.737   1.854   0.950  0.00  0.00     0.032 A 
ATOM     17  C17 <0> d          12.553  -1.889  -0.899  0.00  0.00     0.352 C 
ENDBRANCH   7   9
ENDBRANCH   3   7
BRANCH   2  18
ATOM     18  N5  <0> d           5.991   3.531   0.172  0.00  0.00    -0.393 N 
ATOM     19  H13 <0> d           5.153   4.014   0.107  0.00  0.00     0.156 HD
ATOM     20  H14 <0> d           6.833   4.011   0.127  0.00  0.00     0.156 HD
ENDBRANCH   2  18
BRANCH   1  21
ATOM     21  N1  <0> d           3.567   2.088   0.309  0.00  0.00    -0.339 N 
ATOM     22  H5  <0> d           3.546   3.041   0.125  0.00  0.00     0.167 HD
BRANCH  21  23
ATOM     23  C3  <0> d           2.374   1.383   0.485  0.00  0.00     0.035 A 
ATOM     24  C2  <0> d           2.324   0.306   1.361  0.00  0.00     0.029 A 
ATOM     25  C1  <0> d           1.143  -0.389   1.533  0.00  0.00     0.004 A 
ATOM     26  C6  <0> d           0.010  -0.014   0.835  0.00  0.00     0.019 A 
ATOM     27  C5  <0> d           0.056   1.058  -0.039  0.00  0.00     0.013 A 
ATOM     28  C4  <0> d           1.234   1.758  -0.216  0.00  0.00     0.048 A 
ATOM     29 Br1  <0> d          -1.496   1.567  -0.992  0.00  0.00    -0.051 Br
ENDBRANCH  21  23
ENDBRANCH   1  21
TORSDOF 5
