REMARK  6 active torsions:
REMARK  status: ('A' for Active; 'I' for Inactive)
REMARK    1  A    between atoms: C2_2  and  N1_3 
REMARK    2  A    between atoms: C3_4  and  S1_8 
REMARK    3  A    between atoms: S1_8  and  C4_9 
REMARK    4  A    between atoms: C4_9  and  C5_10 
REMARK    5  A    between atoms: C4_9  and  C11_16 
REMARK    6  A    between atoms: C11_16  and  C12_18 
ROOT
ATOM      1  C4  <0> d          -1.671  -1.154   4.547  0.00  0.00     0.163 C 
ENDROOT
BRANCH   1   2
ATOM      2  S1  <0> d          -1.572  -0.629   2.814  0.00  0.00    -0.071 SA
BRANCH   2   3
ATOM      3  C3  <0> d           0.139  -0.781   2.419  0.00  0.00     0.201 A 
ATOM      4  N1  <0> d           0.711  -0.489   1.189  0.00  0.00    -0.271 N 
ATOM      5  N4  <0> d           2.052  -0.740   1.279  0.00  0.00    -0.129 NA
ATOM      6  N3  <0> d           2.292  -1.172   2.555  0.00  0.00    -0.221 N 
ATOM      7  H8  <0> d           2.337  -1.432   0.601  0.00  0.00     0.174 HD
ATOM      8  N2  <0> d           1.066  -1.185   3.231  0.00  0.00    -0.135 NA
ATOM      9  H7  <0> d           3.154  -1.425   2.922  0.00  0.00     0.206 HD
BRANCH   4  10
ATOM     10  C2  <0> d           0.002  -0.004   0.002  0.00  0.00     0.143 C 
ATOM     11  C1  <0> d          -0.019   1.526   0.010  0.00  0.00     0.028 C 
ENDBRANCH   4  10
ENDBRANCH   2   3
ENDBRANCH   1   2
BRANCH   1  12
ATOM     12  C5  <0> d          -0.909  -0.182   5.411  0.00  0.00    -0.036 A 
ATOM     13  C10 <0> d           0.159  -0.622   6.170  0.00  0.00     0.009 A 
ATOM     14  C9  <0> d           0.860   0.271   6.960  0.00  0.00     0.001 A 
ATOM     15  C8  <0> d           0.487   1.601   6.997  0.00  0.00     0.000 A 
ATOM     16  C7  <0> d          -0.584   2.040   6.241  0.00  0.00     0.001 A 
ATOM     17  C6  <0> d          -1.283   1.148   5.449  0.00  0.00     0.009 A 
ENDBRANCH   1  12
BRANCH   1  18
ATOM     18  C11 <0> d          -3.114  -1.188   4.981  0.00  0.00     0.176 C 
ATOM     19  O1  <0> d          -3.933  -0.492   4.416  0.00  0.00    -0.291 OA
BRANCH  18  20
ATOM     20  C12 <0> d          -3.512  -2.028   6.042  0.00  0.00     0.019 A 
ATOM     21  C19 <0> d          -2.635  -2.956   6.853  0.00  0.00     0.163 A 
ATOM     22  N5  <0> d          -3.519  -3.600   7.830  0.00  0.00    -0.385 N 
ATOM     23  C18 <0> d          -4.736  -3.166   7.662  0.00  0.00     0.039 A 
ATOM     24  H20 <0> d          -3.242  -4.250   8.494  0.00  0.00     0.160 HD
ATOM     25  C13 <0> d          -4.788  -2.180   6.555  0.00  0.00     0.002 A 
ATOM     26  C17 <0> d          -5.996  -3.480   8.355  0.00  0.00     0.030 A 
ATOM     27  C14 <0> d          -6.034  -1.596   6.224  0.00  0.00     0.014 A 
ATOM     28  C15 <0> d          -7.149  -1.936   6.909  0.00  0.00     0.001 A 
ATOM     29  C16 <0> d          -7.133  -2.866   7.961  0.00  0.00     0.002 A 
ENDBRANCH  18  20
ENDBRANCH   1  18
TORSDOF 6
