REMARK  6 active torsions:
REMARK  status: ('A' for Active; 'I' for Inactive)
REMARK    1  A    between atoms: C5_5  and  N1_9 
REMARK    2  A    between atoms: C10_11  and  C13_15 
REMARK       I    between atoms: C13_15  and  N2_17 
REMARK    3  A    between atoms: N2_17  and  C14_18 
REMARK    4  A    between atoms: C14_18  and  C15_19 
REMARK    5  A    between atoms: C15_19  and  C16_20 
REMARK    6  A    between atoms: C15_19  and  N3_27 
ROOT
ATOM      1  C13 <0> d          -0.574  -7.554  -1.624  0.00  0.00     0.223 C 
ATOM      2  O2  <0> d          -1.414  -7.329  -2.470  0.00  0.00    -0.273 OA
ATOM      3  N2  <0> d          -0.230  -8.825  -1.337  0.00  0.00    -0.358 N 
ATOM      4  H16 <0> d           0.441  -9.005  -0.661  0.00  0.00     0.162 HD
ENDROOT
BRANCH   1   5
ATOM      5  C10 <0> d           0.085  -6.412  -0.894  0.00  0.00     0.105 C 
ATOM      6  C9  <0> d          -0.463  -5.053  -1.383  0.00  0.00     0.146 C 
ATOM      7  N1  <0> d          -0.513  -4.199  -0.191  0.00  0.00    -0.317 N 
ATOM      8  C12 <0> d          -0.438  -4.928   0.935  0.00  0.00     0.225 C 
ATOM      9  C11 <0> d          -0.325  -6.398   0.597  0.00  0.00     0.119 C 
ATOM     10  O1  <0> d          -0.459  -4.474   2.060  0.00  0.00    -0.273 OA
BRANCH   7  11
ATOM     11  C5  <0> d          -0.621  -2.804  -0.224  0.00  0.00     0.037 A 
ATOM     12  C4  <0> d          -0.776  -2.091   0.958  0.00  0.00     0.030 A 
ATOM     13  C3  <0> d          -0.881  -0.714   0.923  0.00  0.00     0.009 A 
ATOM     14  C2  <0> d          -0.832  -0.046  -0.287  0.00  0.00    -0.056 A 
ATOM     15  C1  <0> d          -0.947   1.456  -0.322  0.00  0.00     0.049 C 
ATOM     16  C7  <0> d          -0.683  -0.754  -1.466  0.00  0.00    -0.054 A 
ATOM     17  C6  <0> d          -0.572  -2.131  -1.437  0.00  0.00     0.037 A 
ATOM     18  C8  <0> d          -0.636  -0.023  -2.782  0.00  0.00     0.049 C 
ENDBRANCH   7  11
ENDBRANCH   1   5
BRANCH   3  19
ATOM     19  C14 <0> d          -0.871  -9.935  -2.047  0.00  0.00     0.160 C 
BRANCH  19  20
ATOM     20  C15 <0> d          -0.399 -11.263  -1.450  0.00  0.00     0.239 C 
BRANCH  20  21
ATOM     21  C16 <0> d           1.074 -11.438  -1.717  0.00  0.00    -0.004 A 
ATOM     22  C21 <0> d           1.506 -11.880  -2.954  0.00  0.00     0.042 A 
ATOM     23  C20 <0> d           2.859 -12.035  -3.200  0.00  0.00     0.024 A 
ATOM     24 Cl1  <0> d           0.351 -12.234  -4.201  0.00  0.00    -0.084 Cl
ATOM     25  C19 <0> d           3.777 -11.759  -2.205  0.00  0.00     0.002 A 
ATOM     26  C18 <0> d           3.345 -11.322  -0.967  0.00  0.00     0.001 A 
ATOM     27  C17 <0> d           1.994 -11.161  -0.722  0.00  0.00     0.011 A 
ENDBRANCH  20  21
BRANCH  20  28
ATOM     28  N3  <0> d          -0.637 -11.260  -0.001  0.00  0.00    -0.069 N 
ATOM     29  C22 <0> d          -2.048 -10.947   0.263  0.00  0.00     0.270 C 
ATOM     30  C23 <0> d          -0.318 -12.584   0.550  0.00  0.00     0.270 C 
ATOM     31  H29 <0> d          -0.051 -10.564   0.435  0.00  0.00     0.279 HD
ENDBRANCH  20  28
ENDBRANCH  19  20
ENDBRANCH   3  19
TORSDOF 6
