REMARK  3 active torsions:
REMARK  status: ('A' for Active; 'I' for Inactive)
REMARK    1  A    between atoms: C4_4  and  N1_8 
REMARK    2  A    between atoms: N1_8  and  C7_9 
REMARK    3  A    between atoms: C7_9  and  C8_10 
ROOT
ATOM      1  N1  <0> d           3.621  -0.650  -0.037  0.00  0.00    -0.382 N 
ATOM      2  H5  <0> d           4.453  -0.153  -0.043  0.00  0.00     0.160 HD
ENDROOT
BRANCH   1   3
ATOM      3  C4  <0> d           2.400   0.030  -0.021  0.00  0.00     0.047 A 
ATOM      4  C3  <0> d           2.378   1.420  -0.013  0.00  0.00     0.037 A 
ATOM      5  C2  <0> d           1.170   2.090   0.002  0.00  0.00     0.023 A 
ATOM      6 Br2  <0> d           3.999   2.393  -0.025  0.00  0.00    -0.049 Br
ATOM      7  C1  <0> d          -0.017   1.379   0.010  0.00  0.00     0.020 A 
ATOM      8  C6  <0> d           0.002  -0.004   0.002  0.00  0.00     0.013 A 
ATOM      9  C5  <0> d           1.208  -0.680  -0.013  0.00  0.00     0.049 A 
ATOM     10 Br1  <0> d          -1.623  -0.971   0.013  0.00  0.00    -0.051 Br
ENDBRANCH   1   3
BRANCH   1  11
ATOM     11  C7  <0> d           3.643  -2.115  -0.045  0.00  0.00     0.196 C 
BRANCH  11  12
ATOM     12  C8  <0> d           5.071  -2.596  -0.062  0.00  0.00     0.098 A 
ATOM     13  N3  <0> d           5.481  -3.802   0.295  0.00  0.00    -0.353 N 
ATOM     14  C10 <0> d           6.821  -3.855   0.141  0.00  0.00     0.106 A 
ATOM     15  H10 <0> d           4.916  -4.525   0.611  0.00  0.00     0.166 HD
ATOM     16  C9  <0> d           7.221  -2.650  -0.311  0.00  0.00     0.106 A 
ATOM     17  N2  <0> d           6.120  -1.880  -0.432  0.00  0.00    -0.353 N 
ATOM     18  H1  <0> d           6.101  -0.959  -0.738  0.00  0.00     0.166 HD
ENDBRANCH  11  12
ENDBRANCH   1  11
TORSDOF 3
