REMARK  9 active torsions:
REMARK  status: ('A' for Active; 'I' for Inactive)
REMARK    1  A    between atoms: C2_2  and  C3_3 
REMARK    2  A    between atoms: C3_3  and  C4_4 
REMARK    3  A    between atoms: C4_4  and  N1_5 
REMARK    4  A    between atoms: N1_5  and  C5_6 
REMARK       I    between atoms: N1_5  and  C7_9 
REMARK    5  A    between atoms: C5_6  and  C6_7 
REMARK    6  A    between atoms: C6_7  and  O1_8 
REMARK    7  A    between atoms: C7_9  and  C8_11 
REMARK       I    between atoms: C8_11  and  N2_13 
REMARK    8  A    between atoms: N2_13  and  C9_14 
REMARK    9  A    between atoms: C11_16  and  N3_22 
REMARK       I    between atoms: N3_22  and  C15_23 
ROOT
ATOM      1  C8  <0> d          -4.703  -3.538   1.139  0.00  0.00     0.314 C 
ATOM      2  O3  <0> d          -5.337  -3.757   0.127  0.00  0.00    -0.262 OA
ATOM      3  N2  <0> d          -5.276  -3.719   2.346  0.00  0.00    -0.316 N 
ATOM      4  H15 <0> d          -4.789  -3.492   3.153  0.00  0.00     0.169 HD
ENDROOT
BRANCH   3   5
ATOM      5  C9  <0> d          -6.574  -4.234   2.434  0.00  0.00     0.076 A 
ATOM      6  C14 <0> d          -6.968  -4.939   3.566  0.00  0.00     0.146 A 
ATOM      7  C13 <0> d          -8.253  -5.443   3.656  0.00  0.00     0.089 A 
ATOM      8  F1  <0> d          -6.097  -5.127   4.581  0.00  0.00    -0.204 F 
ATOM      9  C12 <0> d          -9.145  -5.258   2.615  0.00  0.00     0.146 A 
ATOM     10  C11 <0> d          -8.754  -4.558   1.478  0.00  0.00     0.076 A 
ATOM     11  F2  <0> d         -10.398  -5.756   2.703  0.00  0.00    -0.204 F 
ATOM     12  C10 <0> d          -7.468  -4.047   1.388  0.00  0.00     0.065 A 
BRANCH  10  13
ATOM     13  N3  <0> d          -9.658  -4.370   0.424  0.00  0.00    -0.325 N 
ATOM     14  C15 <0> d          -9.529  -3.306  -0.393  0.00  0.00     0.218 C 
ATOM     15  O4  <0> d          -8.591  -2.549  -0.259  0.00  0.00    -0.274 OA
ATOM     16  C16 <0> d         -10.550  -3.057  -1.473  0.00  0.00     0.117 C 
ATOM     17  H18 <0> d         -10.377  -5.006   0.283  0.00  0.00     0.169 HD
ENDBRANCH  10  13
ENDBRANCH   3   5
BRANCH   1  18
ATOM     18  C7  <0> d          -3.289  -3.067   1.047  0.00  0.00     0.311 C 
ATOM     19  N1  <0> d          -2.712  -2.898  -0.159  0.00  0.00    -0.342 N 
ATOM     20  O2  <0> d          -2.659  -2.837   2.059  0.00  0.00    -0.262 OA
BRANCH  19  21
ATOM     21  C4  <0> d          -3.504  -3.067  -1.380  0.00  0.00     0.126 C 
BRANCH  21  22
ATOM     22  C3  <0> d          -3.567  -4.551  -1.746  0.00  0.00     0.020 C 
BRANCH  22  23
ATOM     23  C2  <0> d          -4.394  -4.727  -3.021  0.00  0.00    -0.003 C 
ATOM     24  C1  <0> d          -4.457  -6.211  -3.387  0.00  0.00     0.005 C 
ENDBRANCH  22  23
ENDBRANCH  21  22
ENDBRANCH  19  21
BRANCH  19  25
ATOM     25  C5  <0> d          -1.293  -2.546  -0.249  0.00  0.00     0.152 C 
BRANCH  25  26
ATOM     26  C6  <0> d          -1.139  -1.025  -0.176  0.00  0.00     0.184 C 
BRANCH  26  27
ATOM     27  O1  <0> d          -1.562  -0.565   1.109  0.00  0.00    -0.399 OA
ATOM     28  H14 <0> d          -1.492   0.392   1.227  0.00  0.00     0.209 HD
ENDBRANCH  26  27
ENDBRANCH  25  26
ENDBRANCH  19  25
ENDBRANCH   1  18
TORSDOF 9
