REMARK  5 active torsions:
REMARK  status: ('A' for Active; 'I' for Inactive)
REMARK    1  A    between atoms: C2_2  and  C4_4 
REMARK    2  A    between atoms: C2_2  and  N4_20 
REMARK    3  A    between atoms: C4_4  and  N1_5 
REMARK       I    between atoms: N1_5  and  C5_6 
REMARK       I    between atoms: C5_6  and  N2_8 
REMARK    4  A    between atoms: N2_8  and  C6_9 
REMARK    5  A    between atoms: C10_13  and  C12_15 
ROOT
ATOM      1  N1  <0> d          -1.744  -1.802  -0.653  0.00  0.00    -0.340 N 
ATOM      2  C5  <0> d          -2.947  -2.242  -1.073  0.00  0.00     0.320 C 
ATOM      3  O1  <0> d          -3.892  -1.478  -1.118  0.00  0.00    -0.247 OA
ATOM      4  N2  <0> d          -3.103  -3.528  -1.443  0.00  0.00    -0.309 N 
ATOM      5  H9  <0> d          -0.990  -2.412  -0.617  0.00  0.00     0.164 HD
ATOM      6  H10 <0> d          -2.370  -4.155  -1.338  0.00  0.00     0.170 HD
ENDROOT
BRANCH   1   7
ATOM      7  C4  <0> d          -1.575  -0.404  -0.251  0.00  0.00     0.162 C 
BRANCH   7   8
ATOM      8  C2  <0> d          -0.126  -0.169   0.180  0.00  0.00     0.137 C 
ATOM      9  C1  <0> d           0.051   1.292   0.600  0.00  0.00     0.048 C 
ATOM     10  C3  <0> d           0.211  -1.083   1.359  0.00  0.00     0.048 C 
BRANCH   8  11
ATOM     11  N4  <0> d           0.773  -0.467  -0.943  0.00  0.00    -0.057 N 
ATOM     12  C23 <0> d           0.362   0.305  -2.119  0.00  0.00     0.275 C 
ATOM     13  C22 <0> d           1.355   0.135  -3.239  0.00  0.00    -0.026 A 
ATOM     14  C17 <0> d           2.635  -0.324  -3.009  0.00  0.00    -0.049 A 
ATOM     15  C21 <0> d           0.961   0.455  -4.529  0.00  0.00     0.009 A 
ATOM     16  C16 <0> d           3.103  -0.688  -1.623  0.00  0.00     0.067 C 
ATOM     17  C18 <0> d           3.521  -0.458  -4.067  0.00  0.00     0.007 A 
ATOM     18  C15 <0> d           2.150  -0.096  -0.584  0.00  0.00     0.241 C 
ATOM     19  C19 <0> d           3.127  -0.137  -5.350  0.00  0.00     0.001 A 
ATOM     20  C20 <0> d           1.843   0.320  -5.582  0.00  0.00     0.001 A 
ATOM     21  H27 <0> d           0.732  -1.453  -1.156  0.00  0.00     0.281 HD
ENDBRANCH   8  11
ENDBRANCH   7   8
ENDBRANCH   1   7
BRANCH   4  22
ATOM     22  C6  <0> d          -4.321  -3.959  -1.980  0.00  0.00     0.037 A 
ATOM     23  C11 <0> d          -5.089  -3.091  -2.740  0.00  0.00     0.043 A 
ATOM     24  C10 <0> d          -6.300  -3.528  -3.277  0.00  0.00     0.001 A 
ATOM     25  C9  <0> d          -6.736  -4.832  -3.037  0.00  0.00     0.014 A 
ATOM     26  C8  <0> d          -5.966  -5.687  -2.275  0.00  0.00     0.003 A 
ATOM     27  C7  <0> d          -4.763  -5.256  -1.747  0.00  0.00     0.029 A 
BRANCH  24  28
ATOM     28  C12 <0> d          -7.123  -2.610  -4.094  0.00  0.00     0.102 A 
ATOM     29  O2  <0> d          -6.830  -1.328  -4.407  0.00  0.00    -0.304 OA
ATOM     30  C14 <0> d          -7.830  -0.854  -5.163  0.00  0.00     0.233 A 
ATOM     31  N3  <0> d          -8.725  -1.789  -5.317  0.00  0.00    -0.354 N 
ATOM     32  C13 <0> d          -8.320  -2.891  -4.669  0.00  0.00     0.127 A 
ATOM     33  H28 <0> d          -9.550  -1.702  -5.820  0.00  0.00     0.166 HD
ENDBRANCH  24  28
ENDBRANCH   4  22
TORSDOF 5
