REMARK  4 active torsions:
REMARK  status: ('A' for Active; 'I' for Inactive)
REMARK    1  A    between atoms: C4_4  and  N1_7 
REMARK    2  A    between atoms: C7_8  and  N2_9 
REMARK    3  A    between atoms: C7_8  and  C8_11 
REMARK    4  A    between atoms: N2_9  and  N3_10 
ROOT
ATOM      1  N1  <0> d           3.586  -0.663  -0.069  0.00  0.00    -0.228 NA
ATOM      2  C7  <0> d           3.827  -1.589   0.826  0.00  0.00     0.167 C 
ENDROOT
BRANCH   2   3
ATOM      3  N2  <0> d           2.826  -2.001   1.678  0.00  0.00    -0.306 N 
ATOM      4  H14 <0> d           1.934  -1.632   1.592  0.00  0.00     0.182 HD
BRANCH   3   5
ATOM      5  N3  <0> d           3.091  -2.930   2.644  0.00  0.00    -0.248 NA
ATOM      6  H6  <0> d           2.289  -3.070   3.240  0.00  0.00     0.143 HD
ATOM      7  H7  <0> d           3.395  -3.801   2.235  0.00  0.00     0.143 HD
ENDBRANCH   3   5
ENDBRANCH   2   3
BRANCH   2   8
ATOM      8  C8  <0> d           5.175  -2.193   0.921  0.00  0.00     0.104 A 
ATOM      9  N4  <0> d           5.402  -3.125   1.828  0.00  0.00    -0.244 NA
ATOM     10  C16 <0> d           6.600  -3.700   1.945  0.00  0.00     0.068 A 
ATOM     11  C11 <0> d           7.662  -3.304   1.092  0.00  0.00    -0.007 A 
ATOM     12  C15 <0> d           6.833  -4.697   2.910  0.00  0.00     0.032 A 
ATOM     13  C10 <0> d           7.431  -2.306   0.125  0.00  0.00     0.016 A 
ATOM     14  C12 <0> d           8.921  -3.910   1.227  0.00  0.00     0.014 A 
ATOM     15  C9  <0> d           6.185  -1.757   0.048  0.00  0.00     0.036 A 
ATOM     16  C13 <0> d           9.109  -4.871   2.173  0.00  0.00     0.001 A 
ATOM     17  C14 <0> d           8.066  -5.263   3.012  0.00  0.00     0.002 A 
ENDBRANCH   2   8
BRANCH   1  18
ATOM     18  C4  <0> d           2.336  -0.117  -0.168  0.00  0.00     0.059 A 
ATOM     19  C3  <0> d           2.155   1.259  -0.009  0.00  0.00     0.031 A 
ATOM     20  C2  <0> d           0.892   1.802  -0.111  0.00  0.00     0.002 A 
ATOM     21  C1  <0> d          -0.196   0.987  -0.371  0.00  0.00     0.000 A 
ATOM     22  C6  <0> d          -0.025  -0.377  -0.530  0.00  0.00     0.002 A 
ATOM     23  C5  <0> d           1.232  -0.934  -0.430  0.00  0.00     0.031 A 
ENDBRANCH   1  18
TORSDOF 4
