REMARK  6 active torsions:
REMARK  status: ('A' for Active; 'I' for Inactive)
REMARK    1  A    between atoms: C4_6  and  C5_7 
REMARK    2  A    between atoms: N3_8  and  C6_9 
REMARK    3  A    between atoms: C6_9  and  C7_10 
REMARK    4  A    between atoms: C7_10  and  C8_11 
REMARK    5  A    between atoms: C11_14  and  S1_17 
REMARK    6  A    between atoms: S1_17  and  N4_20 
ROOT
ATOM      1  C8  <0> d          -2.354   2.659   3.683  0.00  0.00    -0.057 A 
ATOM      2  C9  <0> d          -2.559   1.412   3.121  0.00  0.00     0.009 A 
ATOM      3  C10 <0> d          -1.846   1.033   2.000  0.00  0.00     0.026 A 
ATOM      4  C11 <0> d          -0.927   1.900   1.439  0.00  0.00     0.079 A 
ATOM      5  C12 <0> d          -0.717   3.145   2.004  0.00  0.00     0.026 A 
ATOM      6  C13 <0> d          -1.434   3.526   3.123  0.00  0.00     0.009 A 
ENDROOT
BRANCH   1   7
ATOM      7  C7  <0> d          -3.132   3.072   4.905  0.00  0.00     0.060 C 
BRANCH   7   8
ATOM      8  C6  <0> d          -2.364   2.662   6.162  0.00  0.00     0.153 C 
BRANCH   8   9
ATOM      9  N3  <0> d          -3.121   3.064   7.350  0.00  0.00    -0.298 NA
ATOM     10  C5  <0> d          -3.594   2.164   8.152  0.00  0.00     0.160 C 
BRANCH  10  11
ATOM     11  C4  <0> d          -4.354   2.568   9.345  0.00  0.00     0.146 A 
ATOM     12  N1  <0> d          -4.905   1.723  10.268  0.00  0.00    -0.344 N 
ATOM     13  C1  <0> d          -4.849   0.259  10.252  0.00  0.00     0.157 C 
ATOM     14  C2  <0> d          -5.516   2.501  11.205  0.00  0.00     0.111 A 
ATOM     15  C3  <0> d          -5.327   3.790  10.838  0.00  0.00     0.136 A 
ATOM     16  N2  <0> d          -4.616   3.806   9.710  0.00  0.00    -0.240 NA
ENDBRANCH  10  11
ENDBRANCH   8   9
ENDBRANCH   7   8
ENDBRANCH   1   7
BRANCH   4  17
ATOM     17  S1  <0> d          -0.017   1.417   0.010  0.00  0.00     0.256 S 
ATOM     18  O1  <0> d           0.002  -0.004   0.002  0.00  0.00    -0.201 OA
ATOM     19  O2  <0> d           1.172   2.195   0.003  0.00  0.00    -0.201 OA
BRANCH  17  20
ATOM     20  N4  <0> d          -0.897   1.885  -1.312  0.00  0.00    -0.324 N 
ATOM     21  H15 <0> d          -1.747   2.338  -1.194  0.00  0.00     0.169 HD
ATOM     22  H16 <0> d          -0.563   1.708  -2.205  0.00  0.00     0.169 HD
ENDBRANCH  17  20
ENDBRANCH   4  17
TORSDOF 6
