REMARK  4 active torsions:
REMARK  status: ('A' for Active; 'I' for Inactive)
REMARK    1  A    between atoms: C3_3  and  C7_8 
REMARK    2  A    between atoms: C5_5  and  O1_7 
REMARK       I    between atoms: C7_8  and  N1_10 
REMARK    3  A    between atoms: N1_10  and  N2_11 
REMARK    4  A    between atoms: C10_15  and  C11_16 
ROOT
ATOM      1  N2  <0> d          -4.779   8.293  -0.147  0.00  0.00    -0.198 N 
ATOM      2  C8  <0> d          -3.798   7.412  -0.050  0.00  0.00     0.285 A 
ATOM      3  O3  <0> d          -4.016   6.217   0.026  0.00  0.00    -0.265 OA
ATOM      4  C9  <0> d          -2.421   7.953  -0.038  0.00  0.00     0.078 A 
ATOM      5  C10 <0> d          -1.236   7.300   0.050  0.00  0.00     0.036 C 
ATOM      6  S1  <0> d          -2.750   9.706  -0.165  0.00  0.00    -0.053 SA
ATOM      7  C19 <0> d          -4.532   9.616  -0.230  0.00  0.00     0.168 A 
ATOM      8  S2  <0> d          -5.657  10.900  -0.359  0.00  0.00    -0.050 SA
ENDROOT
BRANCH   1   9
ATOM      9  N1  <0> d          -6.105   7.841  -0.162  0.00  0.00    -0.255 N 
ATOM     10  C7  <0> d          -6.880   7.988   0.931  0.00  0.00     0.270 C 
ATOM     11  O2  <0> d          -6.428   8.512   1.930  0.00  0.00    -0.266 OA
ATOM     12  H6  <0> d          -6.466   7.423  -0.960  0.00  0.00     0.191 HD
BRANCH  10  13
ATOM     13  C3  <0> d          -8.279   7.512   0.914  0.00  0.00     0.036 A 
ATOM     14  C2  <0> d          -8.801   6.910  -0.232  0.00  0.00     0.017 A 
ATOM     15  C1  <0> d         -10.108   6.466  -0.243  0.00  0.00     0.004 A 
ATOM     16  C6  <0> d         -10.903   6.617   0.877  0.00  0.00     0.036 A 
ATOM     17  C5  <0> d         -10.393   7.214   2.022  0.00  0.00     0.066 A 
ATOM     18  C4  <0> d          -9.082   7.657   2.047  0.00  0.00     0.053 A 
BRANCH  17  19
ATOM     19  O1  <0> d         -11.180   7.359   3.121  0.00  0.00    -0.361 OA
ATOM     20  H5  <0> d         -11.142   6.611   3.733  0.00  0.00     0.217 HD
ENDBRANCH  17  19
ENDBRANCH  10  13
ENDBRANCH   1   9
BRANCH   5  21
ATOM     21  C11 <0> d          -1.210   5.857   0.324  0.00  0.00    -0.032 A 
ATOM     22  C16 <0> d          -2.102   5.313   1.240  0.00  0.00     0.045 A 
ATOM     23  C15 <0> d          -2.071   3.934   1.497  0.00  0.00     0.086 A 
ATOM     24  C14 <0> d          -1.131   3.117   0.818  0.00  0.00     0.085 A 
ATOM     25  N3  <0> d          -2.917   3.380   2.374  0.00  0.00    -0.257 NA
ATOM     26  C13 <0> d          -0.240   3.699  -0.105  0.00  0.00     0.035 A 
ATOM     27  N4  <0> d          -1.099   1.804   1.067  0.00  0.00    -0.257 NA
ATOM     28  C12 <0> d          -0.281   5.033  -0.343  0.00  0.00     0.014 A 
ATOM     29  C18 <0> d          -1.942   1.283   1.929  0.00  0.00     0.136 A 
ATOM     30  C17 <0> d          -2.868   2.087   2.598  0.00  0.00     0.136 A 
ENDBRANCH   5  21
TORSDOF 4
