REMARK  9 active torsions:
REMARK  status: ('A' for Active; 'I' for Inactive)
REMARK    1  A    between atoms: C5_5  and  C9_9 
REMARK       I    between atoms: C9_9  and  N1_11 
REMARK    2  A    between atoms: N1_11  and  N2_12 
REMARK    3  A    between atoms: C10_13  and  C12_15 
REMARK    4  A    between atoms: C15_18  and  S1_21 
REMARK    5  A    between atoms: S1_21  and  N3_24 
REMARK    6  A    between atoms: N3_24  and  C18_25 
REMARK    7  A    between atoms: C18_25  and  C19_26 
REMARK    8  A    between atoms: C19_26  and  C20_27 
REMARK    9  A    between atoms: C20_27  and  C21_28 
ROOT
ATOM      1  C12 <0> d           5.223  -2.636  -1.238  0.00  0.00    -0.010 A 
ATOM      2  C13 <0> d           5.313  -4.023  -1.378  0.00  0.00     0.015 A 
ATOM      3  C14 <0> d           6.538  -4.610  -1.619  0.00  0.00     0.026 A 
ATOM      4  C15 <0> d           7.677  -3.830  -1.709  0.00  0.00     0.079 A 
ATOM      5  C16 <0> d           7.596  -2.456  -1.565  0.00  0.00     0.026 A 
ATOM      6  C17 <0> d           6.377  -1.854  -1.331  0.00  0.00     0.015 A 
ENDROOT
BRANCH   1   7
ATOM      7  C10 <0> d           3.916  -2.000  -0.987  0.00  0.00     0.061 C 
ATOM      8  N2  <0> d           3.836  -0.712  -0.852  0.00  0.00    -0.176 NA
ATOM      9  C11 <0> d           2.673  -2.847  -0.888  0.00  0.00     0.073 C 
BRANCH   8  10
ATOM     10  N1  <0> d           2.595  -0.108  -0.613  0.00  0.00    -0.243 N 
ATOM     11  C9  <0> d           2.512   1.230  -0.473  0.00  0.00     0.272 C 
ATOM     12  O1  <0> d           3.515   1.913  -0.553  0.00  0.00    -0.266 OA
ATOM     13  H10 <0> d           1.795  -0.653  -0.549  0.00  0.00     0.192 HD
BRANCH  11  14
ATOM     14  C5  <0> d           1.202   1.867  -0.221  0.00  0.00     0.039 A 
ATOM     15  C4  <0> d           0.033   1.104  -0.258  0.00  0.00     0.018 A 
ATOM     16  C3  <0> d          -1.186   1.706  -0.028  0.00  0.00     0.008 A 
ATOM     17  C2  <0> d          -1.252   3.060   0.249  0.00  0.00    -0.061 A 
ATOM     18  C1  <0> d          -2.587   3.710   0.505  0.00  0.00     0.048 C 
ATOM     19  C7  <0> d          -0.097   3.822   0.287  0.00  0.00     0.014 A 
ATOM     20  C6  <0> d           1.129   3.233   0.053  0.00  0.00    -0.046 A 
ATOM     21  C8  <0> d           2.385   4.064   0.096  0.00  0.00     0.049 C 
ENDBRANCH  11  14
ENDBRANCH   8  10
ENDBRANCH   1   7
BRANCH   4  22
ATOM     22  S1  <0> d           9.239  -4.589  -2.009  0.00  0.00     0.258 S 
ATOM     23  O2  <0> d           8.971  -5.830  -2.648  0.00  0.00    -0.201 OA
ATOM     24  O3  <0> d          10.068  -3.594  -2.593  0.00  0.00    -0.201 OA
BRANCH  22  25
ATOM     25  N3  <0> d           9.899  -4.950  -0.534  0.00  0.00    -0.315 N 
ATOM     26  H18 <0> d          10.713  -4.508  -0.246  0.00  0.00     0.172 HD
BRANCH  25  27
ATOM     27  C18 <0> d           9.253  -5.935   0.337  0.00  0.00     0.133 C 
BRANCH  27  28
ATOM     28  C19 <0> d          10.227  -6.359   1.438  0.00  0.00     0.031 C 
BRANCH  28  29
ATOM     29  C20 <0> d           9.553  -7.388   2.347  0.00  0.00     0.114 C 
BRANCH  29  30
ATOM     30  C21 <0> d          10.512  -7.806   3.432  0.00  0.00     0.172 C 
ATOM     31  O4  <0> d          11.622  -7.329   3.473  0.00  0.00    -0.648 OA
ATOM     32  O5  <0> d          10.134  -8.707   4.352  0.00  0.00    -0.648 OA
ENDBRANCH  29  30
ENDBRANCH  28  29
ENDBRANCH  27  28
ENDBRANCH  25  27
ENDBRANCH  22  25
ENDBRANCH   4  22
TORSDOF 9
