REMARK  2 active torsions:
REMARK  status: ('A' for Active; 'I' for Inactive)
REMARK    1  A    between atoms: C5_5  and  N1_8 
REMARK       I    between atoms: N1_8  and  C8_9 
REMARK    2  A    between atoms: C8_9  and  C9_11 
ROOT
ATOM      1  C9  <0> d          -2.536   4.122   0.249  0.00  0.00     0.094 A 
ATOM      2  C10 <0> d          -2.769   5.449   0.373  0.00  0.00     0.145 A 
ATOM      3  N2  <0> d          -4.042   5.930   0.470  0.00  0.00    -0.219 N 
ATOM      4  C11 <0> d          -5.058   5.008   0.446  0.00  0.00     0.198 A 
ATOM      5  S1  <0> d          -4.195   3.460   0.278  0.00  0.00    -0.043 SA
ATOM      6  N3  <0> d          -6.327   5.316   0.534  0.00  0.00    -0.182 NA
ATOM      7  C12 <0> d          -6.707   6.594   0.656  0.00  0.00     0.295 A 
ATOM      8  O2  <0> d          -7.889   6.890   0.738  0.00  0.00    -0.264 OA
ATOM      9  C13 <0> d          -5.668   7.628   0.688  0.00  0.00     0.121 A 
ATOM     10  N4  <0> d          -4.418   7.292   0.598  0.00  0.00    -0.165 NA
ATOM     11  C14 <0> d          -6.052   9.079   0.824  0.00  0.00     0.078 C 
ENDROOT
BRANCH   1  12
ATOM     12  C8  <0> d          -1.254   3.412   0.128  0.00  0.00     0.264 C 
ATOM     13  N1  <0> d          -1.236   2.069   0.019  0.00  0.00    -0.322 N 
ATOM     14  H8  <0> d          -2.069   1.576  -0.047  0.00  0.00     0.169 HD
ATOM     15  O1  <0> d          -0.211   4.037   0.127  0.00  0.00    -0.267 OA
BRANCH  13  16
ATOM     16  C5  <0> d          -0.017   1.385   0.002  0.00  0.00     0.035 A 
ATOM     17  C4  <0> d           0.089   0.135   0.597  0.00  0.00     0.030 A 
ATOM     18  C3  <0> d           1.294  -0.540   0.573  0.00  0.00     0.009 A 
ATOM     19  C2  <0> d           2.394   0.028  -0.043  0.00  0.00    -0.062 A 
ATOM     20  C1  <0> d           3.707  -0.712  -0.067  0.00  0.00     0.048 C 
ATOM     21  C7  <0> d           2.293   1.273  -0.635  0.00  0.00     0.009 A 
ATOM     22  C6  <0> d           1.091   1.953  -0.615  0.00  0.00     0.030 A 
ENDBRANCH  13  16
ENDBRANCH   1  12
TORSDOF 2
