REMARK  5 active torsions:
REMARK  status: ('A' for Active; 'I' for Inactive)
REMARK    1  A    between atoms: C2_2  and  N1_3 
REMARK    2  A    between atoms: C6_7  and  C12_15 
REMARK       I    between atoms: C12_15  and  N3_17 
REMARK    3  A    between atoms: N3_17  and  C13_18 
REMARK    4  A    between atoms: C15_20  and  C23_29 
REMARK    5  A    between atoms: C18_23  and  N4_24 
REMARK       I    between atoms: C23_29  and  N5_31 
ROOT
ATOM      1  C12 <0> d          -1.307   2.111   0.034  0.00  0.00     0.256 C 
ATOM      2  O2  <0> d          -1.324   3.326   0.031  0.00  0.00    -0.267 OA
ATOM      3  N3  <0> d          -2.465   1.421   0.030  0.00  0.00    -0.321 N 
ATOM      4  H12 <0> d          -2.453   0.325  -0.060  0.00  0.00     0.169 HD
ENDROOT
BRANCH   3   5
ATOM      5  C13 <0> d          -3.686   2.101   0.141  0.00  0.00     0.057 A 
ATOM      6  C18 <0> d          -4.854   1.529  -0.371  0.00  0.00     0.037 A 
ATOM      7  C17 <0> d          -6.066   2.199  -0.257  0.00  0.00     0.027 A 
ATOM      8  C16 <0> d          -6.119   3.435   0.350  0.00  0.00     0.019 A 
ATOM      9  C15 <0> d          -4.953   4.015   0.859  0.00  0.00     0.034 A 
ATOM     10  C14 <0> d          -3.734   3.340   0.751  0.00  0.00     0.048 A 
BRANCH   6  11
ATOM     11  N4  <0> d          -4.804   0.283  -0.990  0.00  0.00    -0.281 NA
ATOM     12  C22 <0> d          -3.824   0.280  -2.098  0.00  0.00     0.096 C 
ATOM     13  C21 <0> d          -4.381  -0.650  -3.191  0.00  0.00     0.016 C 
ATOM     14  C20 <0> d          -5.742  -1.143  -2.648  0.00  0.00     0.016 C 
ATOM     15  C19 <0> d          -6.112  -0.058  -1.606  0.00  0.00     0.096 C 
ENDBRANCH   6  11
BRANCH   9  16
ATOM     16  C23 <0> d          -5.010   5.337   1.510  0.00  0.00     0.249 C 
ATOM     17  O3  <0> d          -3.996   5.841   1.953  0.00  0.00    -0.268 OA
ATOM     18  N5  <0> d          -6.186   5.987   1.614  0.00  0.00    -0.366 N 
ATOM     19  H24 <0> d          -6.229   6.973   2.100  0.00  0.00     0.159 HD
ATOM     20  H25 <0> d          -7.104   5.532   1.214  0.00  0.00     0.159 HD
ENDBRANCH   9  16
ENDBRANCH   3   5
BRANCH   1  21
ATOM     21  C6  <0> d          -0.019   1.389   0.041  0.00  0.00     0.034 A 
ATOM     22  C5  <0> d          -0.002  -0.013   0.043  0.00  0.00     0.019 A 
ATOM     23  C4  <0> d           1.181  -0.691   0.044  0.00  0.00     0.033 A 
ATOM     24  C3  <0> d           2.389   0.003   0.042  0.00  0.00     0.066 A 
ATOM     25  N1  <0> d           3.583  -0.688   0.043  0.00  0.00    -0.311 N 
ATOM     26  C8  <0> d           2.393   1.411   0.039  0.00  0.00     0.085 A 
ATOM     27  C10 <0> d           4.742   0.006   0.042  0.00  0.00     0.272 A 
ATOM     28  C9  <0> d           4.698   1.473   0.039  0.00  0.00     0.099 A 
ATOM     29  O1  <0> d           5.809  -0.578   0.043  0.00  0.00    -0.266 OA
ATOM     30  N2  <0> d           3.554   2.095   0.038  0.00  0.00    -0.246 NA
ATOM     31  C11 <0> d           5.982   2.263   0.038  0.00  0.00     0.076 C 
ATOM     32  C7  <0> d           1.174   2.102   0.038  0.00  0.00     0.051 A 
BRANCH  25  33
ATOM     33  C2  <0> d           3.594  -2.153   0.046  0.00  0.00     0.128 C 
ATOM     34  C1  <0> d           3.598  -2.665  -1.396  0.00  0.00     0.027 C 
ENDBRANCH  25  33
ENDBRANCH   1  21
TORSDOF 5
