REMARK  3 active torsions:
REMARK  status: ('A' for Active; 'I' for Inactive)
REMARK    1  A    between atoms: C3_3  and  C13_16 
REMARK    2  A    between atoms: C4_4  and  N2_7 
REMARK    3  A    between atoms: C13_16  and  N3_17 
ROOT
ATOM      1  C1  <0> d           0.095   1.478  -0.056  0.00  0.00     0.020 A 
ATOM      2  C2  <0> d           0.525   0.957   1.157  0.00  0.00     0.014 A 
ATOM      3  C3  <0> d           1.639   0.137   1.165  0.00  0.00     0.013 A 
ATOM      4  C4  <0> d           2.287  -0.136  -0.036  0.00  0.00     0.133 A 
ATOM      5  N1  <0> d           1.846   0.381  -1.172  0.00  0.00    -0.243 NA
ATOM      6  C5  <0> d           0.785   1.166  -1.210  0.00  0.00     0.119 A 
ENDROOT
BRANCH   4   7
ATOM      7  N2  <0> d           3.409  -0.957  -0.042  0.00  0.00    -0.356 N 
ATOM      8  C9  <0> d           3.318  -2.409  -0.101  0.00  0.00     0.115 C 
ATOM      9  C8  <0> d           4.126  -2.821  -1.371  0.00  0.00     0.144 C 
ATOM     10  C10 <0> d           1.947  -3.023  -0.351  0.00  0.00     0.028 C 
ATOM     11  O1  <0> d           5.475  -2.495  -1.119  0.00  0.00    -0.382 OA
ATOM     12  C12 <0> d           3.747  -4.295  -1.513  0.00  0.00     0.034 C 
ATOM     13  C7  <0> d           5.663  -1.070  -1.059  0.00  0.00     0.188 C 
ATOM     14  C6  <0> d           4.790  -0.425   0.016  0.00  0.00     0.151 C 
ATOM     15  C11 <0> d           2.217  -4.290  -1.202  0.00  0.00     0.005 C 
ENDBRANCH   4   7
BRANCH   3  16
ATOM     16  C13 <0> d           2.145  -0.452   2.457  0.00  0.00     0.271 C 
BRANCH  16  17
ATOM     17  N3  <0> d           3.307   0.316   2.923  0.00  0.00    -0.075 N 
ATOM     18  H18 <0> d           3.016   1.252   3.166  0.00  0.00     0.274 HD
ATOM     19  H19 <0> d           3.704  -0.134   3.734  0.00  0.00     0.274 HD
ATOM     20  H20 <0> d           3.998   0.359   2.190  0.00  0.00     0.274 HD
ENDBRANCH  16  17
ENDBRANCH   3  16
TORSDOF 3
