REMARK  7 active torsions:
REMARK  status: ('A' for Active; 'I' for Inactive)
REMARK    1  A    between atoms: C2_2  and  C3_3 
REMARK    2  A    between atoms: C3_3  and  C4_4 
REMARK    3  A    between atoms: C3_3  and  N1_12 
REMARK    4  A    between atoms: C9_9  and  O1_10 
REMARK    5  A    between atoms: N1_12  and  C10_13 
REMARK    6  A    between atoms: C10_13  and  C11_14 
REMARK    7  A    between atoms: N2_17  and  C15_19 
ROOT
ATOM      1  C3  <0> d          -1.326  -0.574  -0.036  0.00  0.00     0.255 C 
ENDROOT
BRANCH   1   2
ATOM      2  C2  <0> d          -0.019   0.219   0.032  0.00  0.00     0.036 C 
ATOM      3  C1  <0> d           0.706  -0.105   1.340  0.00  0.00     0.007 C 
ENDBRANCH   1   2
BRANCH   1   4
ATOM      4  C4  <0> d          -1.018  -2.049  -0.037  0.00  0.00     0.009 A 
ATOM      5  C9  <0> d          -0.618  -2.674  -1.210  0.00  0.00     0.074 A 
ATOM      6  C8  <0> d          -0.331  -4.031  -1.206  0.00  0.00     0.038 A 
ATOM      7  C7  <0> d          -0.454  -4.760  -0.040  0.00  0.00     0.022 A 
ATOM      8  C6  <0> d          -0.859  -4.136   1.127  0.00  0.00     0.011 A 
ATOM      9  C5  <0> d          -1.141  -2.781   1.128  0.00  0.00     0.031 A 
ATOM     10 Br1  <0> d          -1.026  -5.135   2.724  0.00  0.00    -0.051 Br
BRANCH   5  11
ATOM     11  O1  <0> d          -0.503  -1.956  -2.358  0.00  0.00    -0.360 OA
ATOM     12  H11 <0> d           0.374  -1.573  -2.496  0.00  0.00     0.217 HD
ENDBRANCH   5  11
ENDBRANCH   1   4
BRANCH   1  13
ATOM     13  N1  <0> d          -2.158  -0.248   1.129  0.00  0.00     0.092 N 
ATOM     14  H12 <0> d          -2.790  -1.004   1.345  0.00  0.00     0.316 HD
BRANCH  13  15
ATOM     15  C10 <0> d          -2.893   1.007   0.917  0.00  0.00     0.276 C 
BRANCH  15  16
ATOM     16  C11 <0> d          -3.769   1.297   2.137  0.00  0.00     0.041 C 
ATOM     17  C14 <0> d          -4.606   2.582   1.918  0.00  0.00     0.241 C 
ATOM     18  N2  <0> d          -4.887   3.043   3.304  0.00  0.00    -0.066 N 
ATOM     19  C13 <0> d          -3.649   2.794   4.074  0.00  0.00     0.236 C 
ATOM     20  H26 <0> d          -5.652   2.515   3.695  0.00  0.00     0.280 HD
ATOM     21  C12 <0> d          -2.898   1.651   3.365  0.00  0.00     0.036 C 
BRANCH  18  22
ATOM     22  C15 <0> d          -5.205   4.477   3.307  0.00  0.00     0.188 A 
ATOM     23  C17 <0> d          -6.442   4.928   2.527  0.00  0.00     0.035 A 
ATOM     24  C16 <0> d          -6.463   4.920   4.057  0.00  0.00     0.035 A 
ENDBRANCH  18  22
ENDBRANCH  15  16
ENDBRANCH  13  15
ENDBRANCH   1  13
TORSDOF 7
