REMARK  5 active torsions:
REMARK  status: ('A' for Active; 'I' for Inactive)
REMARK    1  A    between atoms: C8_9  and  C9_11 
REMARK    2  A    between atoms: C9_11  and  N3_13 
REMARK       I    between atoms: N3_13  and  C11_14 
REMARK    3  A    between atoms: C11_14  and  C12_16 
REMARK       I    between atoms: N4_18  and  C20_26 
REMARK    4  A    between atoms: C20_26  and  C21_28 
REMARK    5  A    between atoms: C21_28  and  C22_29 
ROOT
ATOM      1  C12 <0> d          -1.623  -8.782   1.003  0.00  0.00     0.106 C 
ATOM      2  C13 <0> d          -2.893  -8.243   0.306  0.00  0.00     0.140 C 
ATOM      3  N4  <0> d          -3.816  -9.402   0.262  0.00  0.00    -0.350 N 
ATOM      4  C14 <0> d          -3.623 -10.076   1.568  0.00  0.00     0.136 C 
ATOM      5  C15 <0> d          -2.107  -9.984   1.830  0.00  0.00    -0.007 C 
ATOM      6  C16 <0> d          -1.412 -11.260   1.364  0.00  0.00     0.039 C 
ATOM      7  C17 <0> d          -1.867 -12.432   2.238  0.00  0.00     0.233 C 
ATOM      8  N5  <0> d          -1.536 -12.155   3.641  0.00  0.00    -0.075 N 
ATOM      9  C18 <0> d          -2.280 -10.980   4.109  0.00  0.00     0.233 C 
ATOM     10  C19 <0> d          -1.843  -9.746   3.314  0.00  0.00     0.039 C 
ATOM     11  C20 <0> d          -4.644  -9.761  -0.739  0.00  0.00     0.224 C 
ATOM     12  O2  <0> d          -5.344 -10.744  -0.624  0.00  0.00    -0.273 OA
ATOM     13  H21 <0> d          -1.780 -12.954   4.207  0.00  0.00     0.277 HD
ATOM     14  H32 <0> d          -0.545 -11.979   3.723  0.00  0.00     0.277 HD
ENDROOT
BRANCH   1  15
ATOM     15  C11 <0> d          -1.032  -7.728   1.904  0.00  0.00     0.224 C 
ATOM     16  N3  <0> d           0.293  -7.715   2.146  0.00  0.00    -0.349 N 
ATOM     17  H12 <0> d           0.867  -8.383   1.740  0.00  0.00     0.163 HD
ATOM     18  O1  <0> d          -1.750  -6.893   2.412  0.00  0.00    -0.273 OA
BRANCH  16  19
ATOM     19  C9  <0> d           0.868  -6.691   3.022  0.00  0.00     0.150 C 
ATOM     20  C10 <0> d           0.755  -7.145   4.479  0.00  0.00     0.040 C 
BRANCH  19  21
ATOM     21  C8  <0> d           2.319  -6.486   2.671  0.00  0.00     0.127 A 
ATOM     22  N1  <0> d           3.023  -5.346   2.904  0.00  0.00    -0.341 N 
ATOM     23  C6  <0> d           4.307  -5.555   2.442  0.00  0.00     0.063 A 
ATOM     24  H33 <0> d           2.686  -4.536   3.318  0.00  0.00     0.167 HD
ATOM     25  C5  <0> d           4.327  -6.863   1.930  0.00  0.00     0.085 A 
ATOM     26  C7  <0> d           5.460  -4.781   2.406  0.00  0.00     0.038 A 
ATOM     27  C4  <0> d           5.509  -7.369   1.383  0.00  0.00     0.034 A 
ATOM     28  N2  <0> d           3.080  -7.373   2.101  0.00  0.00    -0.231 NA
ATOM     29  C3  <0> d           6.632  -6.592   1.351  0.00  0.00     0.009 A 
ATOM     30  C2  <0> d           6.613  -5.300   1.857  0.00  0.00    -0.060 A 
ATOM     31  C1  <0> d           7.863  -4.460   1.812  0.00  0.00     0.048 C 
ENDBRANCH  19  21
ENDBRANCH  16  19
ENDBRANCH   1  15
BRANCH  11  32
ATOM     32  C21 <0> d          -4.699  -8.940  -2.002  0.00  0.00     0.141 C 
BRANCH  32  33
ATOM     33  C22 <0> d          -5.694  -9.550  -2.955  0.00  0.00    -0.049 A 
ATOM     34  C27 <0> d          -7.019  -9.156  -2.916  0.00  0.00     0.009 A 
ATOM     35  C26 <0> d          -7.931  -9.711  -3.793  0.00  0.00     0.024 A 
ATOM     36  C25 <0> d          -7.521 -10.670  -4.702  0.00  0.00     0.034 A 
ATOM     37  C24 <0> d          -6.197 -11.068  -4.737  0.00  0.00     0.024 A 
ATOM     38 Cl1  <0> d          -8.668 -11.373  -5.800  0.00  0.00    -0.084 Cl
ATOM     39  C23 <0> d          -5.284 -10.508  -3.863  0.00  0.00     0.009 A 
ENDBRANCH  32  33
ENDBRANCH  11  32
TORSDOF 5
