REMARK  1 active torsions:
REMARK  status: ('A' for Active; 'I' for Inactive)
REMARK    1  A    between atoms: C8_10  and  C9_12 
ROOT
ATOM      1  C1  <0> d          -0.018   1.503   0.010  0.00  0.00     0.049 C 
ATOM      2  C2  <0> d           0.002  -0.004   0.002  0.00  0.00    -0.042 A 
ATOM      3  C3  <0> d           0.006  -0.682  -1.197  0.00  0.00     0.042 A 
ATOM      4  C4  <0> d           0.025  -2.077  -1.203  0.00  0.00     0.093 A 
ATOM      5  C5  <0> d           0.041  -2.778   0.013  0.00  0.00     0.107 A 
ATOM      6  C6  <0> d           0.037  -2.080   1.211  0.00  0.00     0.059 A 
ATOM      7  C7  <0> d           0.023  -0.700   1.202  0.00  0.00     0.019 A 
ATOM      8 Br1  <0> d           0.025   0.249   2.838  0.00  0.00    -0.050 Br
ATOM      9  O1  <0> d           0.057  -4.090  -0.308  0.00  0.00    -0.293 OA
ATOM     10  C8  <0> d           0.052  -4.194  -1.646  0.00  0.00     0.151 A 
ATOM     11  N1  <0> d           0.033  -3.014  -2.190  0.00  0.00    -0.226 NA
ENDROOT
BRANCH  10  12
ATOM     12  C9  <0> d           0.066  -5.494  -2.409  0.00  0.00     0.066 C 
ATOM     13  C13 <0> d          -1.171  -6.318  -2.040  0.00  0.00     0.040 C 
ATOM     14  C12 <0> d          -1.110  -7.668  -2.757  0.00  0.00     0.233 C 
ATOM     15  N2  <0> d           0.101  -8.389  -2.347  0.00  0.00    -0.075 N 
ATOM     16  C11 <0> d           1.292  -7.639  -2.761  0.00  0.00     0.233 C 
ATOM     17  H11 <0> d           0.111  -9.301  -2.780  0.00  0.00     0.277 HD
ATOM     18  H16 <0> d           0.104  -8.496  -1.343  0.00  0.00     0.277 HD
ATOM     19  C10 <0> d           1.324  -6.288  -2.045  0.00  0.00     0.040 C 
ENDBRANCH  10  12
TORSDOF 1
