REMARK  2 active torsions:
REMARK  status: ('A' for Active; 'I' for Inactive)
REMARK    1  A    between atoms: C3_3  and  S1_9 
REMARK    2  A    between atoms: S1_9  and  N3_12 
ROOT
ATOM      1  S1  <0> d          -0.008  -0.247  -2.770  0.00  0.00     0.265 S 
ATOM      2  O1  <0> d          -0.548  -1.312  -3.541  0.00  0.00    -0.200 OA
ATOM      3  O2  <0> d          -0.578   1.055  -2.765  0.00  0.00    -0.200 OA
ENDROOT
BRANCH   1   4
ATOM      4  C3  <0> d           0.008  -0.796  -1.095  0.00  0.00     0.129 A 
ATOM      5  C2  <0> d           0.002  -0.004   0.002  0.00  0.00     0.049 A 
ATOM      6  C1  <0> d          -0.018   1.503   0.010  0.00  0.00     0.071 C 
ATOM      7  N2  <0> d           0.024  -0.805   1.088  0.00  0.00    -0.281 N 
ATOM      8  N1  <0> d           0.035  -2.134   0.643  0.00  0.00    -0.178 NA
ATOM      9  H1  <0> d           0.029  -0.513   2.013  0.00  0.00     0.189 HD
ATOM     10  C4  <0> d           0.028  -2.127  -0.666  0.00  0.00     0.076 A 
ATOM     11  C5  <0> d           0.040  -3.343  -1.556  0.00  0.00     0.074 C 
ENDBRANCH   1   4
BRANCH   1  12
ATOM     12  N3  <0> d           1.569  -0.072  -3.243  0.00  0.00    -0.303 N 
ATOM     13  C9  <0> d           2.306  -1.191  -3.852  0.00  0.00     0.161 C 
ATOM     14  C8  <0> d           3.637  -1.355  -3.119  0.00  0.00     0.188 C 
ATOM     15  O3  <0> d           4.313  -0.096  -3.079  0.00  0.00    -0.388 OA
ATOM     16  C7  <0> d           3.612   0.922  -2.361  0.00  0.00     0.188 C 
ATOM     17  C6  <0> d           2.277   1.205  -3.061  0.00  0.00     0.161 C 
ENDBRANCH   1  12
TORSDOF 2
