REMARK  4 active torsions:
REMARK  status: ('A' for Active; 'I' for Inactive)
REMARK    1  A    between atoms: N1_5  and  C5_7 
REMARK    2  A    between atoms: C5_7  and  C6_8 
REMARK    3  A    between atoms: C6_8  and  C7_9 
REMARK       I    between atoms: C7_9  and  N3_11 
REMARK    4  A    between atoms: N7_25  and  C18_26 
ROOT
ATOM      1  C7  <0> d           1.372  -6.634   1.910  0.00  0.00     0.221 C 
ATOM      2  O1  <0> d           0.468  -7.383   2.218  0.00  0.00    -0.273 OA
ATOM      3  N3  <0> d           2.591  -6.787   2.464  0.00  0.00    -0.349 N 
ATOM      4  C8  <0> d           3.768  -5.949   2.187  0.00  0.00     0.129 C 
ATOM      5  C9  <0> d           4.938  -6.509   3.027  0.00  0.00     0.060 C 
ATOM      6  C10 <0> d           4.491  -7.953   3.319  0.00  0.00     0.106 C 
ATOM      7  C11 <0> d           2.963  -7.817   3.453  0.00  0.00     0.165 C 
ATOM      8  C12 <0> d           5.099  -8.452   4.603  0.00  0.00     0.110 C 
ATOM      9  N4  <0> d           4.943  -9.801   4.878  0.00  0.00    -0.327 N 
ATOM     10  C13 <0> d           5.000 -10.696   3.802  0.00  0.00     0.155 A 
ATOM     11  C14 <0> d           4.943 -10.225   2.489  0.00  0.00     0.075 A 
ATOM     12  C15 <0> d           4.987 -11.130   1.439  0.00  0.00     0.034 A 
ATOM     13  C16 <0> d           5.095 -12.482   1.739  0.00  0.00     0.022 A 
ATOM     14  C17 <0> d           5.154 -12.877   3.060  0.00  0.00     0.119 A 
ATOM     15  N5  <0> d           5.106 -11.994   4.040  0.00  0.00    -0.241 NA
ATOM     16  N6  <0> d           4.855  -8.849   2.227  0.00  0.00    -0.369 N 
ATOM     17  N7  <0> d           5.735  -7.663   5.406  0.00  0.00    -0.369 N 
ATOM     18  H18 <0> d           5.033  -8.501   1.339  0.00  0.00     0.161 HD
ATOM     19  H19 <0> d           5.908  -6.744   5.148  0.00  0.00     0.161 HD
ATOM     20  H32 <0> d           4.798 -10.114   5.784  0.00  0.00     0.169 HD
ENDROOT
BRANCH  17  21
ATOM     21  C18 <0> d           6.195  -8.157   6.707  0.00  0.00     0.020 C 
ATOM     22  C19 <0> d           7.054  -9.406   6.503  0.00  0.00     0.037 C 
ATOM     23  C20 <0> d           7.026  -7.074   7.399  0.00  0.00     0.037 C 
ATOM     24  C21 <0> d           4.985  -8.505   7.576  0.00  0.00     0.037 C 
ENDBRANCH  17  21
BRANCH   1  25
ATOM     25  C6  <0> d           1.131  -5.534   0.909  0.00  0.00     0.125 C 
BRANCH  25  26
ATOM     26  C5  <0> d          -0.324  -5.581   0.439  0.00  0.00     0.160 C 
BRANCH  26  27
ATOM     27  N1  <0> d          -0.558  -4.512  -0.534  0.00  0.00    -0.274 N 
ATOM     28  C4  <0> d          -0.402  -4.607  -1.871  0.00  0.00     0.028 A 
ATOM     29  C3  <0> d          -0.717  -3.406  -2.410  0.00  0.00     0.055 A 
ATOM     30  C22 <0> d           0.044  -5.831  -2.629  0.00  0.00     0.070 C 
ATOM     31  C2  <0> d          -1.079  -2.548  -1.366  0.00  0.00     0.053 A 
ATOM     32  C1  <0> d          -1.504  -1.110  -1.512  0.00  0.00     0.072 C 
ATOM     33  N2  <0> d          -0.979  -3.208  -0.241  0.00  0.00    -0.177 NA
ENDBRANCH  26  27
ENDBRANCH  25  26
ENDBRANCH   1  25
TORSDOF 4
