REMARK  6 active torsions:
REMARK  status: ('A' for Active; 'I' for Inactive)
REMARK    1  A    between atoms: N1_5  and  C5_7 
REMARK    2  A    between atoms: C8_10  and  O1_13 
REMARK    3  A    between atoms: C14_19  and  C15_20 
REMARK    4  A    between atoms: C18_23  and  O3_26 
REMARK    5  A    between atoms: O3_26  and  C21_27 
REMARK    6  A    between atoms: C21_27  and  C22_28 
REMARK       I    between atoms: C22_28  and  N4_30 
ROOT
ATOM      1  C1  <0> d          -0.018   1.503   0.010  0.00  0.00     0.073 C 
ATOM      2  C2  <0> d           0.002  -0.004   0.002  0.00  0.00     0.062 A 
ATOM      3  C3  <0> d           0.008  -0.810  -1.127  0.00  0.00     0.023 A 
ATOM      4  C4  <0> d           0.032  -2.116  -0.713  0.00  0.00     0.141 A 
ATOM      5  N1  <0> d           0.032  -2.117   0.635  0.00  0.00    -0.217 N 
ATOM      6  N2  <0> d           0.023  -0.779   1.062  0.00  0.00    -0.170 NA
ATOM      7  N3  <0> d           0.064  -3.176  -1.619  0.00  0.00    -0.311 N 
ATOM      8  C12 <0> d           0.274  -2.892  -2.922  0.00  0.00     0.224 C 
ATOM      9  O2  <0> d           0.118  -3.767  -3.747  0.00  0.00    -0.273 OA
ATOM     10  C13 <0> d           0.695  -1.525  -3.383  0.00  0.00     0.117 C 
ATOM     11  C14 <0> d          -0.013  -0.426  -2.584  0.00  0.00     0.066 C 
ATOM     12  H12 <0> d          -0.061  -4.090  -1.322  0.00  0.00     0.170 HD
ENDROOT
BRANCH  11  13
ATOM     13  C15 <0> d          -1.439  -0.296  -3.054  0.00  0.00    -0.049 A 
ATOM     14  C20 <0> d          -1.894   0.911  -3.553  0.00  0.00     0.010 A 
ATOM     15  C19 <0> d          -3.199   1.031  -3.990  0.00  0.00     0.037 A 
ATOM     16  C18 <0> d          -4.057  -0.057  -3.917  0.00  0.00     0.069 A 
ATOM     17  C17 <0> d          -3.600  -1.265  -3.411  0.00  0.00     0.037 A 
ATOM     18  C16 <0> d          -2.292  -1.381  -2.980  0.00  0.00     0.010 A 
BRANCH  16  19
ATOM     19  O3  <0> d          -5.342   0.061  -4.342  0.00  0.00    -0.342 OA
BRANCH  19  20
ATOM     20  C21 <0> d          -5.744   1.334  -4.852  0.00  0.00     0.278 C 
BRANCH  20  21
ATOM     21  C22 <0> d          -7.190   1.274  -5.271  0.00  0.00     0.239 C 
ATOM     22  O4  <0> d          -7.815   0.242  -5.146  0.00  0.00    -0.271 OA
ATOM     23  N4  <0> d          -7.788   2.367  -5.785  0.00  0.00    -0.368 N 
ATOM     24  H21 <0> d          -7.288   3.192  -5.885  0.00  0.00     0.159 HD
ATOM     25  H22 <0> d          -8.719   2.328  -6.055  0.00  0.00     0.159 HD
ENDBRANCH  20  21
ENDBRANCH  19  20
ENDBRANCH  16  19
ENDBRANCH  11  13
BRANCH   5  26
ATOM     26  C5  <0> d           0.044  -3.250   1.463  0.00  0.00     0.060 A 
ATOM     27  C10 <0> d           0.734  -3.222   2.668  0.00  0.00     0.034 A 
ATOM     28  C9  <0> d           0.740  -4.335   3.485  0.00  0.00     0.039 A 
ATOM     29  C8  <0> d           0.068  -5.485   3.096  0.00  0.00     0.068 A 
ATOM     30  C7  <0> d          -0.615  -5.516   1.889  0.00  0.00     0.039 A 
ATOM     31  C6  <0> d          -0.628  -4.401   1.075  0.00  0.00     0.034 A 
BRANCH  29  32
ATOM     32  O1  <0> d           0.080  -6.583   3.898  0.00  0.00    -0.356 OA
ATOM     33  C11 <0> d           0.804  -6.481   5.126  0.00  0.00     0.210 C 
ENDBRANCH  29  32
ENDBRANCH   5  26
TORSDOF 6
