REMARK  3 active torsions:
REMARK  status: ('A' for Active; 'I' for Inactive)
REMARK    1  A    between atoms: C2_2  and  C3_3 
REMARK    2  A    between atoms: C2_2  and  N4_13 
REMARK       I    between atoms: N4_13  and  C10_14 
REMARK    3  A    between atoms: C10_14  and  C11_16 
ROOT
ATOM      1  C1  <0> d          -0.019   1.526   0.010  0.00  0.00     0.040 C 
ATOM      2  C2  <0> d           0.002  -0.004   0.002  0.00  0.00     0.152 C 
ENDROOT
BRANCH   2   3
ATOM      3  C3  <0> d           0.731  -0.503   1.223  0.00  0.00     0.152 A 
ATOM      4  N3  <0> d           1.979  -1.019   1.257  0.00  0.00    -0.319 N 
ATOM      5  C4  <0> d           2.219  -1.346   2.549  0.00  0.00     0.130 A 
ATOM      6  C5  <0> d           2.902  -1.180   0.133  0.00  0.00     0.132 C 
ATOM      7  N2  <0> d           1.160  -1.023   3.234  0.00  0.00    -0.135 NA
ATOM      8  C9  <0> d           3.484  -1.977   3.070  0.00  0.00     0.080 C 
ATOM      9  N1  <0> d           0.272  -0.524   2.446  0.00  0.00    -0.133 NA
ATOM     10  C8  <0> d           4.689  -1.233   2.499  0.00  0.00     0.008 C 
ATOM     11  C7  <0> d           5.084  -1.844   1.158  0.00  0.00     0.002 C 
ATOM     12  C6  <0> d           3.849  -2.350   0.415  0.00  0.00     0.020 C 
ENDBRANCH   2   3
BRANCH   2  13
ATOM     13  N4  <0> d          -1.372  -0.511   0.012  0.00  0.00    -0.348 N 
ATOM     14  C10 <0> d          -2.051  -0.643  -1.145  0.00  0.00     0.250 C 
ATOM     15  O1  <0> d          -1.524  -0.341  -2.194  0.00  0.00    -0.271 OA
ATOM     16  H16 <0> d          -1.794  -0.752   0.852  0.00  0.00     0.163 HD
BRANCH  14  17
ATOM     17  C11 <0> d          -3.465  -1.164  -1.134  0.00  0.00     0.287 C 
ATOM     18  N5  <0> d          -3.961  -1.240  -2.510  0.00  0.00    -0.053 N 
ATOM     19  C13 <0> d          -5.423  -1.097  -2.679  0.00  0.00     0.307 C 
ATOM     20  H21 <0> d          -3.509  -0.517  -3.048  0.00  0.00     0.279 HD
ATOM     21  H22 <0> d          -3.687  -2.132  -2.894  0.00  0.00     0.279 HD
ATOM     22  S1  <0> d          -6.001  -0.681  -0.979  0.00  0.00    -0.139 SA
ATOM     23  C12 <0> d          -4.355  -0.215  -0.279  0.00  0.00     0.118 C 
ENDBRANCH  14  17
ENDBRANCH   2  13
TORSDOF 3
