REMARK  2 active torsions:
REMARK  status: ('A' for Active; 'I' for Inactive)
REMARK    1  A    between atoms: C2_2  and  C3_3 
REMARK    2  A    between atoms: C5_6  and  C7_11 
ROOT
ATOM      1  C3  <0> d           0.731  -0.503   1.223  0.00  0.00     0.034 A 
ATOM      2  C4  <0> d           0.046  -0.852   2.347  0.00  0.00     0.044 A 
ATOM      3  N1  <0> d           0.708  -1.292   3.420  0.00  0.00    -0.239 NA
ATOM      4  C5  <0> d           2.010  -1.400   3.423  0.00  0.00     0.111 A 
ATOM      5  N2  <0> d           2.745  -1.071   2.342  0.00  0.00    -0.311 N 
ATOM      6  H1  <0> d           3.711  -1.158   2.368  0.00  0.00     0.170 HD
ATOM      7  C6  <0> d           2.136  -0.625   1.223  0.00  0.00     0.255 A 
ATOM      8  O1  <0> d           2.787  -0.328   0.235  0.00  0.00    -0.268 OA
ATOM      9  C12 <0> d          -1.456  -0.741   2.381  0.00  0.00     0.071 C 
ENDROOT
BRANCH   4  10
ATOM     10  C7  <0> d           2.705  -1.903   4.662  0.00  0.00     0.059 C 
ATOM     11  C11 <0> d           1.738  -2.767   5.476  0.00  0.00     0.038 C 
ATOM     12  C10 <0> d           2.427  -3.208   6.770  0.00  0.00     0.168 C 
ATOM     13  O2  <0> d           2.846  -2.055   7.503  0.00  0.00    -0.391 OA
ATOM     14  C9  <0> d           3.788  -1.234   6.809  0.00  0.00     0.168 C 
ATOM     15  C8  <0> d           3.153  -0.713   5.516  0.00  0.00     0.038 C 
ENDBRANCH   4  10
BRANCH   1  16
ATOM     16  C2  <0> d           0.002  -0.004   0.002  0.00  0.00     0.042 C 
ATOM     17  C1  <0> d          -0.019   1.526   0.010  0.00  0.00     0.010 C 
ENDBRANCH   1  16
TORSDOF 2
