REMARK  4 active torsions:
REMARK  status: ('A' for Active; 'I' for Inactive)
REMARK    1  A    between atoms: C5_5  and  C17_22 
REMARK    2  A    between atoms: N1_7  and  S1_8 
REMARK    3  A    between atoms: S1_8  and  C7_11 
REMARK    4  A    between atoms: C7_11  and  C8_12 
REMARK       I    between atoms: C17_22  and  N2_24 
ROOT
ATOM      1  S1  <0> d           1.415   0.561   2.252  0.00  0.00     0.230 S 
ATOM      2  O1  <0> d           2.641  -0.019   2.678  0.00  0.00    -0.206 OA
ATOM      3  O2  <0> d           1.397   1.829   1.612  0.00  0.00    -0.206 OA
ENDROOT
BRANCH   1   4
ATOM      4  N1  <0> d           0.819  -0.492   1.122  0.00  0.00    -0.306 N 
ATOM      5  C2  <0> d          -0.276  -0.089   0.228  0.00  0.00     0.091 C 
ATOM      6  C1  <0> d          -0.580   1.397   0.426  0.00  0.00     0.033 C 
ATOM      7  C3  <0> d           0.152  -0.337  -1.222  0.00  0.00     0.026 C 
ATOM      8  C4  <0> d           0.588  -1.796  -1.379  0.00  0.00     0.018 C 
ATOM      9  C5  <0> d           1.786  -2.073  -0.469  0.00  0.00     0.096 C 
ATOM     10  C6  <0> d           1.377  -1.845   0.990  0.00  0.00     0.149 C 
BRANCH   9  11
ATOM     11  C17 <0> d           2.235  -3.500  -0.649  0.00  0.00     0.221 C 
ATOM     12  O4  <0> d           2.232  -4.261   0.296  0.00  0.00    -0.273 OA
ATOM     13  N2  <0> d           2.640  -3.931  -1.860  0.00  0.00    -0.370 N 
ATOM     14  H27 <0> d           2.643  -3.323  -2.615  0.00  0.00     0.159 HD
ATOM     15  H28 <0> d           2.929  -4.850  -1.976  0.00  0.00     0.159 HD
ENDBRANCH   9  11
ENDBRANCH   1   4
BRANCH   1  16
ATOM     16  C7  <0> d           0.206   0.527   3.604  0.00  0.00     0.181 C 
BRANCH  16  17
ATOM     17  C8  <0> d           0.659   1.473   4.718  0.00  0.00     0.042 C 
ATOM     18  C12 <0> d          -0.280   1.565   5.972  0.00  0.00    -0.028 C 
ATOM     19  C11 <0> d           0.597   2.610   6.749  0.00  0.00     0.001 C 
ATOM     20  C13 <0> d          -1.661   2.122   5.618  0.00  0.00     0.016 C 
ATOM     21  C14 <0> d          -0.379   0.231   6.715  0.00  0.00     0.016 C 
ATOM     22  C10 <0> d           0.721   3.735   5.676  0.00  0.00     0.007 C 
ATOM     23  C15 <0> d           1.988   1.904   6.731  0.00  0.00     0.084 C 
ATOM     24  C9  <0> d           0.768   2.979   4.328  0.00  0.00     0.019 C 
ATOM     25  C16 <0> d           1.998   1.130   5.384  0.00  0.00     0.137 C 
ATOM     26  O3  <0> d           2.877   0.428   4.944  0.00  0.00    -0.297 OA
ENDBRANCH  16  17
ENDBRANCH   1  16
TORSDOF 4
