REMARK  3 active torsions:
REMARK  status: ('A' for Active; 'I' for Inactive)
REMARK    1  A    between atoms: C6_6  and  N1_7 
REMARK    2  A    between atoms: N1_7  and  C7_8 
REMARK    3  A    between atoms: N3_15  and  C12_18 
ROOT
ATOM      1  C7  <0> d          -1.195  -2.096  -0.219  0.00  0.00     0.111 C 
ATOM      2  C8  <0> d          -2.369  -2.792   0.005  0.00  0.00     0.115 A 
ATOM      3  C9  <0> d          -2.367  -4.247   0.243  0.00  0.00     0.264 A 
ATOM      4  O1  <0> d          -1.327  -4.878   0.249  0.00  0.00    -0.267 OA
ATOM      5  N2  <0> d          -3.550  -4.859   0.454  0.00  0.00    -0.299 N 
ATOM      6  C10 <0> d          -4.704  -4.176   0.450  0.00  0.00     0.184 A 
ATOM      7  S1  <0> d          -6.157  -5.038   0.728  0.00  0.00    -0.040 SA
ATOM      8  N3  <0> d          -4.780  -2.854   0.242  0.00  0.00    -0.285 N 
ATOM      9  C11 <0> d          -3.676  -2.111   0.022  0.00  0.00     0.267 A 
ATOM     10  O2  <0> d          -3.757  -0.911  -0.161  0.00  0.00    -0.267 OA
ATOM     11  H7  <0> d          -3.567  -5.816   0.612  0.00  0.00     0.171 HD
ENDROOT
BRANCH   1  12
ATOM     12  N1  <0> d          -1.215  -0.750  -0.303  0.00  0.00    -0.365 N 
ATOM     13  H5  <0> d          -2.060  -0.275  -0.281  0.00  0.00     0.165 HD
BRANCH  12  14
ATOM     14  C6  <0> d          -0.016  -0.039  -0.420  0.00  0.00     0.032 A 
ATOM     15  C1  <0> d          -0.035   1.347  -0.505  0.00  0.00     0.032 A 
ATOM     16  C2  <0> d           1.150   2.047  -0.621  0.00  0.00     0.044 A 
ATOM     17  C3  <0> d           2.357   1.368  -0.650  0.00  0.00     0.116 A 
ATOM     18  C4  <0> d           2.378  -0.014  -0.565  0.00  0.00     0.044 A 
ATOM     19  F1  <0> d           3.515   2.054  -0.763  0.00  0.00    -0.206 F 
ATOM     20  C5  <0> d           1.195  -0.718  -0.451  0.00  0.00     0.032 A 
ENDBRANCH  12  14
ENDBRANCH   1  12
BRANCH   8  21
ATOM     21  C12 <0> d          -6.091  -2.201   0.258  0.00  0.00     0.096 A 
ATOM     22  C14 <0> d          -6.865  -2.205   1.578  0.00  0.00     0.028 A 
ATOM     23  C13 <0> d          -6.227  -0.911   1.069  0.00  0.00     0.028 A 
ENDBRANCH   8  21
TORSDOF 3
