REMARK  3 active torsions:
REMARK  status: ('A' for Active; 'I' for Inactive)
REMARK    1  A    between atoms: C5_8  and  C6_9 
REMARK    2  A    between atoms: C8_11  and  O4_17 
REMARK    3  A    between atoms: C9_12  and  O3_16 
ROOT
ATOM      1  C6  <0> d           3.717   2.752   0.010  0.00  0.00    -0.031 A 
ATOM      2  C7  <0> d           3.130   2.258  -1.165  0.00  0.00     0.051 A 
ATOM      3  C8  <0> d           1.855   1.733  -1.126  0.00  0.00     0.103 A 
ATOM      4  C9  <0> d           1.152   1.694   0.079  0.00  0.00     0.116 A 
ATOM      5  C10 <0> d           1.730   2.188   1.244  0.00  0.00     0.047 A 
ATOM      6  C11 <0> d           3.004   2.709   1.217  0.00  0.00     0.033 A 
ATOM      7 Br1  <0> d           0.765   2.138   2.869  0.00  0.00    -0.048 Br
ENDROOT
BRANCH   1   8
ATOM      8  C5  <0> d           5.069   3.310  -0.024  0.00  0.00     0.031 C 
ATOM      9  C4  <0> d           5.917   3.134   1.054  0.00  0.00     0.068 A 
ATOM     10  C2  <0> d           7.249   3.728   1.305  0.00  0.00     0.074 A 
ATOM     11  C3  <0> d           5.737   2.296   2.260  0.00  0.00     0.319 A 
ATOM     12  C1  <0> d           8.000   4.686   0.417  0.00  0.00     0.074 C 
ATOM     13  N1  <0> d           7.633   3.256   2.448  0.00  0.00    -0.129 NA
ATOM     14  O1  <0> d           6.862   2.498   2.974  0.00  0.00    -0.170 OA
ATOM     15  O2  <0> d           4.790   1.586   2.543  0.00  0.00    -0.257 OA
ENDBRANCH   1   8
BRANCH   3  16
ATOM     16  O4  <0> d           1.283   1.253  -2.262  0.00  0.00    -0.353 OA
ATOM     17  C12 <0> d           2.059   1.324  -3.460  0.00  0.00     0.210 C 
ENDBRANCH   3  16
BRANCH   4  18
ATOM     18  O3  <0> d          -0.103   1.177   0.114  0.00  0.00    -0.357 OA
ATOM     19  H7  <0> d          -0.132   0.227   0.293  0.00  0.00     0.218 HD
ENDBRANCH   4  18
TORSDOF 3
