REMARK  2 active torsions:
REMARK  status: ('A' for Active; 'I' for Inactive)
REMARK    1  A    between atoms: C4_4  and  N2_10 
REMARK    2  A    between atoms: N2_10  and  C9_11 
ROOT
ATOM      1  C1  <0> d          -0.019   1.529   0.010  0.00  0.00     0.037 C 
ATOM      2  C2  <0> d           0.002  -0.004   0.002  0.00  0.00     0.021 C 
ATOM      3  C3  <0> d          -1.424  -0.533  -0.127  0.00  0.00     0.063 C 
ATOM      4  C4  <0> d          -2.169  -0.385   1.200  0.00  0.00     0.191 C 
ATOM      5  C5  <0> d          -1.424  -1.188   2.266  0.00  0.00     0.063 C 
ATOM      6  C6  <0> d           0.001  -0.665   2.425  0.00  0.00     0.021 C 
ATOM      7  N1  <0> d           0.695  -0.524   1.162  0.00  0.00    -0.405 N 
ATOM      8  C7  <0> d           0.776  -1.683   3.291  0.00  0.00     0.037 C 
ATOM      9  C8  <0> d          -0.023   0.661   3.195  0.00  0.00     0.037 C 
ATOM     10  C13 <0> d           0.777  -0.444  -1.260  0.00  0.00     0.037 C 
ATOM     11  H26 <0> d           1.269  -1.325   0.944  0.00  0.00     0.154 HD
ENDROOT
BRANCH   4  12
ATOM     12  N2  <0> d          -3.532  -0.920   1.053  0.00  0.00    -0.066 N 
ATOM     13  H16 <0> d          -3.991  -0.464   0.279  0.00  0.00     0.278 HD
ATOM     14  H27 <0> d          -3.487  -1.913   0.880  0.00  0.00     0.278 HD
BRANCH  12  15
ATOM     15  C9  <0> d          -4.291  -0.672   2.286  0.00  0.00     0.201 C 
ATOM     16  C12 <0> d          -5.672  -1.365   2.188  0.00  0.00     0.173 C 
ATOM     17  S1  <0> d          -6.754  -0.251   3.172  0.00  0.00     0.146 S 
ATOM     18  C11 <0> d          -5.534   1.064   3.595  0.00  0.00     0.142 C 
ATOM     19  O1  <0> d          -7.144  -0.919   4.364  0.00  0.00    -0.228 OA
ATOM     20  O2  <0> d          -7.750   0.298   2.320  0.00  0.00    -0.228 OA
ATOM     21  C10 <0> d          -4.478   0.842   2.475  0.00  0.00     0.049 C 
ENDBRANCH  12  15
ENDBRANCH   4  12
TORSDOF 2
