REMARK  6 active torsions:
REMARK  status: ('A' for Active; 'I' for Inactive)
REMARK    1  A    between atoms: C5_5  and  C6_7 
REMARK    2  A    between atoms: C6_7  and  C7_8 
REMARK    3  A    between atoms: C6_7  and  N3_23 
REMARK    4  A    between atoms: C7_8  and  N1_9 
REMARK       I    between atoms: N1_9  and  C8_10 
REMARK    5  A    between atoms: C8_10  and  C9_12 
REMARK    6  A    between atoms: N2_16  and  C13_18 
ROOT
ATOM      1  N1  <0> d           3.492  -4.396  -1.197  0.00  0.00    -0.358 N 
ATOM      2  C8  <0> d           4.304  -4.671  -2.237  0.00  0.00     0.223 C 
ATOM      3  O2  <0> d           4.100  -4.159  -3.317  0.00  0.00    -0.273 OA
ATOM      4  H10 <0> d           3.655  -4.805  -0.333  0.00  0.00     0.162 HD
ENDROOT
BRANCH   1   5
ATOM      5  C7  <0> d           2.363  -3.479  -1.372  0.00  0.00     0.165 C 
BRANCH   5   6
ATOM      6  C6  <0> d           1.685  -3.241  -0.021  0.00  0.00     0.297 C 
BRANCH   6   7
ATOM      7  C5  <0> d           2.633  -2.512   0.895  0.00  0.00     0.088 A 
ATOM      8  C4  <0> d           2.617  -1.192   1.154  0.00  0.00     0.037 A 
ATOM      9  C3  <0> d           3.673  -0.940   2.060  0.00  0.00     0.035 A 
ATOM     10  C2  <0> d           4.270  -2.121   2.301  0.00  0.00     0.049 A 
ATOM     11  C1  <0> d           5.451  -2.342   3.210  0.00  0.00     0.076 C 
ATOM     12  O1  <0> d           3.640  -3.068   1.588  0.00  0.00    -0.318 OA
ENDBRANCH   6   7
BRANCH   6  13
ATOM     13  N3  <0> d           1.321  -4.532   0.578  0.00  0.00     0.105 N 
ATOM     14  C21 <0> d           0.719  -4.346   1.906  0.00  0.00     0.299 C 
ATOM     15  C20 <0> d           0.410  -5.715   2.518  0.00  0.00     0.198 C 
ATOM     16  O4  <0> d          -0.445  -6.444   1.634  0.00  0.00    -0.388 OA
ATOM     17  C19 <0> d           0.110  -6.645   0.331  0.00  0.00     0.198 C 
ATOM     18  C18 <0> d           0.416  -5.285  -0.303  0.00  0.00     0.299 C 
ENDBRANCH   6  13
ENDBRANCH   5   6
ENDBRANCH   1   5
BRANCH   2  19
ATOM     19  C9  <0> d           5.466  -5.614  -2.057  0.00  0.00     0.104 C 
ATOM     20  C12 <0> d           6.208  -5.839  -3.393  0.00  0.00     0.141 C 
ATOM     21  N2  <0> d           5.592  -7.033  -3.985  0.00  0.00    -0.347 N 
ATOM     22  C11 <0> d           4.898  -7.730  -3.070  0.00  0.00     0.221 C 
ATOM     23  C10 <0> d           4.973  -7.042  -1.725  0.00  0.00     0.118 C 
ATOM     24  O3  <0> d           4.298  -8.761  -3.290  0.00  0.00    -0.273 OA
BRANCH  21  25
ATOM     25  C13 <0> d           5.719  -7.416  -5.394  0.00  0.00     0.087 C 
ATOM     26  C17 <0> d           6.381  -8.801  -5.506  0.00  0.00     0.025 C 
ATOM     27  C16 <0> d           5.362  -9.720  -6.212  0.00  0.00     0.002 C 
ATOM     28  C15 <0> d           4.455  -8.745  -7.002  0.00  0.00     0.002 C 
ATOM     29  C14 <0> d           4.322  -7.542  -6.035  0.00  0.00     0.025 C 
ENDBRANCH  21  25
ENDBRANCH   2  19
TORSDOF 6
