REMARK  5 active torsions:
REMARK  status: ('A' for Active; 'I' for Inactive)
REMARK    1  A    between atoms: C5_7  and  C6_8 
REMARK       I    between atoms: C6_8  and  N2_10 
REMARK    2  A    between atoms: N2_10  and  C7_11 
REMARK    3  A    between atoms: C7_11  and  C8_12 
REMARK    4  A    between atoms: C8_12  and  N3_13 
REMARK    5  A    between atoms: N3_13  and  C10_15 
ROOT
ATOM      1  C1  <0> d          -0.018   1.503   0.010  0.00  0.00     0.052 C 
ATOM      2  C2  <0> d           0.002  -0.004   0.002  0.00  0.00    -0.014 A 
ATOM      3  C3  <0> d           0.008  -0.834  -1.125  0.00  0.00     0.041 A 
ATOM      4  C4  <0> d           0.026  -2.155  -0.678  0.00  0.00     0.024 A 
ATOM      5  N1  <0> d           0.034  -2.137   0.655  0.00  0.00    -0.354 N 
ATOM      6  H1  <0> d           0.048  -2.920   1.227  0.00  0.00     0.166 HD
ATOM      7  C5  <0> d           0.024  -0.827   1.094  0.00  0.00     0.108 A 
ATOM      8  C13 <0> d           0.031  -3.337  -1.615  0.00  0.00     0.058 C 
ATOM      9  C14 <0> d          -0.488  -2.895  -2.987  0.00  0.00     0.014 C 
ATOM     10  C15 <0> d           0.287  -1.674  -3.491  0.00  0.00     0.084 C 
ATOM     11  C16 <0> d           0.002  -0.505  -2.559  0.00  0.00     0.162 C 
ATOM     12  O2  <0> d          -0.215   0.616  -2.969  0.00  0.00    -0.292 OA
ENDROOT
BRANCH   7  13
ATOM     13  C6  <0> d           0.032  -0.391   2.496  0.00  0.00     0.268 C 
ATOM     14  O1  <0> d           0.019   0.795   2.765  0.00  0.00    -0.266 OA
ATOM     15  N2  <0> d           0.055  -1.306   3.486  0.00  0.00    -0.354 N 
ATOM     16  H5  <0> d           0.065  -2.252   3.271  0.00  0.00     0.162 HD
BRANCH  15  17
ATOM     17  C7  <0> d           0.063  -0.872   4.885  0.00  0.00     0.150 C 
BRANCH  17  18
ATOM     18  C8  <0> d           0.088  -2.098   5.799  0.00  0.00     0.254 C 
BRANCH  18  19
ATOM     19  N3  <0> d           0.097  -1.663   7.202  0.00  0.00    -0.069 N 
ATOM     20  C9  <0> d           1.345  -0.942   7.484  0.00  0.00     0.270 C 
ATOM     21  H24 <0> d          -0.689  -1.052   7.370  0.00  0.00     0.280 HD
BRANCH  19  22
ATOM     22  C10 <0> d           0.001  -2.837   8.080  0.00  0.00     0.188 A 
ATOM     23  C12 <0> d          -0.006  -2.591   9.590  0.00  0.00     0.035 A 
ATOM     24  C11 <0> d          -1.292  -3.017   8.879  0.00  0.00     0.035 A 
ENDBRANCH  19  22
ENDBRANCH  18  19
ENDBRANCH  17  18
ENDBRANCH  15  17
ENDBRANCH   7  13
TORSDOF 5
