REMARK  5 active torsions:
REMARK  status: ('A' for Active; 'I' for Inactive)
REMARK    1  A    between atoms: C2_2  and  O1_3 
REMARK    2  A    between atoms: O1_3  and  C3_4 
REMARK    3  A    between atoms: C3_4  and  C4_6 
REMARK    4  A    between atoms: C8_10  and  N1_15 
REMARK       I    between atoms: N1_15  and  C12_16 
REMARK    5  A    between atoms: C12_16  and  C13_18 
ROOT
ATOM      1  N1  <0> d          -5.847  -7.857  -0.248  0.00  0.00    -0.323 N 
ATOM      2  C12 <0> d          -6.600  -8.675   0.514  0.00  0.00     0.261 C 
ATOM      3  O3  <0> d          -6.885  -8.353   1.652  0.00  0.00    -0.267 OA
ATOM      4  H12 <0> d          -5.688  -8.074  -1.181  0.00  0.00     0.169 HD
ENDROOT
BRANCH   1   5
ATOM      5  C8  <0> d          -5.294  -6.696   0.305  0.00  0.00     0.035 A 
ATOM      6  C7  <0> d          -4.011  -6.316  -0.042  0.00  0.00     0.038 A 
ATOM      7  C6  <0> d          -3.430  -5.163   0.491  0.00  0.00    -0.038 A 
ATOM      8  C5  <0> d          -2.041  -4.645   0.211  0.00  0.00     0.065 C 
ATOM      9  C11 <0> d          -4.204  -4.410   1.371  0.00  0.00     0.007 A 
ATOM     10  C4  <0> d          -1.911  -3.142   0.545  0.00  0.00     0.156 C 
ATOM     11  S1  <0> d          -3.221  -2.997   1.829  0.00  0.00    -0.114 SA
ATOM     12  C10 <0> d          -5.484  -4.789   1.729  0.00  0.00     0.021 A 
ATOM     13  C9  <0> d          -6.040  -5.936   1.197  0.00  0.00     0.031 A 
BRANCH  10  14
ATOM     14  C3  <0> d          -0.551  -2.820   1.109  0.00  0.00     0.273 C 
ATOM     15  O2  <0> d           0.086  -3.676   1.676  0.00  0.00    -0.264 OA
BRANCH  14  16
ATOM     16  O1  <0> d          -0.047  -1.582   0.982  0.00  0.00    -0.321 OA
BRANCH  16  17
ATOM     17  C2  <0> d           1.247  -1.348   1.541  0.00  0.00     0.174 C 
ATOM     18  C1  <0> d           1.650   0.108   1.299  0.00  0.00     0.034 C 
ENDBRANCH  16  17
ENDBRANCH  14  16
ENDBRANCH  10  14
ENDBRANCH   1   5
BRANCH   2  19
ATOM     19  C13 <0> d          -7.077  -9.956  -0.030  0.00  0.00     0.101 A 
ATOM     20  C17 <0> d          -6.646 -10.420  -1.352  0.00  0.00     0.261 A 
ATOM     21  N2  <0> d          -7.095 -11.594  -1.826  0.00  0.00    -0.326 N 
ATOM     22  O4  <0> d          -5.881  -9.745  -2.016  0.00  0.00    -0.267 OA
ATOM     23  C16 <0> d          -7.949 -12.367  -1.127  0.00  0.00     0.026 A 
ATOM     24  H20 <0> d          -6.797 -11.892  -2.700  0.00  0.00     0.169 HD
ATOM     25  C15 <0> d          -8.385 -11.975   0.128  0.00  0.00     0.033 A 
ATOM     26  C18 <0> d          -8.417 -13.656  -1.753  0.00  0.00     0.058 C 
ATOM     27  C14 <0> d          -7.953 -10.755   0.692  0.00  0.00     0.040 A 
ATOM     28  C21 <0> d          -9.304 -12.831   0.898  0.00  0.00     0.161 C 
ATOM     29  C20 <0> d          -9.959 -13.992   0.180  0.00  0.00     0.084 C 
ATOM     30  O5  <0> d          -9.530 -12.612   2.069  0.00  0.00    -0.292 OA
ATOM     31  C19 <0> d          -8.883 -14.651  -0.694  0.00  0.00     0.014 C 
ENDBRANCH   2  19
TORSDOF 5
