REMARK  3 active torsions:
REMARK  status: ('A' for Active; 'I' for Inactive)
REMARK    1  A    between atoms: C7_7  and  N1_8 
REMARK    2  A    between atoms: N1_8  and  S1_9 
REMARK    3  A    between atoms: S1_9  and  C8_12 
ROOT
ATOM      1  C8  <0> d           3.271   1.978   2.389  0.00  0.00     0.088 A 
ATOM      2  C9  <0> d           4.042   1.246   3.275  0.00  0.00     0.065 A 
ATOM      3  C10 <0> d           3.670   1.160   4.605  0.00  0.00     0.097 A 
ATOM      4  C11 <0> d           2.513   1.803   5.045  0.00  0.00     0.069 A 
ATOM      5  C12 <0> d           1.743   2.530   4.152  0.00  0.00     0.040 A 
ATOM      6  C13 <0> d           2.125   2.615   2.826  0.00  0.00    -0.036 A 
ATOM      7  C14 <0> d           1.288   3.406   1.853  0.00  0.00     0.050 C 
ATOM      8  N2  <0> d           2.144   1.702   6.394  0.00  0.00    -0.323 N 
ATOM      9  C15 <0> d           3.055   1.266   7.291  0.00  0.00     0.246 C 
ATOM     10  O3  <0> d           2.749   1.143   8.458  0.00  0.00    -0.271 OA
ATOM     11  C16 <0> d           4.454   0.935   6.836  0.00  0.00     0.278 C 
ATOM     12  O4  <0> d           4.419   0.451   5.491  0.00  0.00    -0.340 OA
ATOM     13  H13 <0> d           1.248   1.942   6.678  0.00  0.00     0.169 HD
ENDROOT
BRANCH   1  14
ATOM     14  S1  <0> d           3.749   2.091   0.697  0.00  0.00     0.263 S 
ATOM     15  O1  <0> d           2.595   1.781  -0.072  0.00  0.00    -0.200 OA
ATOM     16  O2  <0> d           4.966   1.370   0.569  0.00  0.00    -0.200 OA
BRANCH  14  17
ATOM     17  N1  <0> d           4.106   3.680   0.395  0.00  0.00    -0.280 N 
ATOM     18  H7  <0> d           3.608   4.169  -0.279  0.00  0.00     0.179 HD
BRANCH  17  19
ATOM     19  C7  <0> d           5.124   4.315   1.110  0.00  0.00     0.051 A 
ATOM     20  C2  <0> d           4.999   5.655   1.456  0.00  0.00    -0.035 A 
ATOM     21  C1  <0> d           3.766   6.424   1.060  0.00  0.00     0.050 C 
ATOM     22  C3  <0> d           6.009   6.283   2.159  0.00  0.00     0.012 A 
ATOM     23  C4  <0> d           7.139   5.577   2.528  0.00  0.00     0.043 A 
ATOM     24  C5  <0> d           7.268   4.241   2.184  0.00  0.00     0.118 A 
ATOM     25  C6  <0> d           6.262   3.609   1.476  0.00  0.00     0.072 A 
ATOM     26  F1  <0> d           8.376   3.555   2.542  0.00  0.00    -0.206 F 
ENDBRANCH  17  19
ENDBRANCH  14  17
ENDBRANCH   1  14
TORSDOF 3
