REMARK  7 active torsions:
REMARK  status: ('A' for Active; 'I' for Inactive)
REMARK    1  A    between atoms: C2_2  and  C4_4 
REMARK    2  A    between atoms: C4_4  and  C5_5 
REMARK    3  A    between atoms: C5_5  and  C6_6 
REMARK    4  A    between atoms: C5_5  and  N3_21 
REMARK    5  A    between atoms: C6_6  and  N1_7 
REMARK    6  A    between atoms: N1_7  and  S1_8 
REMARK    7  A    between atoms: S1_8  and  C7_11 
ROOT
ATOM      1  N1  <0> d          -3.447  -2.246   1.178  0.00  0.00    -0.313 N 
ATOM      2  H13 <0> d          -2.864  -2.153   1.947  0.00  0.00     0.172 HD
ENDROOT
BRANCH   1   3
ATOM      3  C6  <0> d          -2.875  -2.342  -0.168  0.00  0.00     0.168 C 
BRANCH   3   4
ATOM      4  C5  <0> d          -1.425  -1.855  -0.141  0.00  0.00     0.241 C 
BRANCH   4   5
ATOM      5  C4  <0> d          -1.393  -0.365   0.201  0.00  0.00     0.041 C 
BRANCH   5   6
ATOM      6  C2  <0> d           0.059   0.094   0.350  0.00  0.00    -0.021 C 
ATOM      7  C1  <0> d           0.096   1.607   0.569  0.00  0.00     0.009 C 
ATOM      8  C3  <0> d           0.696  -0.611   1.549  0.00  0.00     0.009 C 
ENDBRANCH   5   6
ENDBRANCH   4   5
BRANCH   4   9
ATOM      9  N3  <0> d          -0.813  -2.068  -1.460  0.00  0.00     0.098 N 
ATOM     10  C18 <0> d          -0.597  -3.499  -1.716  0.00  0.00     0.300 C 
ATOM     11  C17 <0> d           0.094  -3.673  -3.070  0.00  0.00     0.264 C 
ATOM     12  N4  <0> d          -0.744  -3.091  -4.126  0.00  0.00    -0.072 N 
ATOM     13  C16 <0> d          -0.930  -1.656  -3.870  0.00  0.00     0.264 C 
ATOM     14  C19 <0> d          -0.088  -3.274  -5.428  0.00  0.00     0.269 C 
ATOM     15  H31 <0> d          -1.642  -3.550  -4.135  0.00  0.00     0.279 HD
ATOM     16  C15 <0> d          -1.630  -1.465  -2.523  0.00  0.00     0.300 C 
ENDBRANCH   4   9
ENDBRANCH   3   4
ENDBRANCH   1   3
BRANCH   1  17
ATOM     17  S1  <0> d          -5.089  -2.296   1.385  0.00  0.00     0.258 S 
ATOM     18  O1  <0> d          -5.325  -2.208   2.784  0.00  0.00    -0.201 OA
ATOM     19  O2  <0> d          -5.644  -1.371   0.459  0.00  0.00    -0.201 OA
BRANCH  17  20
ATOM     20  C7  <0> d          -5.629  -3.896   0.883  0.00  0.00     0.080 A 
ATOM     21  C12 <0> d          -5.689  -4.928   1.802  0.00  0.00     0.035 A 
ATOM     22  C11 <0> d          -6.116  -6.176   1.407  0.00  0.00    -0.021 A 
ATOM     23  C10 <0> d          -6.481  -6.419   0.089  0.00  0.00     0.041 A 
ATOM     24  C13 <0> d          -6.295  -7.483   2.145  0.00  0.00     0.144 A 
ATOM     25  C9  <0> d          -6.413  -5.375  -0.832  0.00  0.00     0.031 A 
ATOM     26  N2  <0> d          -6.870  -7.749  -0.067  0.00  0.00    -0.326 N 
ATOM     27  C8  <0> d          -5.989  -4.125  -0.433  0.00  0.00     0.027 A 
ATOM     28  C14 <0> d          -6.792  -8.440   1.083  0.00  0.00     0.226 A 
ATOM     29  H19 <0> d          -7.164  -8.132  -0.908  0.00  0.00     0.169 HD
ATOM     30  O3  <0> d          -7.067  -9.611   1.240  0.00  0.00    -0.273 OA
ENDBRANCH  17  20
ENDBRANCH   1  17
TORSDOF 7
