REMARK  4 active torsions:
REMARK  status: ('A' for Active; 'I' for Inactive)
REMARK    1  A    between atoms: C3_4  and  N4_20 
REMARK    2  A    between atoms: N2_6  and  C5_7 
REMARK    3  A    between atoms: C5_7  and  C6_8 
REMARK       I    between atoms: C6_8  and  N3_10 
REMARK    4  A    between atoms: N3_10  and  C7_11 
ROOT
ATOM      1  C6  <0> d          -1.385  -0.101   2.945  0.00  0.00     0.240 C 
ATOM      2  O1  <0> d          -2.307  -0.268   2.175  0.00  0.00    -0.271 OA
ATOM      3  N3  <0> d          -1.625   0.316   4.204  0.00  0.00    -0.326 N 
ATOM      4  H7  <0> d          -0.895   0.385   4.839  0.00  0.00     0.169 HD
ENDROOT
BRANCH   1   5
ATOM      5  C5  <0> d           0.030  -0.359   2.493  0.00  0.00     0.232 C 
BRANCH   5   6
ATOM      6  N2  <0> d           0.023  -0.800   1.096  0.00  0.00    -0.333 N 
ATOM      7  C2  <0> d           0.010  -0.004   0.005  0.00  0.00     0.105 A 
ATOM      8  C1  <0> d          -0.000   1.503   0.017  0.00  0.00     0.091 C 
ATOM      9  N1  <0> d           0.014  -0.755  -1.062  0.00  0.00    -0.211 NA
ATOM     10  C3  <0> d           0.024  -2.045  -0.693  0.00  0.00     0.212 A 
ATOM     11  C4  <0> d           0.027  -2.095   0.652  0.00  0.00     0.149 A 
BRANCH  10  12
ATOM     12  N4  <0> d           0.030  -3.210  -1.607  0.00  0.00    -0.095 N 
ATOM     13  O2  <0> d           0.027  -3.040  -2.804  0.00  0.00    -0.530 OA
ATOM     14  O3  <0> d           0.039  -4.332  -1.155  0.00  0.00    -0.530 OA
ENDBRANCH  10  12
ENDBRANCH   5   6
ENDBRANCH   1   5
BRANCH   3  15
ATOM     15  C7  <0> d          -2.926   0.649   4.595  0.00  0.00     0.040 A 
ATOM     16  C12 <0> d          -4.008  -0.055   4.082  0.00  0.00     0.073 A 
ATOM     17  C11 <0> d          -5.293   0.271   4.474  0.00  0.00     0.138 A 
ATOM     18  C10 <0> d          -5.503   1.308   5.368  0.00  0.00     0.083 A 
ATOM     19  F1  <0> d          -6.345  -0.418   3.981  0.00  0.00    -0.205 F 
ATOM     20  C9  <0> d          -4.426   2.016   5.876  0.00  0.00     0.138 A 
ATOM     21  I1  <0> d          -7.452   1.807   5.953  0.00  0.00    -0.038 I 
ATOM     22  C8  <0> d          -3.139   1.688   5.491  0.00  0.00     0.073 A 
ATOM     23  F2  <0> d          -4.634   3.026   6.748  0.00  0.00    -0.205 F 
ENDBRANCH   3  15
TORSDOF 4
