REMARK  5 active torsions:
REMARK  status: ('A' for Active; 'I' for Inactive)
REMARK    1  A    between atoms: N1_2  and  C3_4 
REMARK    2  A    between atoms: C3_4  and  C4_5 
REMARK    3  A    between atoms: C4_5  and  N2_6 
REMARK    4  A    between atoms: N2_6  and  C5_7 
REMARK    5  A    between atoms: N4_13  and  C10_16 
ROOT
ATOM      1  C5  <0> d          -2.959  -3.869  -0.162  0.00  0.00     0.106 C 
ATOM      2  C6  <0> d          -4.250  -4.357  -0.077  0.00  0.00     0.116 A 
ATOM      3  C7  <0> d          -4.529  -5.803  -0.105  0.00  0.00     0.266 A 
ATOM      4  N3  <0> d          -5.813  -6.207  -0.017  0.00  0.00    -0.274 N 
ATOM      5  C8  <0> d          -6.818  -5.327   0.094  0.00  0.00     0.337 A 
ATOM      6  O1  <0> d          -7.952  -5.755   0.170  0.00  0.00    -0.246 OA
ATOM      7  N4  <0> d          -6.637  -3.999   0.126  0.00  0.00    -0.229 N 
ATOM      8  C9  <0> d          -5.406  -3.453   0.052  0.00  0.00     0.273 A 
ATOM      9  O2  <0> d          -5.255  -2.246   0.088  0.00  0.00    -0.266 OA
ATOM     10  O3  <0> d          -3.625  -6.612  -0.205  0.00  0.00    -0.267 OA
ATOM     11  H16 <0> d          -6.014  -7.156  -0.034  0.00  0.00     0.173 HD
ENDROOT
BRANCH   1  12
ATOM     12  N2  <0> d          -2.723  -2.552   0.004  0.00  0.00    -0.396 N 
ATOM     13  H17 <0> d          -3.465  -1.936   0.110  0.00  0.00     0.158 HD
BRANCH  12  14
ATOM     14  C4  <0> d          -1.347  -2.051   0.026  0.00  0.00     0.146 C 
BRANCH  14  15
ATOM     15  C3  <0> d          -1.359  -0.534   0.227  0.00  0.00     0.253 C 
BRANCH  15  16
ATOM     16  N1  <0> d           0.021  -0.032   0.248  0.00  0.00    -0.077 N 
ATOM     17  C1  <0> d           0.007   1.435   0.321  0.00  0.00     0.269 C 
ATOM     18  C2  <0> d           0.721  -0.574   1.420  0.00  0.00     0.269 C 
ATOM     19  H18 <0> d           0.498  -0.322  -0.592  0.00  0.00     0.279 HD
ENDBRANCH  15  16
ENDBRANCH  14  15
ENDBRANCH  12  14
ENDBRANCH   1  12
BRANCH   7  20
ATOM     20  C10 <0> d          -7.754  -3.159   0.245  0.00  0.00     0.047 A 
ATOM     21  C15 <0> d          -8.508  -3.166   1.410  0.00  0.00     0.033 A 
ATOM     22  C14 <0> d          -9.604  -2.333   1.528  0.00  0.00     0.044 A 
ATOM     23  C13 <0> d          -9.957  -1.500   0.479  0.00  0.00     0.116 A 
ATOM     24  C12 <0> d          -9.209  -1.496  -0.686  0.00  0.00     0.044 A 
ATOM     25  F1  <0> d         -11.033  -0.691   0.593  0.00  0.00    -0.206 F 
ATOM     26  C11 <0> d          -8.109  -2.323  -0.805  0.00  0.00     0.033 A 
ENDBRANCH   7  20
TORSDOF 5
