REMARK  5 active torsions:
REMARK  status: ('A' for Active; 'I' for Inactive)
REMARK    1  A    between atoms: C2_2  and  C3_3 
REMARK    2  A    between atoms: C3_3  and  N1_5 
REMARK       I    between atoms: N1_5  and  C5_6 
REMARK    3  A    between atoms: C5_6  and  C6_8 
REMARK       I    between atoms: N2_14  and  C13_17 
REMARK    4  A    between atoms: C13_17  and  C14_19 
REMARK    5  A    between atoms: C18_23  and  N3_25 
ROOT
ATOM      1  C6  <0> d           4.316  -0.177   6.330  0.00  0.00     0.288 C 
ATOM      2  C7  <0> d           4.963   0.453   7.598  0.00  0.00     0.119 C 
ATOM      3  S1  <0> d           6.566  -0.471   7.575  0.00  0.00    -0.128 SA
ATOM      4  C8  <0> d           6.684  -0.677   5.752  0.00  0.00     0.177 C 
ATOM      5  C9  <0> d           7.085  -2.108   5.426  0.00  0.00     0.070 C 
ATOM      6  C10 <0> d           7.165  -2.283   3.905  0.00  0.00     0.129 C 
ATOM      7  N2  <0> d           8.049  -1.245   3.357  0.00  0.00    -0.348 N 
ATOM      8  C11 <0> d           7.767   0.163   3.668  0.00  0.00     0.129 C 
ATOM      9  C12 <0> d           7.684   0.324   5.190  0.00  0.00     0.070 C 
ATOM     10  C13 <0> d           9.101  -1.579   2.583  0.00  0.00     0.253 C 
ATOM     11  O2  <0> d           9.387  -2.748   2.418  0.00  0.00    -0.267 OA
ATOM     12  N4  <0> d           5.310  -0.384   5.238  0.00  0.00    -0.043 N 
ATOM     13  H28 <0> d           5.348   0.466   4.664  0.00  0.00     0.280 HD
ATOM     14  H29 <0> d           5.001  -1.174   4.659  0.00  0.00     0.280 HD
ENDROOT
BRANCH   1  15
ATOM     15  C5  <0> d           3.242   0.743   5.811  0.00  0.00     0.249 C 
ATOM     16  N1  <0> d           2.176   1.038   6.583  0.00  0.00    -0.355 N 
ATOM     17  H11 <0> d           2.101   0.657   7.472  0.00  0.00     0.162 HD
ATOM     18  O1  <0> d           3.336   1.219   4.700  0.00  0.00    -0.271 OA
BRANCH  16  19
ATOM     19  C3  <0> d           1.132   1.933   6.079  0.00  0.00     0.080 C 
ATOM     20  C4  <0> d           1.537   3.386   6.338  0.00  0.00     0.032 C 
BRANCH  19  21
ATOM     21  C2  <0> d          -0.185   1.635   6.797  0.00  0.00     0.020 C 
ATOM     22  C1  <0> d          -0.654   0.224   6.437  0.00  0.00     0.007 C 
ENDBRANCH  19  21
ENDBRANCH  16  19
ENDBRANCH   1  15
BRANCH  10  23
ATOM     23  C14 <0> d           9.908  -0.522   1.936  0.00  0.00     0.034 A 
ATOM     24  C19 <0> d          11.294  -0.653   1.849  0.00  0.00     0.053 A 
ATOM     25  C18 <0> d          12.040   0.334   1.238  0.00  0.00     0.109 A 
ATOM     26  C17 <0> d          11.418   1.457   0.724  0.00  0.00    -0.029 A 
ATOM     27  C16 <0> d          10.044   1.596   0.813  0.00  0.00     0.010 A 
ATOM     28  C20 <0> d          12.240   2.534   0.063  0.00  0.00     0.050 C 
ATOM     29  C15 <0> d           9.286   0.614   1.415  0.00  0.00     0.018 A 
BRANCH  25  30
ATOM     30  N3  <0> d          13.511   0.193   1.139  0.00  0.00    -0.115 N 
ATOM     31  O3  <0> d          14.048  -0.842   1.488  0.00  0.00    -0.532 OA
ATOM     32  O4  <0> d          14.182   1.113   0.708  0.00  0.00    -0.532 OA
ENDBRANCH  25  30
ENDBRANCH  10  23
TORSDOF 5
