REMARK  6 active torsions:
REMARK  status: ('A' for Active; 'I' for Inactive)
REMARK    1  A    between atoms: C5_5  and  N1_9 
REMARK    2  A    between atoms: N1_9  and  C8_10 
REMARK    3  A    between atoms: N2_12  and  C9_13 
REMARK    4  A    between atoms: C9_13  and  C10_14 
REMARK    5  A    between atoms: C10_14  and  C11_15 
REMARK    6  A    between atoms: C10_14  and  N3_20 
ROOT
ATOM      1  C9  <0> d          -6.326   2.705   0.056  0.00  0.00     0.163 C 
ENDROOT
BRANCH   1   2
ATOM      2  N2  <0> d          -6.282   2.239  -1.333  0.00  0.00    -0.365 N 
ATOM      3  C8  <0> d          -5.352   1.341  -1.713  0.00  0.00     0.172 C 
ATOM      4  S1  <0> d          -4.221   0.745  -0.574  0.00  0.00    -0.041 SA
ATOM      5  H9  <0> d          -7.008   2.622  -2.064  0.00  0.00     0.161 HD
BRANCH   3   6
ATOM      6  N1  <0> d          -5.311   0.913  -2.990  0.00  0.00    -0.333 N 
ATOM      7  H8  <0> d          -5.982   1.357  -3.741  0.00  0.00     0.168 HD
BRANCH   6   8
ATOM      8  C5  <0> d          -4.417  -0.097  -3.361  0.00  0.00     0.037 A 
ATOM      9  C4  <0> d          -4.217  -1.190  -2.529  0.00  0.00     0.030 A 
ATOM     10  C3  <0> d          -3.329  -2.183  -2.894  0.00  0.00     0.012 A 
ATOM     11  C2  <0> d          -2.646  -2.095  -4.093  0.00  0.00    -0.023 A 
ATOM     12  C1  <0> d          -1.682  -3.183  -4.491  0.00  0.00     0.051 C 
ATOM     13  C7  <0> d          -2.846  -1.009  -4.929  0.00  0.00     0.124 A 
ATOM     14  C6  <0> d          -3.730  -0.009  -4.565  0.00  0.00     0.072 A 
ATOM     15  F1  <0> d          -2.177  -0.926  -6.099  0.00  0.00    -0.205 F 
ENDBRANCH   6   8
ENDBRANCH   3   6
ENDBRANCH   1   2
BRANCH   1  16
ATOM     16  C10 <0> d          -7.543   3.611   0.251  0.00  0.00     0.280 C 
BRANCH  16  17
ATOM     17  C11 <0> d          -8.803   2.800   0.097  0.00  0.00     0.017 A 
ATOM     18  S2  <0> d          -9.623   2.270  -1.398  0.00  0.00    -0.104 SA
ATOM     19  C14 <0> d         -10.983   1.395  -0.643  0.00  0.00     0.050 A 
ATOM     20  C13 <0> d         -10.726   1.562   0.677  0.00  0.00     0.008 A 
ATOM     21  C12 <0> d          -9.606   2.277   1.056  0.00  0.00     0.017 A 
ENDBRANCH  16  17
BRANCH  16  22
ATOM     22  N3  <0> d          -7.523   4.681  -0.754  0.00  0.00     0.102 N 
ATOM     23  C18 <0> d          -8.705   5.546  -0.627  0.00  0.00     0.301 C 
ATOM     24  C17 <0> d          -8.687   6.597  -1.739  0.00  0.00     0.264 C 
ATOM     25  N4  <0> d          -7.450   7.384  -1.646  0.00  0.00    -0.072 N 
ATOM     26  C16 <0> d          -6.268   6.520  -1.774  0.00  0.00     0.264 C 
ATOM     27  C19 <0> d          -7.430   8.455  -2.652  0.00  0.00     0.269 C 
ATOM     28  H26 <0> d          -7.421   7.855  -0.652  0.00  0.00     0.279 HD
ATOM     29  C15 <0> d          -6.286   5.469  -0.661  0.00  0.00     0.301 C 
ENDBRANCH  16  22
ENDBRANCH   1  16
TORSDOF 6
