REMARK  5 active torsions:
REMARK  status: ('A' for Active; 'I' for Inactive)
REMARK    1  A    between atoms: C2_2  and  C3_3 
REMARK    2  A    between atoms: C4_6  and  N3_8 
REMARK       I    between atoms: N3_8  and  C5_9 
REMARK       I    between atoms: C5_9  and  N4_11 
REMARK    3  A    between atoms: C8_14  and  C11_17 
REMARK    4  A    between atoms: C11_17  and  C12_18 
REMARK       I    between atoms: C12_18  and  N5_20 
REMARK    5  A    between atoms: N6_23  and  C17_26 
ROOT
ATOM      1  N3  <0> d          -5.048  -1.873   0.925  0.00  0.00    -0.286 N 
ATOM      2  C5  <0> d          -5.995  -2.219   0.030  0.00  0.00     0.324 C 
ATOM      3  O1  <0> d          -5.801  -2.045  -1.158  0.00  0.00    -0.247 OA
ATOM      4  N4  <0> d          -7.156  -2.757   0.451  0.00  0.00    -0.334 N 
ATOM      5  C6  <0> d          -7.454  -2.866   1.886  0.00  0.00     0.128 C 
ATOM      6  C7  <0> d          -7.815  -4.320   2.205  0.00  0.00     0.025 C 
ATOM      7  C8  <0> d          -8.956  -4.771   1.291  0.00  0.00    -0.003 C 
ATOM      8  C9  <0> d          -8.502  -4.696  -0.169  0.00  0.00     0.025 C 
ATOM      9  C10 <0> d          -8.152  -3.241  -0.515  0.00  0.00     0.128 C 
ATOM     10  H6  <0> d          -5.231  -1.942   1.875  0.00  0.00     0.172 HD
ENDROOT
BRANCH   7  11
ATOM     11  C11 <0> d          -9.343  -6.212   1.631  0.00  0.00     0.107 C 
BRANCH  11  12
ATOM     12  C12 <0> d         -10.545  -6.614   0.816  0.00  0.00     0.220 C 
ATOM     13  O2  <0> d         -11.044  -5.827   0.041  0.00  0.00    -0.273 OA
ATOM     14  N5  <0> d         -11.067  -7.850   0.950  0.00  0.00    -0.349 N 
ATOM     15  C16 <0> d         -12.240  -8.265   0.166  0.00  0.00     0.153 C 
ATOM     16  C13 <0> d         -10.482  -8.820   1.889  0.00  0.00     0.153 C 
ATOM     17  C15 <0> d         -13.278  -8.863   1.115  0.00  0.00     0.254 C 
ATOM     18  N6  <0> d         -12.661  -9.939   1.900  0.00  0.00    -0.068 N 
ATOM     19  C14 <0> d         -11.606  -9.390   2.761  0.00  0.00     0.254 C 
ATOM     20  H31 <0> d         -12.261 -10.623   1.275  0.00  0.00     0.280 HD
BRANCH  18  21
ATOM     21  C17 <0> d         -13.685 -10.583   2.734  0.00  0.00     0.230 C 
ATOM     22  C18 <0> d         -14.720 -11.264   1.837  0.00  0.00     0.034 C 
ENDBRANCH  18  21
ENDBRANCH  11  12
ENDBRANCH   7  11
BRANCH   1  23
ATOM     23  C4  <0> d          -3.810  -1.416   0.486  0.00  0.00     0.197 A 
ATOM     24  N2  <0> d          -3.373  -1.252  -0.748  0.00  0.00    -0.123 NA
ATOM     25  N1  <0> d          -2.210  -0.824  -0.993  0.00  0.00    -0.145 NA
ATOM     26  C3  <0> d          -1.409  -0.532   0.012  0.00  0.00     0.100 A 
ATOM     27  S1  <0> d          -2.473  -0.934   1.392  0.00  0.00    -0.033 SA
BRANCH  26  28
ATOM     28  C2  <0> d           0.005  -0.012   0.002  0.00  0.00     0.064 C 
ATOM     29  C1  <0> d          -0.014   1.518   0.009  0.00  0.00     0.012 C 
ENDBRANCH  26  28
ENDBRANCH   1  23
TORSDOF 5
