REMARK  7 active torsions:
REMARK  status: ('A' for Active; 'I' for Inactive)
REMARK    1  A    between atoms: C2_2  and  N1_5 
REMARK       I    between atoms: N1_5  and  C5_6 
REMARK    2  A    between atoms: C5_6  and  C6_8 
REMARK    3  A    between atoms: C6_8  and  C7_9 
REMARK    4  A    between atoms: C6_8  and  N2_16 
REMARK    5  A    between atoms: C10_12  and  O2_15 
REMARK    6  A    between atoms: N2_16  and  C13_17 
REMARK       I    between atoms: N2_16  and  C19_24 
REMARK    7  A    between atoms: C19_24  and  C20_26 
ROOT
ATOM      1  C6  <0> d           3.103  -0.069  -2.654  0.00  0.00     0.218 C 
ENDROOT
BRANCH   1   2
ATOM      2  C5  <0> d           2.746   0.526  -1.316  0.00  0.00     0.246 C 
ATOM      3  N1  <0> d           1.463   0.826  -1.033  0.00  0.00    -0.351 N 
ATOM      4  H12 <0> d           0.770   0.660  -1.690  0.00  0.00     0.163 HD
ATOM      5  O1  <0> d           3.614   0.734  -0.494  0.00  0.00    -0.271 OA
BRANCH   3   6
ATOM      6  C2  <0> d           1.117   1.404   0.268  0.00  0.00     0.022 C 
ATOM      7  C1  <0> d           1.856   2.731   0.450  0.00  0.00     0.037 C 
ATOM      8  C3  <0> d           1.524   0.437   1.381  0.00  0.00     0.037 C 
ATOM      9  C4  <0> d          -0.393   1.649   0.331  0.00  0.00     0.037 C 
ENDBRANCH   3   6
ENDBRANCH   1   2
BRANCH   1  10
ATOM     10  C7  <0> d           2.702   0.884  -3.750  0.00  0.00    -0.026 A 
ATOM     11  C12 <0> d           1.727   0.518  -4.660  0.00  0.00     0.012 A 
ATOM     12  C11 <0> d           1.353   1.392  -5.663  0.00  0.00     0.037 A 
ATOM     13  C10 <0> d           1.965   2.634  -5.763  0.00  0.00     0.065 A 
ATOM     14  C9  <0> d           2.947   2.996  -4.852  0.00  0.00     0.037 A 
ATOM     15  C8  <0> d           3.313   2.120  -3.848  0.00  0.00     0.012 A 
BRANCH  13  16
ATOM     16  O2  <0> d           1.603   3.493  -6.751  0.00  0.00    -0.361 OA
ATOM     17  H17 <0> d           2.115   3.396  -7.565  0.00  0.00     0.217 HD
ENDBRANCH  13  16
ENDBRANCH   1  10
BRANCH   1  18
ATOM     18  N2  <0> d           4.548  -0.303  -2.715  0.00  0.00    -0.298 N 
ATOM     19  C19 <0> d           5.116  -1.224  -1.911  0.00  0.00     0.248 C 
ATOM     20  O3  <0> d           4.447  -1.796  -1.077  0.00  0.00    -0.271 OA
BRANCH  18  21
ATOM     21  C13 <0> d           5.338   0.430  -3.607  0.00  0.00     0.040 A 
ATOM     22  C18 <0> d           5.232   0.210  -4.973  0.00  0.00     0.053 A 
ATOM     23  C17 <0> d           6.009   0.940  -5.853  0.00  0.00     0.036 A 
ATOM     24  C16 <0> d           6.902   1.881  -5.370  0.00  0.00     0.024 A 
ATOM     25 Cl1  <0> d           5.871   0.672  -7.562  0.00  0.00    -0.084 Cl
ATOM     26  C15 <0> d           7.014   2.098  -4.009  0.00  0.00     0.004 A 
ATOM     27  C14 <0> d           6.235   1.376  -3.127  0.00  0.00     0.030 A 
ENDBRANCH  18  21
BRANCH  19  28
ATOM     28  C20 <0> d           6.582  -1.543  -2.050  0.00  0.00     0.177 C 
ATOM     29  N3  <0> d           7.067  -2.234  -0.850  0.00  0.00    -0.348 N 
ATOM     30  C23 <0> d           7.183  -3.558  -1.064  0.00  0.00     0.218 C 
ATOM     31  H26 <0> d           7.277  -1.794  -0.011  0.00  0.00     0.163 HD
ATOM     32  C22 <0> d           6.783  -3.893  -2.484  0.00  0.00     0.105 C 
ATOM     33  O4  <0> d           7.556  -4.365  -0.239  0.00  0.00    -0.274 OA
ATOM     34  C21 <0> d           6.806  -2.531  -3.216  0.00  0.00     0.044 C 
ENDBRANCH  19  28
ENDBRANCH   1  18
TORSDOF 7
