REMARK  5 active torsions:
REMARK  status: ('A' for Active; 'I' for Inactive)
REMARK    1  A    between atoms: C2_2  and  C3_3 
REMARK    2  A    between atoms: C2_2  and  N4_28 
REMARK       I    between atoms: C3_3  and  N1_5 
REMARK    3  A    between atoms: N1_5  and  C4_6 
REMARK    4  A    between atoms: C12_19  and  C13_20 
REMARK    5  A    between atoms: C12_19  and  N4_28 
ROOT
ATOM      1  C3  <0> d          -1.291  -2.075  -0.187  0.00  0.00     0.253 C 
ATOM      2  O1  <0> d          -0.258  -2.662   0.056  0.00  0.00    -0.271 OA
ATOM      3  N1  <0> d          -2.385  -2.765  -0.564  0.00  0.00    -0.325 N 
ATOM      4  H7  <0> d          -3.231  -2.306  -0.684  0.00  0.00     0.169 HD
ENDROOT
BRANCH   1   5
ATOM      5  C2  <0> d          -1.352  -0.574  -0.065  0.00  0.00     0.275 C 
ATOM      6  C1  <0> d          -2.408  -0.189   0.972  0.00  0.00     0.050 C 
BRANCH   5   7
ATOM      7  N4  <0> d          -0.021  -0.072   0.339  0.00  0.00    -0.059 N 
ATOM      8  C11 <0> d           0.337  -0.607   1.669  0.00  0.00     0.271 C 
ATOM      9  H20 <0> d           0.676  -0.387  -0.346  0.00  0.00     0.280 HD
BRANCH   7  10
ATOM     10  C12 <0> d          -0.028   1.405   0.372  0.00  0.00     0.274 C 
BRANCH  10  11
ATOM     11  C13 <0> d           1.385   1.893   0.569  0.00  0.00    -0.033 A 
ATOM     12  C18 <0> d           2.193   2.127  -0.527  0.00  0.00     0.010 A 
ATOM     13  C17 <0> d           3.489   2.575  -0.348  0.00  0.00     0.019 A 
ATOM     14  C16 <0> d           3.975   2.789   0.929  0.00  0.00     0.011 A 
ATOM     15  C15 <0> d           3.166   2.554   2.026  0.00  0.00     0.019 A 
ATOM     16 Br1  <0> d           5.748   3.401   1.175  0.00  0.00    -0.051 Br
ATOM     17  C14 <0> d           1.869   2.111   1.845  0.00  0.00     0.010 A 
ENDBRANCH  10  11
ENDBRANCH   7  10
ENDBRANCH   5   7
ENDBRANCH   1   5
BRANCH   3  18
ATOM     18  C4  <0> d          -2.301  -4.146  -0.784  0.00  0.00     0.037 A 
ATOM     19  C9  <0> d          -1.135  -4.696  -1.296  0.00  0.00     0.061 A 
ATOM     20  C8  <0> d          -1.053  -6.063  -1.507  0.00  0.00     0.065 A 
ATOM     21  C7  <0> d          -2.147  -6.880  -1.214  0.00  0.00     0.063 A 
ATOM     22  N2  <0> d          -0.047  -6.895  -1.993  0.00  0.00    -0.306 N 
ATOM     23  C6  <0> d          -3.311  -6.324  -0.708  0.00  0.00     0.034 A 
ATOM     24  N3  <0> d          -1.770  -8.185  -1.532  0.00  0.00    -0.307 N 
ATOM     25  C5  <0> d          -3.388  -4.963  -0.493  0.00  0.00     0.032 A 
ATOM     26  C10 <0> d          -0.506  -8.161  -1.996  0.00  0.00     0.325 A 
ATOM     27  H3  <0> d          -2.324  -8.976  -1.435  0.00  0.00     0.170 HD
ATOM     28  O2  <0> d           0.124  -9.134  -2.363  0.00  0.00    -0.247 OA
ATOM     29  H2  <0> d           0.835  -6.611  -2.280  0.00  0.00     0.170 HD
ENDBRANCH   3  18
TORSDOF 5
