REMARK  2 active torsions:
REMARK  status: ('A' for Active; 'I' for Inactive)
REMARK    1  A    between atoms: C3_3  and  C6_8 
REMARK       I    between atoms: C6_8  and  N2_10 
REMARK    2  A    between atoms: N2_10  and  C7_11 
ROOT
ATOM      1  C6  <0> d          -0.151   5.277   0.030  0.00  0.00     0.256 C 
ATOM      2  O2  <0> d          -1.234   5.830   0.043  0.00  0.00    -0.267 OA
ATOM      3  N2  <0> d           0.980   6.011   0.024  0.00  0.00    -0.351 N 
ATOM      4  H6  <0> d           1.960   5.511   0.012  0.00  0.00     0.163 HD
ENDROOT
BRANCH   1   5
ATOM      5  C3  <0> d          -0.074   3.804   0.022  0.00  0.00     0.085 A 
ATOM      6  C2  <0> d           1.165   3.155   0.007  0.00  0.00     0.023 A 
ATOM      7  C1  <0> d           1.183   1.771   0.000  0.00  0.00     0.018 A 
ATOM      8  C5  <0> d          -0.013   1.076   0.008  0.00  0.00     0.090 A 
ATOM      9  N1  <0> d          -1.170   1.708   0.017  0.00  0.00    -0.344 N 
ATOM     10  C4  <0> d          -1.244   3.028   0.029  0.00  0.00     0.194 A 
ATOM     11  H5  <0> d          -2.091   1.106   0.014  0.00  0.00     0.167 HD
ATOM     12  O1  <0> d          -2.454   3.635   0.044  0.00  0.00    -0.171 OA
ENDBRANCH   1   5
BRANCH   3  13
ATOM     13  C7  <0> d           0.904   7.474   0.032  0.00  0.00     0.099 C 
ATOM     14  C10 <0> d           2.207   8.064   0.641  0.00  0.00     0.165 C 
ATOM     15  S1  <0> d           2.134   9.786  -0.009  0.00  0.00     0.146 S 
ATOM     16  C9  <0> d           1.010   9.523  -1.441  0.00  0.00     0.142 C 
ATOM     17  O3  <0> d           1.481  10.613   0.945  0.00  0.00    -0.228 OA
ATOM     18  O4  <0> d           3.419  10.154  -0.491  0.00  0.00    -0.228 OA
ATOM     19  C8  <0> d           0.770   7.995  -1.409  0.00  0.00     0.041 C 
ENDBRANCH   3  13
TORSDOF 2
