REMARK  6 active torsions:
REMARK  status: ('A' for Active; 'I' for Inactive)
REMARK    1  A    between atoms: C2_2  and  C4_4 
REMARK    2  A    between atoms: C4_4  and  N1_5 
REMARK    3  A    between atoms: N1_5  and  S1_7 
REMARK    4  A    between atoms: S1_7  and  C6_10 
REMARK    5  A    between atoms: C11_15  and  S2_16 
REMARK    6  A    between atoms: S2_16  and  N2_19 
ROOT
ATOM      1  C6  <0> d          -1.240   2.264   3.124  0.00  0.00     0.102 A 
ATOM      2  C7  <0> d          -2.006   2.638   4.213  0.00  0.00     0.027 A 
ATOM      3  C8  <0> d          -2.908   3.679   4.098  0.00  0.00     0.002 A 
ATOM      4  C9  <0> d          -3.044   4.346   2.895  0.00  0.00     0.002 A 
ATOM      5  C10 <0> d          -2.278   3.974   1.807  0.00  0.00     0.027 A 
ATOM      6  C11 <0> d          -1.372   2.935   1.923  0.00  0.00     0.102 A 
ENDROOT
BRANCH   1   7
ATOM      7  S1  <0> d          -0.089   0.938   3.270  0.00  0.00     0.262 S 
ATOM      8  O1  <0> d          -0.008   0.621   4.653  0.00  0.00    -0.200 OA
ATOM      9  O2  <0> d           1.050   1.302   2.503  0.00  0.00    -0.200 OA
BRANCH   7  10
ATOM     10  N1  <0> d          -0.762  -0.378   2.522  0.00  0.00    -0.311 N 
ATOM     11  C5  <0> d           0.007  -1.125   1.523  0.00  0.00     0.163 C 
BRANCH  10  12
ATOM     12  C4  <0> d          -2.125  -0.795   2.859  0.00  0.00     0.138 C 
BRANCH  12  13
ATOM     13  C2  <0> d          -2.075  -2.077   3.693  0.00  0.00    -0.004 C 
ATOM     14  C1  <0> d          -1.423  -1.781   5.045  0.00  0.00     0.011 C 
ATOM     15  C3  <0> d          -3.497  -2.596   3.915  0.00  0.00     0.011 C 
ENDBRANCH  12  13
ENDBRANCH  10  12
ENDBRANCH   7  10
ENDBRANCH   1   7
BRANCH   6  16
ATOM     16  S2  <0> d          -0.391   2.464   0.537  0.00  0.00     0.258 S 
ATOM     17  O3  <0> d          -0.508   1.053   0.418  0.00  0.00    -0.201 OA
ATOM     18  O4  <0> d          -0.730   3.349  -0.521  0.00  0.00    -0.201 OA
BRANCH  16  19
ATOM     19  N2  <0> d           1.188   2.776   0.927  0.00  0.00    -0.324 N 
ATOM     20  H17 <0> d           1.898   2.234   0.548  0.00  0.00     0.169 HD
ATOM     21  H18 <0> d           1.404   3.501   1.535  0.00  0.00     0.169 HD
ENDBRANCH  16  19
ENDBRANCH   6  16
TORSDOF 6
