REMARK  8 active torsions:
REMARK  status: ('A' for Active; 'I' for Inactive)
REMARK    1  A    between atoms: C2_2  and  C3_3 
REMARK    2  A    between atoms: C2_2  and  N1_7 
REMARK    3  A    between atoms: C3_3  and  C4_4 
REMARK    4  A    between atoms: C4_4  and  O1_5 
REMARK       I    between atoms: N1_7  and  C6_8 
REMARK       I    between atoms: C6_8  and  N2_10 
REMARK    5  A    between atoms: N2_10  and  C7_11 
REMARK    6  A    between atoms: C7_11  and  C9_13 
REMARK    7  A    between atoms: C13_17  and  S1_19 
REMARK    8  A    between atoms: S1_19  and  N3_22 
ROOT
ATOM      1  C7  <0> d           4.122  -1.142  -2.336  0.00  0.00     0.115 C 
ATOM      2  C8  <0> d           4.742   0.211  -2.692  0.00  0.00     0.037 C 
ENDROOT
BRANCH   1   3
ATOM      3  N2  <0> d           2.662  -1.022  -2.324  0.00  0.00    -0.335 N 
ATOM      4  C6  <0> d           2.031  -0.587  -1.215  0.00  0.00     0.317 C 
ATOM      5  N1  <0> d           0.688  -0.476  -1.203  0.00  0.00    -0.339 N 
ATOM      6  O2  <0> d           2.674  -0.294  -0.225  0.00  0.00    -0.247 OA
ATOM      7  H13 <0> d           0.175  -0.710  -1.993  0.00  0.00     0.164 HD
ATOM      8  H14 <0> d           2.149  -1.255  -3.114  0.00  0.00     0.165 HD
BRANCH   5   9
ATOM      9  C2  <0> d           0.002  -0.004   0.002  0.00  0.00     0.084 C 
ATOM     10  C1  <0> d          -0.019   1.526   0.010  0.00  0.00     0.032 C 
BRANCH   9  11
ATOM     11  C3  <0> d          -1.433  -0.534   0.013  0.00  0.00     0.051 C 
BRANCH  11  12
ATOM     12  C4  <0> d          -1.413  -2.059   0.130  0.00  0.00     0.169 C 
BRANCH  12  13
ATOM     13  O1  <0> d          -2.754  -2.554   0.140  0.00  0.00    -0.396 OA
ATOM     14  C5  <0> d          -2.848  -3.975   0.247  0.00  0.00     0.201 C 
ENDBRANCH  12  13
ENDBRANCH  11  12
ENDBRANCH   9  11
ENDBRANCH   5   9
ENDBRANCH   1   3
BRANCH   1  15
ATOM     15  C9  <0> d           4.533  -2.167  -3.361  0.00  0.00    -0.034 A 
ATOM     16  C14 <0> d           5.561  -3.048  -3.084  0.00  0.00     0.034 A 
ATOM     17  C13 <0> d           5.935  -3.991  -4.023  0.00  0.00     0.080 A 
ATOM     18  C12 <0> d           5.287  -4.048  -5.242  0.00  0.00     0.025 A 
ATOM     19  C11 <0> d           4.261  -3.164  -5.521  0.00  0.00     0.002 A 
ATOM     20  C10 <0> d           3.885  -2.223  -4.581  0.00  0.00     0.009 A 
BRANCH  17  21
ATOM     21  S1  <0> d           7.242  -5.119  -3.667  0.00  0.00     0.258 S 
ATOM     22  O3  <0> d           7.320  -5.215  -2.251  0.00  0.00    -0.201 OA
ATOM     23  O4  <0> d           7.037  -6.253  -4.497  0.00  0.00    -0.201 OA
BRANCH  21  24
ATOM     24  N3  <0> d           8.651  -4.410  -4.172  0.00  0.00    -0.320 N 
ATOM     25  C15 <0> d           9.130  -3.188  -3.522  0.00  0.00     0.159 C 
ATOM     26  H22 <0> d           9.159  -4.805  -4.898  0.00  0.00     0.171 HD
ENDBRANCH  21  24
ENDBRANCH  17  21
ENDBRANCH   1  15
TORSDOF 8
