REMARK  4 active torsions:
REMARK  status: ('A' for Active; 'I' for Inactive)
REMARK    1  A    between atoms: C3_3  and  C9_12 
REMARK    2  A    between atoms: C4_5  and  C5_7 
REMARK       I    between atoms: C9_12  and  N2_14 
REMARK    3  A    between atoms: N2_14  and  C10_15 
REMARK    4  A    between atoms: C10_15  and  C12_17 
ROOT
ATOM      1  C1  <0> d          -0.018   1.503   0.010  0.00  0.00     0.079 C 
ATOM      2  C2  <0> d           0.002  -0.004   0.002  0.00  0.00     0.086 A 
ATOM      3  C3  <0> d          -1.083  -0.827   0.003  0.00  0.00     0.156 A 
ATOM      4  N1  <0> d          -0.621  -2.105  -0.007  0.00  0.00    -0.215 NA
ATOM      5  C4  <0> d           0.691  -2.071  -0.012  0.00  0.00     0.187 A 
ATOM      6  O1  <0> d           1.094  -0.787  -0.013  0.00  0.00    -0.293 OA
ENDROOT
BRANCH   3   7
ATOM      7  C9  <0> d          -2.497  -0.409   0.012  0.00  0.00     0.273 C 
ATOM      8  O2  <0> d          -2.781   0.774   0.020  0.00  0.00    -0.266 OA
ATOM      9  N2  <0> d          -3.474  -1.337   0.011  0.00  0.00    -0.349 N 
ATOM     10  H9  <0> d          -3.247  -2.280   0.004  0.00  0.00     0.163 HD
BRANCH   9  11
ATOM     11  C10 <0> d          -4.879  -0.921   0.020  0.00  0.00     0.109 C 
ATOM     12  C11 <0> d          -5.339  -0.648  -1.413  0.00  0.00     0.035 C 
BRANCH  11  13
ATOM     13  C12 <0> d          -5.736  -2.034   0.627  0.00  0.00     0.143 C 
ATOM     14  O3  <0> d          -5.572  -3.240  -0.128  0.00  0.00    -0.384 OA
ATOM     15  C15 <0> d          -5.005  -4.266   0.706  0.00  0.00     0.168 C 
ATOM     16  C14 <0> d          -5.386  -3.867   2.154  0.00  0.00     0.029 C 
ATOM     17  C13 <0> d          -5.275  -2.320   2.073  0.00  0.00     0.036 C 
ENDBRANCH  11  13
ENDBRANCH   9  11
ENDBRANCH   3   7
BRANCH   5  18
ATOM     18  C5  <0> d           1.576  -3.245  -0.022  0.00  0.00     0.058 A 
ATOM     19  S1  <0> d           1.147  -4.978  -0.028  0.00  0.00    -0.098 SA
ATOM     20  C8  <0> d           2.801  -5.649  -0.041  0.00  0.00     0.050 A 
ATOM     21  C7  <0> d           3.568  -4.527  -0.032  0.00  0.00     0.009 A 
ATOM     22  C6  <0> d           2.957  -3.295  -0.023  0.00  0.00     0.024 A 
ENDBRANCH   5  18
TORSDOF 4
