REMARK  7 active torsions:
REMARK  status: ('A' for Active; 'I' for Inactive)
REMARK    1  A    between atoms: C2_2  and  C6_8 
REMARK    2  A    between atoms: C6_8  and  C7_9 
REMARK    3  A    between atoms: C7_9  and  C8_10 
REMARK       I    between atoms: C8_10  and  N2_12 
REMARK    4  A    between atoms: N2_12  and  C9_13 
REMARK    5  A    between atoms: C9_13  and  C10_14 
REMARK    6  A    between atoms: C10_14  and  C11_15 
REMARK    7  A    between atoms: C12_17  and  C14_20 
ROOT
ATOM      1  C8  <0> d           1.395   2.047  -0.000  0.00  0.00     0.217 C 
ATOM      2  O2  <0> d           2.328   1.272  -0.013  0.00  0.00    -0.274 OA
ATOM      3  N2  <0> d           1.623   3.376   0.005  0.00  0.00    -0.361 N 
ATOM      4  H13 <0> d           0.878   3.996   0.015  0.00  0.00     0.162 HD
ENDROOT
BRANCH   3   5
ATOM      5  C9  <0> d           2.998   3.883  -0.006  0.00  0.00     0.129 C 
BRANCH   5   6
ATOM      6  C10 <0> d           2.977   5.413   0.003  0.00  0.00     0.086 C 
BRANCH   6   7
ATOM      7  C11 <0> d           4.391   5.934  -0.008  0.00  0.00     0.077 A 
ATOM      8  S1  <0> d           5.421   6.310   1.338  0.00  0.00    -0.084 SA
ATOM      9  C13 <0> d           6.849   6.837   0.401  0.00  0.00     0.084 A 
ATOM     10  C12 <0> d           6.385   6.677  -0.877  0.00  0.00     0.074 A 
ATOM     11  N3  <0> d           5.151   6.224  -1.036  0.00  0.00    -0.245 NA
BRANCH  10  12
ATOM     12  C14 <0> d           7.237   7.002  -2.046  0.00  0.00    -0.007 A 
ATOM     13  C19 <0> d           8.566   7.378  -1.861  0.00  0.00     0.014 A 
ATOM     14  C18 <0> d           9.355   7.679  -2.953  0.00  0.00     0.001 A 
ATOM     15  C17 <0> d           8.829   7.606  -4.230  0.00  0.00     0.000 A 
ATOM     16  C16 <0> d           7.510   7.233  -4.420  0.00  0.00     0.001 A 
ATOM     17  C15 <0> d           6.714   6.926  -3.336  0.00  0.00     0.014 A 
ENDBRANCH  10  12
ENDBRANCH   6   7
ENDBRANCH   5   6
ENDBRANCH   3   5
BRANCH   1  18
ATOM     18  C7  <0> d          -0.019   1.526   0.010  0.00  0.00     0.105 C 
BRANCH  18  19
ATOM     19  C6  <0> d           0.002  -0.004   0.002  0.00  0.00     0.040 C 
BRANCH  19  20
ATOM     20  C2  <0> d          -1.433  -0.534   0.013  0.00  0.00     0.030 C 
ATOM     21  C1  <0> d          -2.157  -0.126  -1.272  0.00  0.00     0.038 C 
ATOM     22  N1  <0> d          -2.154  -0.024   1.186  0.00  0.00    -0.352 N 
ATOM     23  C5  <0> d          -2.873  -0.994   1.776  0.00  0.00     0.218 C 
ATOM     24  H8  <0> d          -2.116   0.895   1.494  0.00  0.00     0.163 HD
ATOM     25  C4  <0> d          -2.691  -2.301   1.036  0.00  0.00     0.105 C 
ATOM     26  O1  <0> d          -3.567  -0.843   2.760  0.00  0.00    -0.274 OA
ATOM     27  C3  <0> d          -1.435  -2.071   0.162  0.00  0.00     0.040 C 
ENDBRANCH  19  20
ENDBRANCH  18  19
ENDBRANCH   1  18
TORSDOF 7
