REMARK  4 active torsions:
REMARK  status: ('A' for Active; 'I' for Inactive)
REMARK    1  A    between atoms: C2_2  and  C4_4 
REMARK    2  A    between atoms: C2_2  and  N4_21 
REMARK    3  A    between atoms: C5_6  and  C6_9 
REMARK    4  A    between atoms: C6_9  and  N3_10 
ROOT
ATOM      1  C4  <0> d          -1.412  -0.526   0.013  0.00  0.00     0.191 A 
ATOM      2  N1  <0> d          -1.960  -1.305  -0.926  0.00  0.00    -0.204 NA
ATOM      3  C5  <0> d          -3.197  -1.577  -0.615  0.00  0.00     0.191 A 
ATOM      4  O1  <0> d          -3.481  -0.973   0.546  0.00  0.00    -0.194 OA
ATOM      5  N2  <0> d          -2.296  -0.296   0.940  0.00  0.00    -0.108 NA
ENDROOT
BRANCH   3   6
ATOM      6  C6  <0> d          -4.145  -2.425  -1.424  0.00  0.00     0.217 C 
BRANCH   6   7
ATOM      7  N3  <0> d          -4.033  -3.823  -0.999  0.00  0.00    -0.348 N 
ATOM      8  C11 <0> d          -4.842  -4.284   0.015  0.00  0.00     0.048 A 
ATOM      9  C10 <0> d          -4.744  -5.625   0.425  0.00  0.00     0.041 A 
ATOM     10  C12 <0> d          -5.761  -3.446   0.640  0.00  0.00     0.030 A 
ATOM     11  C9  <0> d          -3.760  -6.494  -0.246  0.00  0.00     0.185 A 
ATOM     12  C15 <0> d          -5.562  -6.105   1.447  0.00  0.00     0.018 A 
ATOM     13  C8  <0> d          -2.971  -5.925  -1.273  0.00  0.00     0.073 A 
ATOM     14  O2  <0> d          -3.631  -7.664   0.074  0.00  0.00    -0.287 OA
ATOM     15  C7  <0> d          -3.131  -4.629  -1.611  0.00  0.00     0.096 A 
ATOM     16  C14 <0> d          -6.450  -5.262   2.055  0.00  0.00     0.001 A 
ATOM     17  C13 <0> d          -6.556  -3.939   1.652  0.00  0.00     0.002 A 
ENDBRANCH   6   7
ENDBRANCH   3   6
BRANCH   1  18
ATOM     18  C2  <0> d           0.002  -0.004   0.002  0.00  0.00     0.180 C 
ATOM     19  C1  <0> d          -0.019   1.526   0.010  0.00  0.00     0.054 C 
ATOM     20  C3  <0> d           0.742  -0.511   1.242  0.00  0.00     0.054 C 
BRANCH  18  21
ATOM     21  N4  <0> d           0.690  -0.478  -1.207  0.00  0.00    -0.064 N 
ATOM     22  H15 <0> d           1.636  -0.129  -1.214  0.00  0.00     0.275 HD
ATOM     23  H16 <0> d           0.703  -1.487  -1.212  0.00  0.00     0.275 HD
ATOM     24  H17 <0> d           0.202  -0.144  -2.024  0.00  0.00     0.275 HD
ENDBRANCH  18  21
ENDBRANCH   1  18
TORSDOF 4
