REMARK  7 active torsions:
REMARK  status: ('A' for Active; 'I' for Inactive)
REMARK    1  A    between atoms: C5_5  and  S1_12 
REMARK    2  A    between atoms: C6_6  and  C8_8 
REMARK    3  A    between atoms: C9_9  and  C10_10 
REMARK    4  A    between atoms: C10_10  and  N1_11 
REMARK    5  A    between atoms: S1_12  and  N2_15 
REMARK    6  A    between atoms: N2_15  and  C12_17 
REMARK    7  A    between atoms: C12_17  and  C13_18 
ROOT
ATOM      1  C13 <0> d           3.451  -3.750  -0.489  0.00  0.00     0.107 C 
ATOM      2  C14 <0> d           4.170  -3.526   0.843  0.00  0.00     0.027 C 
ATOM      3  C15 <0> d           4.434  -3.739  -1.585  0.00  0.00     0.065 C 
ATOM      4  N3  <0> d           5.192  -3.730  -2.430  0.00  0.00    -0.197 NA
ENDROOT
BRANCH   1   5
ATOM      5  C12 <0> d           2.734  -5.101  -0.461  0.00  0.00     0.153 C 
BRANCH   5   6
ATOM      6  N2  <0> d           1.657  -5.062   0.531  0.00  0.00    -0.310 N 
ATOM      7  C11 <0> d           1.943  -5.365   1.936  0.00  0.00     0.163 C 
BRANCH   6   8
ATOM      8  S1  <0> d           0.116  -4.675   0.066  0.00  0.00     0.262 S 
ATOM      9  O1  <0> d          -0.746  -5.115   1.106  0.00  0.00    -0.200 OA
ATOM     10  O2  <0> d          -0.025  -5.115  -1.278  0.00  0.00    -0.200 OA
BRANCH   8  11
ATOM     11  C5  <0> d           0.007  -2.916   0.033  0.00  0.00     0.098 A 
ATOM     12  C4  <0> d          -0.138  -2.255  -1.169  0.00  0.00     0.027 A 
ATOM     13  C3  <0> d          -0.224  -0.875  -1.197  0.00  0.00     0.008 A 
ATOM     14  C2  <0> d          -0.165  -0.148  -0.021  0.00  0.00    -0.061 A 
ATOM     15  C1  <0> d          -0.259   1.355  -0.060  0.00  0.00     0.048 C 
ATOM     16  C7  <0> d          -0.015  -0.797   1.187  0.00  0.00     0.029 A 
ATOM     17  C6  <0> d           0.068  -2.190   1.222  0.00  0.00     0.041 A 
BRANCH  17  18
ATOM     18  C8  <0> d           0.218  -2.870   2.474  0.00  0.00    -0.064 C 
ATOM     19  C9  <0> d           0.341  -3.428   3.499  0.00  0.00    -0.074 C 
BRANCH  19  20
ATOM     20  C10 <0> d           0.495  -4.127   4.785  0.00  0.00     0.323 C 
BRANCH  20  21
ATOM     21  N1  <0> d           0.531  -3.144   5.876  0.00  0.00    -0.069 N 
ATOM     22  H10 <0> d           1.310  -2.517   5.738  0.00  0.00     0.275 HD
ATOM     23  H11 <0> d          -0.328  -2.616   5.881  0.00  0.00     0.275 HD
ATOM     24  H20 <0> d           0.637  -3.623   6.758  0.00  0.00     0.275 HD
ENDBRANCH  20  21
ENDBRANCH  19  20
ENDBRANCH  17  18
ENDBRANCH   8  11
ENDBRANCH   6   8
ENDBRANCH   5   6
ENDBRANCH   1   5
TORSDOF 7
