REMARK  4 active torsions:
REMARK  status: ('A' for Active; 'I' for Inactive)
REMARK       I    between atoms: C2_2  and  N1_4 
REMARK    1  A    between atoms: C5_9  and  S1_10 
REMARK    2  A    between atoms: S1_10  and  C6_11 
REMARK    3  A    between atoms: C6_11  and  C7_12 
REMARK       I    between atoms: C7_12  and  N3_14 
REMARK    4  A    between atoms: N3_14  and  C8_15 
ROOT
ATOM      1  C7  <0> d          -0.014   1.209   0.004  0.00  0.00     0.233 C 
ATOM      2  O3  <0> d           0.002  -0.004  -0.003  0.00  0.00    -0.272 OA
ATOM      3  N3  <0> d          -1.191   1.867   0.013  0.00  0.00    -0.305 N 
ATOM      4  H8  <0> d          -1.204   2.836   0.018  0.00  0.00     0.171 HD
ENDROOT
BRANCH   1   5
ATOM      5  C6  <0> d           1.280   1.980  -0.003  0.00  0.00     0.185 C 
BRANCH   5   6
ATOM      6  S1  <0> d           2.672   0.823  -0.021  0.00  0.00    -0.082 SA
BRANCH   6   7
ATOM      7  C5  <0> d           3.978   1.929  -0.027  0.00  0.00     0.175 A 
ATOM      8  N1  <0> d           5.298   1.554  -0.035  0.00  0.00    -0.288 N 
ATOM      9  C2  <0> d           5.787   0.298  -0.041  0.00  0.00     0.222 C 
ATOM     10  C3  <0> d           6.071   2.810  -0.040  0.00  0.00     0.239 A 
ATOM     11  C1  <0> d           7.271   0.068  -0.164  0.00  0.00     0.117 C 
ATOM     12  O1  <0> d           5.032  -0.646   0.054  0.00  0.00    -0.273 OA
ATOM     13  C4  <0> d           4.997   3.880  -0.024  0.00  0.00     0.263 A 
ATOM     14  O2  <0> d           5.166   5.083  -0.018  0.00  0.00    -0.269 OA
ATOM     15  N2  <0> d           3.833   3.236  -0.018  0.00  0.00    -0.188 NA
ENDBRANCH   6   7
ENDBRANCH   5   6
ENDBRANCH   1   5
BRANCH   3  16
ATOM     16  C8  <0> d          -2.385   1.155   0.013  0.00  0.00     0.173 A 
ATOM     17  S2  <0> d          -4.016   1.758   0.023  0.00  0.00    -0.055 SA
ATOM     18  C10 <0> d          -4.828   0.182   0.018  0.00  0.00     0.011 A 
ATOM     19  C9  <0> d          -3.787  -0.690   0.009  0.00  0.00     0.050 A 
ATOM     20  C11 <0> d          -6.286  -0.132   0.020  0.00  0.00     0.048 C 
ATOM     21  N4  <0> d          -2.572  -0.148   0.001  0.00  0.00    -0.228 NA
ATOM     22  C14 <0> d          -4.045  -2.193   0.002  0.00  0.00     0.060 C 
ATOM     23  C13 <0> d          -5.478  -2.448   0.471  0.00  0.00     0.006 C 
ATOM     24  C12 <0> d          -6.459  -1.612  -0.356  0.00  0.00     0.006 C 
ENDBRANCH   3  16
TORSDOF 4
