REMARK  7 active torsions:
REMARK  status: ('A' for Active; 'I' for Inactive)
REMARK    1  A    between atoms: N4_10  and  C6_11 
REMARK    2  A    between atoms: C6_11  and  C7_12 
REMARK    3  A    between atoms: C6_11  and  C11_18 
REMARK    4  A    between atoms: C7_12  and  C8_13 
REMARK    5  A    between atoms: C8_13  and  C9_14 
REMARK    6  A    between atoms: C8_13  and  C10_16 
REMARK    7  A    between atoms: C9_14  and  O2_15 
ROOT
ATOM      1  C1  <0> d          -2.938   4.189   3.521  0.00  0.00     0.212 A 
ATOM      2  N1  <0> d          -2.400   3.631   2.421  0.00  0.00    -0.223 NA
ATOM      3  C2  <0> d          -2.500   2.286   2.199  0.00  0.00     0.167 A 
ATOM      4  C3  <0> d          -3.179   1.502   3.128  0.00  0.00     0.172 A 
ATOM      5  C4  <0> d          -3.743   2.168   4.304  0.00  0.00     0.279 A 
ATOM      6  O1  <0> d          -4.345   1.532   5.154  0.00  0.00    -0.265 OA
ATOM      7  N2  <0> d          -3.579   3.499   4.423  0.00  0.00    -0.316 N 
ATOM      8  N3  <0> d          -3.144   0.225   2.682  0.00  0.00    -0.234 NA
ATOM      9  C5  <0> d          -2.498   0.185   1.552  0.00  0.00     0.212 A 
ATOM     10  N4  <0> d          -2.085   1.441   1.216  0.00  0.00    -0.312 N 
ATOM     11  H12 <0> d          -4.000   4.005   5.305  0.00  0.00     0.170 HD
ENDROOT
BRANCH  10  12
ATOM     12  C6  <0> d          -1.328   1.812   0.018  0.00  0.00     0.154 C 
BRANCH  12  13
ATOM     13  C7  <0> d          -2.131   1.438  -1.229  0.00  0.00     0.046 C 
BRANCH  13  14
ATOM     14  C8  <0> d          -1.398   1.937  -2.476  0.00  0.00     0.073 C 
BRANCH  14  15
ATOM     15  C9  <0> d          -2.135   1.456  -3.728  0.00  0.00     0.175 C 
BRANCH  15  16
ATOM     16  O2  <0> d          -1.389   1.822  -4.890  0.00  0.00    -0.400 OA
ATOM     17  H9  <0> d          -1.764   1.559  -5.890  0.00  0.00     0.209 HD
ENDBRANCH  15  16
ENDBRANCH  14  15
BRANCH  14  18
ATOM     18  C10 <0> d          -1.356   3.443  -2.465  0.00  0.00     0.237 C 
ATOM     19  O3  <0> d          -0.294   4.018  -2.463  0.00  0.00    -0.306 OA
ENDBRANCH  14  18
ENDBRANCH  13  14
ENDBRANCH  12  13
BRANCH  12  20
ATOM     20  C11 <0> d          -0.013   1.076   0.008  0.00  0.00     0.256 C 
ATOM     21  O4  <0> d           1.025   1.694   0.001  0.00  0.00    -0.305 OA
ENDBRANCH  12  20
ENDBRANCH  10  12
TORSDOF 7
