REMARK  6 active torsions:
REMARK  status: ('A' for Active; 'I' for Inactive)
REMARK    1  A    between atoms: C5_5  and  N2_11 
REMARK    2  A    between atoms: C7_7  and  N1_8 
REMARK    3  A    between atoms: N2_11  and  C8_12 
REMARK    4  A    between atoms: C8_12  and  C13_22 
REMARK    5  A    between atoms: C13_22  and  C14_23 
REMARK    6  A    between atoms: C14_23  and  O6_25 
ROOT
ATOM      1  C8  <0> d          -0.544   1.961   0.711  0.00  0.00     0.075 C 
ATOM      2  C9  <0> d          -1.086   1.062   1.610  0.00  0.00     0.126 A 
ATOM      3  C10 <0> d          -1.156  -0.379   1.309  0.00  0.00     0.265 A 
ATOM      4  O3  <0> d          -0.736  -0.819   0.255  0.00  0.00    -0.267 OA
ATOM      5  N3  <0> d          -1.694  -1.198   2.236  0.00  0.00    -0.299 N 
ATOM      6  C11 <0> d          -2.165  -0.727   3.399  0.00  0.00     0.181 A 
ATOM      7  S1  <0> d          -2.837  -1.840   4.513  0.00  0.00    -0.040 SA
ATOM      8  N4  <0> d          -2.139   0.570   3.736  0.00  0.00    -0.299 N 
ATOM      9  C12 <0> d          -1.625   1.504   2.909  0.00  0.00     0.265 A 
ATOM     10  O4  <0> d          -1.606   2.678   3.227  0.00  0.00    -0.267 OA
ATOM     11  H9  <0> d          -1.744  -2.150   2.055  0.00  0.00     0.171 HD
ATOM     12  H10 <0> d          -2.497   0.844   4.595  0.00  0.00     0.171 HD
ENDROOT
BRANCH   1  13
ATOM     13  N2  <0> d          -0.368   3.251   1.068  0.00  0.00    -0.356 N 
ATOM     14  H8  <0> d           0.279   3.480   1.753  0.00  0.00     0.166 HD
BRANCH  13  15
ATOM     15  C5  <0> d          -1.119   4.256   0.451  0.00  0.00     0.034 A 
ATOM     16  C4  <0> d          -2.292   3.935  -0.220  0.00  0.00     0.030 A 
ATOM     17  C3  <0> d          -3.035   4.931  -0.823  0.00  0.00     0.011 A 
ATOM     18  C2  <0> d          -2.605   6.245  -0.770  0.00  0.00    -0.029 A 
ATOM     19  C1  <0> d          -3.415   7.328  -1.434  0.00  0.00     0.050 C 
ATOM     20  C7  <0> d          -1.435   6.566  -0.108  0.00  0.00     0.111 A 
ATOM     21  C6  <0> d          -0.690   5.576   0.503  0.00  0.00     0.066 A 
BRANCH  20  22
ATOM     22  N1  <0> d          -0.979   7.973  -0.053  0.00  0.00    -0.115 N 
ATOM     23  O1  <0> d          -0.030   8.279   0.647  0.00  0.00    -0.532 OA
ATOM     24  O2  <0> d          -1.552   8.825  -0.709  0.00  0.00    -0.532 OA
ENDBRANCH  20  22
ENDBRANCH  13  15
ENDBRANCH   1  13
BRANCH   1  25
ATOM     25  C13 <0> d          -0.149   1.502  -0.669  0.00  0.00     0.320 C 
ATOM     26  F1  <0> d          -0.513   2.474  -1.607  0.00  0.00    -0.232 F 
BRANCH  25  27
ATOM     27  C14 <0> d           1.342   1.288  -0.720  0.00  0.00     0.298 C 
ATOM     28  O5  <0> d           2.061   2.149  -1.169  0.00  0.00    -0.262 OA
BRANCH  27  29
ATOM     29  O6  <0> d           1.871   0.141  -0.266  0.00  0.00    -0.324 OA
ATOM     30  C15 <0> d           3.315   0.004  -0.346  0.00  0.00     0.213 C 
ENDBRANCH  27  29
ENDBRANCH  25  27
ENDBRANCH   1  25
TORSDOF 6
