REMARK  4 active torsions:
REMARK  status: ('A' for Active; 'I' for Inactive)
REMARK    1  A    between atoms: C4_4  and  N3_23 
REMARK    2  A    between atoms: C7_8  and  C8_9 
REMARK    3  A    between atoms: C12_13  and  O2_17 
REMARK    4  A    between atoms: C14_15  and  O1_16 
ROOT
ATOM      1  C1  <0> d          -1.783   5.459   2.673  0.00  0.00     0.051 C 
ATOM      2  C2  <0> d          -2.162   4.029   2.962  0.00  0.00    -0.024 A 
ATOM      3  C3  <0> d          -3.147   3.724   3.907  0.00  0.00     0.096 A 
ATOM      4  C4  <0> d          -3.471   2.374   4.147  0.00  0.00     0.143 A 
ATOM      5  N1  <0> d          -2.861   1.402   3.497  0.00  0.00    -0.228 NA
ATOM      6  C5  <0> d          -1.918   1.650   2.590  0.00  0.00     0.092 A 
ATOM      7  C6  <0> d          -1.542   2.978   2.297  0.00  0.00     0.013 A 
ATOM      8  C7  <0> d          -0.484   2.913   1.269  0.00  0.00    -0.015 A 
ATOM      9  C15 <0> d          -0.261   1.553   0.967  0.00  0.00    -0.028 A 
ATOM     10  C16 <0> d          -1.098   0.771   1.740  0.00  0.00     0.081 A 
ATOM     11  C17 <0> d          -1.157  -0.659   1.718  0.00  0.00     0.102 C 
ATOM     12  N2  <0> d          -1.204  -1.794   1.701  0.00  0.00    -0.191 NA
ATOM     13  C18 <0> d           0.737   1.034  -0.036  0.00  0.00     0.050 C 
ATOM     14  C19 <0> d          -3.817   4.769   4.620  0.00  0.00     0.104 C 
ATOM     15  N4  <0> d          -4.349   5.599   5.186  0.00  0.00    -0.191 NA
ENDROOT
BRANCH   8  16
ATOM     16  C8  <0> d           0.170   3.993   0.701  0.00  0.00     0.027 C 
ATOM     17  C9  <0> d           0.443   5.145   1.478  0.00  0.00    -0.002 A 
ATOM     18  C14 <0> d           0.247   6.431   0.934  0.00  0.00     0.078 A 
ATOM     19  C10 <0> d           0.906   5.013   2.798  0.00  0.00     0.017 A 
ATOM     20  C13 <0> d           0.518   7.547   1.705  0.00  0.00     0.073 A 
ATOM     21  C12 <0> d           0.980   7.395   3.005  0.00  0.00     0.068 A 
ATOM     22  C11 <0> d           1.173   6.124   3.542  0.00  0.00     0.037 A 
BRANCH  18  23
ATOM     23  O1  <0> d          -0.204   6.572  -0.337  0.00  0.00    -0.360 OA
ATOM     24  H8  <0> d          -0.355   7.577  -0.758  0.00  0.00     0.217 HD
ENDBRANCH  18  23
BRANCH  21  25
ATOM     25  O2  <0> d           1.245   8.492   3.759  0.00  0.00    -0.361 OA
ATOM     26  H9  <0> d           1.094   9.497   3.338  0.00  0.00     0.217 HD
ENDBRANCH  21  25
ENDBRANCH   8  16
BRANCH   4  27
ATOM     27  N3  <0> d          -4.445   2.063   5.081  0.00  0.00    -0.383 N 
ATOM     28  H13 <0> d          -4.705   1.012   5.276  0.00  0.00     0.157 HD
ATOM     29  H14 <0> d          -4.959   2.867   5.629  0.00  0.00     0.157 HD
ENDBRANCH   4  27
TORSDOF 4
