REMARK  3 active torsions:
REMARK  status: ('A' for Active; 'I' for Inactive)
REMARK    1  A    between atoms: C3_5  and  C10_13 
REMARK    2  A    between atoms: N3_6  and  C4_7 
REMARK    3  A    between atoms: C10_13  and  N4_20 
ROOT
ATOM      1  C1  <0> d           1.020   0.966  -0.194  0.00  0.00     0.093 C 
ATOM      2  C2  <0> d           0.286  -0.342  -0.044  0.00  0.00     0.131 A 
ATOM      3  N1  <0> d          -0.780  -0.711  -0.701  0.00  0.00    -0.135 NA
ATOM      4  N2  <0> d          -1.141  -1.886  -0.324  0.00  0.00    -0.132 NA
ATOM      5  C3  <0> d          -0.325  -2.329   0.594  0.00  0.00     0.171 A 
ATOM      6  N3  <0> d           0.614  -1.362   0.798  0.00  0.00    -0.282 N 
ENDROOT
BRANCH   5   7
ATOM      7  C10 <0> d          -0.403  -3.662   1.292  0.00  0.00     0.185 C 
ATOM      8  C15 <0> d          -1.719  -4.351   0.929  0.00  0.00     0.047 C 
ATOM      9  C14 <0> d          -1.798  -5.705   1.638  0.00  0.00     0.007 C 
ATOM     10  C13 <0> d          -0.625  -6.582   1.196  0.00  0.00    -0.019 C 
ATOM     11  C12 <0> d           0.692  -5.892   1.559  0.00  0.00     0.007 C 
ATOM     12  C16 <0> d          -0.689  -6.794  -0.318  0.00  0.00     0.010 C 
ATOM     13  C11 <0> d           0.771  -4.538   0.850  0.00  0.00     0.047 C 
BRANCH   7  14
ATOM     14  N4  <0> d          -0.341  -3.458   2.745  0.00  0.00    -0.063 N 
ATOM     15  H21 <0> d          -1.107  -2.868   3.035  0.00  0.00     0.275 HD
ATOM     16  H22 <0> d          -0.408  -4.349   3.213  0.00  0.00     0.275 HD
ATOM     17  H23 <0> d           0.533  -3.016   2.986  0.00  0.00     0.275 HD
ENDBRANCH   7  14
ENDBRANCH   5   7
BRANCH   6  18
ATOM     18  C4  <0> d           1.694  -1.407   1.692  0.00  0.00     0.042 A 
ATOM     19  C9  <0> d           1.647  -0.684   2.876  0.00  0.00     0.030 A 
ATOM     20  C8  <0> d           2.709  -0.735   3.757  0.00  0.00     0.002 A 
ATOM     21  C7  <0> d           3.824  -1.495   3.455  0.00  0.00     0.000 A 
ATOM     22  C6  <0> d           3.876  -2.212   2.274  0.00  0.00     0.002 A 
ATOM     23  C5  <0> d           2.814  -2.170   1.392  0.00  0.00     0.030 A 
ENDBRANCH   6  18
TORSDOF 3
