REMARK  6 active torsions:
REMARK  status: ('A' for Active; 'I' for Inactive)
REMARK    1  A    between atoms: C2_2  and  C3_3 
REMARK    2  A    between atoms: C2_2  and  N2_16 
REMARK    3  A    between atoms: C3_3  and  C4_4 
REMARK    4  A    between atoms: C9_10  and  O1_13 
REMARK       I    between atoms: N2_16  and  C14_17 
REMARK    5  A    between atoms: C14_17  and  C15_19 
REMARK    6  A    between atoms: C18_23  and  N4_25 
ROOT
ATOM      1  N2  <0> d           3.736  -2.040  -0.045  0.00  0.00    -0.352 N 
ATOM      2  C14 <0> d           3.701  -0.693  -0.037  0.00  0.00     0.252 C 
ATOM      3  O2  <0> d           4.737  -0.058  -0.044  0.00  0.00    -0.268 OA
ATOM      4  H17 <0> d           2.798  -2.615  -0.040  0.00  0.00     0.163 HD
ENDROOT
BRANCH   1   5
ATOM      5  C2  <0> d           5.023  -2.740  -0.062  0.00  0.00     0.085 C 
ATOM      6  C1  <0> d           5.517  -2.864  -1.505  0.00  0.00     0.032 C 
BRANCH   5   7
ATOM      7  C3  <0> d           4.853  -4.135   0.541  0.00  0.00     0.065 C 
BRANCH   7   8
ATOM      8  C4  <0> d           4.485  -4.012   1.998  0.00  0.00    -0.028 A 
ATOM      9  C7  <0> d           3.138  -3.824   2.543  0.00  0.00     0.001 A 
ATOM     10  C6  <0> d           3.289  -3.764   3.940  0.00  0.00     0.044 A 
ATOM     11  C8  <0> d           1.869  -3.708   1.972  0.00  0.00     0.051 A 
ATOM     12  N1  <0> d           4.634  -3.906   4.210  0.00  0.00    -0.360 N 
ATOM     13  C11 <0> d           2.168  -3.588   4.743  0.00  0.00     0.033 A 
ATOM     14  C5  <0> d           5.329  -4.058   3.041  0.00  0.00     0.098 A 
ATOM     15  C13 <0> d           5.229  -3.902   5.548  0.00  0.00     0.155 C 
ATOM     16  C10 <0> d           0.921  -3.475   4.170  0.00  0.00     0.039 A 
ATOM     17  C9  <0> d           0.768  -3.534   2.787  0.00  0.00     0.069 A 
BRANCH  17  18
ATOM     18  O1  <0> d          -0.470  -3.420   2.237  0.00  0.00    -0.356 OA
ATOM     19  C12 <0> d          -1.566  -3.242   3.137  0.00  0.00     0.210 C 
ENDBRANCH  17  18
ENDBRANCH   7   8
ENDBRANCH   5   7
ENDBRANCH   1   5
BRANCH   2  20
ATOM     20  C15 <0> d           2.399   0.014  -0.021  0.00  0.00     0.036 A 
ATOM     21  C19 <0> d           2.342   1.408  -0.013  0.00  0.00     0.061 A 
ATOM     22  C18 <0> d           1.097   2.030   0.003  0.00  0.00     0.106 A 
ATOM     23  N3  <0> d          -0.016   1.315   0.009  0.00  0.00    -0.249 NA
ATOM     24  C17 <0> d           0.002  -0.004   0.002  0.00  0.00     0.119 A 
ATOM     25  C16 <0> d           1.194  -0.698  -0.013  0.00  0.00     0.036 A 
BRANCH  22  26
ATOM     26  N4  <0> d           1.023   3.418   0.011  0.00  0.00    -0.265 NA
ATOM     27  C23 <0> d          -0.376   3.871   0.026  0.00  0.00     0.125 C 
ATOM     28  C22 <0> d          -0.415   5.399  -0.045  0.00  0.00     0.249 C 
ATOM     29  N5  <0> d           0.329   5.960   1.091  0.00  0.00    -0.073 N 
ATOM     30  C21 <0> d           1.727   5.508   1.075  0.00  0.00     0.249 C 
ATOM     31  C24 <0> d           0.250   7.427   1.099  0.00  0.00     0.269 C 
ATOM     32  H32 <0> d          -0.136   5.592   2.017  0.00  0.00     0.279 HD
ATOM     33  C20 <0> d           1.767   3.979   1.147  0.00  0.00     0.125 C 
ENDBRANCH  22  26
ENDBRANCH   2  20
TORSDOF 6
