REMARK  1 active torsions:
REMARK  status: ('A' for Active; 'I' for Inactive)
REMARK    1  A    between atoms: C12_16  and  N1_19 
REMARK       I    between atoms: N1_19  and  C14_20 
ROOT
ATOM      1  C1  <0> d          -0.024   1.492   0.061  0.00  0.00     0.044 C 
ATOM      2  C2  <0> d           0.011  -0.015   0.051  0.00  0.00    -0.065 C 
ATOM      3  C3  <0> d          -1.077  -0.710   0.100  0.00  0.00     0.044 C 
ATOM      4  C4  <0> d          -1.238  -2.217   0.187  0.00  0.00     0.043 C 
ATOM      5  C5  <0> d          -2.377  -2.652  -0.735  0.00  0.00     0.026 C 
ATOM      6  C6  <0> d          -3.587  -1.704  -0.503  0.00  0.00     0.146 C 
ATOM      7  S1  <0> d          -2.771  -0.164   0.092  0.00  0.00     0.172 S 
ATOM      8  O1  <0> d          -2.840   0.860  -0.892  0.00  0.00    -0.223 OA
ATOM      9  O2  <0> d          -3.099   0.093   1.450  0.00  0.00    -0.223 OA
ATOM     10  C7  <0> d           0.063  -2.930  -0.074  0.00  0.00     0.083 C 
ATOM     11  C8  <0> d           1.044  -2.045  -0.844  0.00  0.00     0.076 C 
ATOM     12  C9  <0> d           1.326  -0.773  -0.023  0.00  0.00     0.048 C 
ATOM     13  C10 <0> d           2.310  -2.804  -1.111  0.00  0.00     0.156 C 
ATOM     14  O3  <0> d           3.371  -2.215  -1.112  0.00  0.00    -0.293 OA
ATOM     15  C11 <0> d           2.285  -4.195  -1.361  0.00  0.00     0.083 C 
ATOM     16  C12 <0> d           1.134  -4.915  -1.260  0.00  0.00     0.085 C 
ATOM     17  C13 <0> d          -0.125  -4.200  -0.869  0.00  0.00     0.181 C 
ATOM     18  O4  <0> d          -1.224  -4.623  -1.143  0.00  0.00    -0.290 OA
ENDROOT
BRANCH  16  19
ATOM     19  N1  <0> d           1.124  -6.269  -1.535  0.00  0.00    -0.324 N 
ATOM     20  C14 <0> d           0.708  -7.144  -0.598  0.00  0.00     0.218 C 
ATOM     21  O5  <0> d           0.258  -6.738   0.453  0.00  0.00    -0.274 OA
ATOM     22  C15 <0> d           0.801  -8.626  -0.856  0.00  0.00     0.117 C 
ATOM     23  H14 <0> d           1.417  -6.591  -2.402  0.00  0.00     0.169 HD
ENDBRANCH  16  19
TORSDOF 1
