REMARK  5 active torsions:
REMARK  status: ('A' for Active; 'I' for Inactive)
REMARK    1  A    between atoms: C7_7  and  N1_8 
REMARK    2  A    between atoms: C9_10  and  C11_13 
REMARK    3  A    between atoms: C11_13  and  N3_15 
REMARK       I    between atoms: N3_15  and  C13_16 
REMARK    4  A    between atoms: C13_16  and  C14_18 
REMARK    5  A    between atoms: C16_20  and  C17_24 
ROOT
ATOM      1  C11 <0> d           0.068   8.797  -2.674  0.00  0.00     0.117 C 
ATOM      2  C12 <0> d           1.485   9.103  -2.186  0.00  0.00     0.037 C 
ENDROOT
BRANCH   1   3
ATOM      3  C9  <0> d          -0.136   9.402  -4.038  0.00  0.00     0.008 A 
ATOM      4  C8  <0> d          -0.425  10.698  -4.299  0.00  0.00     0.042 A 
ATOM      5  N1  <0> d          -0.526  10.835  -5.641  0.00  0.00    -0.238 N 
ATOM      6  C20 <0> d          -0.599  11.793  -3.278  0.00  0.00     0.071 C 
ATOM      7  N2  <0> d          -0.299   9.580  -6.220  0.00  0.00    -0.179 NA
ATOM      8  C10 <0> d          -0.066   8.722  -5.259  0.00  0.00     0.150 A 
BRANCH   5   9
ATOM      9  C7  <0> d          -0.811  12.023  -6.329  0.00  0.00     0.064 A 
ATOM     10  C2  <0> d          -0.001  12.429  -7.380  0.00  0.00    -0.033 A 
ATOM     11  C1  <0> d           1.188  11.595  -7.782  0.00  0.00     0.050 C 
ATOM     12  C3  <0> d          -0.288  13.596  -8.061  0.00  0.00     0.009 A 
ATOM     13  C4  <0> d          -1.375  14.365  -7.689  0.00  0.00     0.001 A 
ATOM     14  C5  <0> d          -2.182  13.966  -6.639  0.00  0.00     0.002 A 
ATOM     15  C6  <0> d          -1.903  12.797  -5.958  0.00  0.00     0.032 A 
ENDBRANCH   5   9
ENDBRANCH   1   3
BRANCH   1  16
ATOM     16  N3  <0> d          -0.120   7.346  -2.750  0.00  0.00    -0.347 N 
ATOM     17  C13 <0> d          -0.487   6.655  -1.653  0.00  0.00     0.270 C 
ATOM     18  O1  <0> d          -0.662   7.236  -0.599  0.00  0.00    -0.266 OA
ATOM     19  H14 <0> d           0.021   6.882  -3.591  0.00  0.00     0.163 HD
BRANCH  17  20
ATOM     20  C14 <0> d          -0.675   5.197  -1.730  0.00  0.00     0.119 A 
ATOM     21  N5  <0> d          -0.516   4.407  -2.833  0.00  0.00    -0.273 N 
ATOM     22  N4  <0> d          -0.759   3.184  -2.526  0.00  0.00    -0.178 NA
ATOM     23  H2  <0> d          -0.251   4.732  -3.741  0.00  0.00     0.189 HD
ATOM     24  C16 <0> d          -1.090   3.075  -1.264  0.00  0.00     0.061 A 
ATOM     25  C15 <0> d          -1.047   4.352  -0.699  0.00  0.00     0.066 A 
BRANCH  24  26
ATOM     26  C17 <0> d          -1.446   1.799  -0.547  0.00  0.00     0.039 A 
ATOM     27  C19 <0> d          -1.420   1.817   0.984  0.00  0.00     0.011 A 
ATOM     28  C18 <0> d          -0.328   1.077   0.208  0.00  0.00     0.011 A 
ENDBRANCH  24  26
ENDBRANCH  17  20
ENDBRANCH   1  16
TORSDOF 5
