REMARK  7 active torsions:
REMARK  status: ('A' for Active; 'I' for Inactive)
REMARK    1  A    between atoms: C2_2  and  C3_3 
REMARK    2  A    between atoms: C3_3  and  N1_4 
REMARK    3  A    between atoms: N1_4  and  C4_5 
REMARK    4  A    between atoms: C10_14  and  C16_22 
REMARK    5  A    between atoms: N4_17  and  C12_18 
REMARK    6  A    between atoms: C12_18  and  C13_19 
REMARK    7  A    between atoms: C16_22  and  C18_24 
ROOT
ATOM      1  C4  <0> d          -2.629  -2.716   0.087  0.00  0.00     0.169 C 
ATOM      2  S1  <0> d          -1.171  -1.826  -0.025  0.00  0.00    -0.041 SA
ATOM      3  N2  <0> d          -2.594  -4.062   0.157  0.00  0.00    -0.358 N 
ATOM      4  C5  <0> d          -1.312  -4.772   0.257  0.00  0.00     0.129 C 
ATOM      5  C6  <0> d          -1.355  -5.697   1.478  0.00  0.00     0.081 C 
ATOM      6  C7  <0> d          -2.580  -6.604   1.383  0.00  0.00     0.206 C 
ATOM      7  C8  <0> d          -3.859  -5.769   1.357  0.00  0.00     0.081 C 
ATOM      8  C9  <0> d          -3.837  -4.845   0.141  0.00  0.00     0.129 C 
ATOM      9  N3  <0> d          -2.610  -7.525   2.540  0.00  0.00    -0.035 N 
ATOM     10  C10 <0> d          -3.198  -8.761   1.971  0.00  0.00     0.284 C 
ATOM     11  C11 <0> d          -2.856  -8.708   0.497  0.00  0.00     0.253 C 
ATOM     12  O1  <0> d          -2.898  -9.643  -0.274  0.00  0.00    -0.271 OA
ATOM     13  N4  <0> d          -2.498  -7.445   0.186  0.00  0.00    -0.317 N 
ATOM     14  H19 <0> d          -1.676  -7.699   2.881  0.00  0.00     0.281 HD
ATOM     15  H35 <0> d          -3.196  -7.156   3.274  0.00  0.00     0.281 HD
ENDROOT
BRANCH  13  16
ATOM     16  C12 <0> d          -2.090  -6.985  -1.144  0.00  0.00     0.133 C 
BRANCH  16  17
ATOM     17  C13 <0> d          -0.602  -7.272  -1.348  0.00  0.00     0.004 A 
ATOM     18  C15 <0> d          -0.039  -7.113  -2.762  0.00  0.00     0.007 A 
ATOM     19  C14 <0> d           0.307  -6.087  -1.681  0.00  0.00     0.007 A 
ENDBRANCH  16  17
ENDBRANCH  13  16
BRANCH  10  20
ATOM     20  C16 <0> d          -2.572  -9.997   2.621  0.00  0.00     0.021 C 
ATOM     21  C17 <0> d          -1.064  -9.999   2.366  0.00  0.00     0.012 C 
BRANCH  20  22
ATOM     22  C18 <0> d          -3.193 -11.259   2.019  0.00  0.00     0.002 C 
ATOM     23  C19 <0> d          -2.660 -12.490   2.755  0.00  0.00     0.005 C 
ENDBRANCH  20  22
ENDBRANCH  10  20
BRANCH   1  24
ATOM     24  N1  <0> d          -3.813  -2.071   0.107  0.00  0.00    -0.367 N 
ATOM     25  H10 <0> d          -4.641  -2.577   0.096  0.00  0.00     0.161 HD
BRANCH  24  26
ATOM     26  C3  <0> d          -3.849  -0.607   0.145  0.00  0.00     0.121 C 
BRANCH  26  27
ATOM     27  C2  <0> d          -5.303  -0.133   0.160  0.00  0.00     0.015 C 
ATOM     28  C1  <0> d          -5.341   1.396   0.200  0.00  0.00     0.006 C 
ENDBRANCH  26  27
ENDBRANCH  24  26
ENDBRANCH   1  24
TORSDOF 7
