REMARK  4 active torsions:
REMARK  status: ('A' for Active; 'I' for Inactive)
REMARK    1  A    between atoms: C4_4  and  N1_7 
REMARK    2  A    between atoms: C14_17  and  S1_18 
REMARK    3  A    between atoms: S1_18  and  C15_19 
REMARK    4  A    between atoms: C15_19  and  C16_20 
REMARK       I    between atoms: C16_20  and  N3_22 
ROOT
ATOM      1  N1  <0> d           3.585   2.124  -0.021  0.00  0.00    -0.256 N 
ATOM      2  C7  <0> d           4.761   1.461   0.072  0.00  0.00     0.267 A 
ATOM      3  O1  <0> d           4.795   0.248   0.164  0.00  0.00    -0.267 OA
ATOM      4  C8  <0> d           5.995   2.258   0.054  0.00  0.00     0.062 A 
ATOM      5  C9  <0> d           7.254   1.666   0.141  0.00  0.00     0.037 A 
ATOM      6  C10 <0> d           8.378   2.463   0.125  0.00  0.00     0.007 A 
ATOM      7  C11 <0> d           8.264   3.845   0.025  0.00  0.00     0.020 A 
ATOM      8  C12 <0> d           7.040   4.444  -0.061  0.00  0.00     0.034 A 
ATOM      9  C13 <0> d           5.881   3.663  -0.048  0.00  0.00     0.075 A 
ATOM     10  N2  <0> d           4.650   4.221  -0.130  0.00  0.00    -0.223 NA
ATOM     11  C14 <0> d           3.564   3.489  -0.118  0.00  0.00     0.177 A 
ATOM     12  I1  <0> d          10.276   1.585   0.255  0.00  0.00    -0.045 I 
ENDROOT
BRANCH  11  13
ATOM     13  S1  <0> d           2.003   4.298  -0.230  0.00  0.00    -0.082 SA
BRANCH  13  14
ATOM     14  C15 <0> d           2.549   6.021  -0.331  0.00  0.00     0.184 C 
BRANCH  14  15
ATOM     15  C16 <0> d           1.347   6.924  -0.437  0.00  0.00     0.225 C 
ATOM     16  O2  <0> d           0.231   6.449  -0.443  0.00  0.00    -0.273 OA
ATOM     17  N3  <0> d           1.512   8.259  -0.525  0.00  0.00    -0.369 N 
ATOM     18  H11 <0> d           2.405   8.638  -0.520  0.00  0.00     0.159 HD
ATOM     19  H12 <0> d           0.739   8.840  -0.593  0.00  0.00     0.159 HD
ENDBRANCH  14  15
ENDBRANCH  13  14
ENDBRANCH  11  13
BRANCH   1  20
ATOM     20  C4  <0> d           2.381   1.409  -0.014  0.00  0.00     0.044 A 
ATOM     21  C3  <0> d           1.740   1.139   1.188  0.00  0.00     0.030 A 
ATOM     22  C2  <0> d           0.552   0.433   1.192  0.00  0.00     0.002 A 
ATOM     23  C1  <0> d           0.002  -0.004   0.002  0.00  0.00     0.000 A 
ATOM     24  C6  <0> d           0.639   0.262  -1.197  0.00  0.00     0.002 A 
ATOM     25  C5  <0> d           1.826   0.968  -1.208  0.00  0.00     0.030 A 
ENDBRANCH   1  20
TORSDOF 4
