REMARK  4 active torsions:
REMARK  status: ('A' for Active; 'I' for Inactive)
REMARK    1  A    between atoms: N1_3  and  C9_12 
REMARK    2  A    between atoms: C4_5  and  N2_6 
REMARK    3  A    between atoms: C9_12  and  C13_19 
REMARK    4  A    between atoms: C13_19  and  N3_20 
ROOT
ATOM      1  C9  <0> d           3.912   0.368   0.488  0.00  0.00     0.196 C 
ATOM      2  C10 <0> d           4.003   0.219  -1.030  0.00  0.00     0.059 C 
ATOM      3  C11 <0> d           5.279  -0.579  -1.417  0.00  0.00     0.143 C 
ATOM      4  S1  <0> d           5.268  -1.847  -0.074  0.00  0.00     0.147 S 
ATOM      5  O2  <0> d           4.357  -2.882  -0.416  0.00  0.00    -0.228 OA
ATOM      6  O3  <0> d           6.607  -2.175   0.270  0.00  0.00    -0.228 OA
ATOM      7  C12 <0> d           4.536  -0.811   1.260  0.00  0.00     0.183 C 
ENDROOT
BRANCH   1   8
ATOM      8  N1  <0> d           2.496   0.482   0.865  0.00  0.00     0.103 N 
ATOM      9  C2  <0> d           1.815   1.532   0.065  0.00  0.00     0.276 C 
ATOM     10  C1  <0> d           0.315   1.179   0.159  0.00  0.00     0.068 C 
ATOM     11  C4  <0> d           0.277  -0.332   0.470  0.00  0.00     0.253 C 
ATOM     12  C3  <0> d           1.757  -0.764   0.538  0.00  0.00     0.309 C 
BRANCH  11  13
ATOM     13  N2  <0> d          -0.418  -1.056  -0.603  0.00  0.00     0.099 N 
ATOM     14  C8  <0> d          -0.316  -2.510  -0.409  0.00  0.00     0.299 C 
ATOM     15  C7  <0> d          -0.999  -3.225  -1.577  0.00  0.00     0.198 C 
ATOM     16  O1  <0> d          -2.357  -2.785  -1.670  0.00  0.00    -0.388 OA
ATOM     17  C6  <0> d          -2.494  -1.374  -1.860  0.00  0.00     0.198 C 
ATOM     18  C5  <0> d          -1.825  -0.641  -0.694  0.00  0.00     0.299 C 
ENDBRANCH  11  13
ENDBRANCH   1   8
BRANCH   1  19
ATOM     19  C13 <0> d           4.631   1.656   0.895  0.00  0.00     0.272 C 
BRANCH  19  20
ATOM     20  N3  <0> d           4.423   1.901   2.329  0.00  0.00    -0.077 N 
ATOM     21  H24 <0> d           3.443   2.063   2.504  0.00  0.00     0.274 HD
ATOM     22  H25 <0> d           4.730   1.097   2.855  0.00  0.00     0.274 HD
ATOM     23  H26 <0> d           4.954   2.711   2.612  0.00  0.00     0.274 HD
ENDBRANCH  19  20
ENDBRANCH   1  19
TORSDOF 4
