REMARK  4 active torsions:
REMARK  status: ('A' for Active; 'I' for Inactive)
REMARK    1  A    between atoms: C2_2  and  C4_4 
REMARK    2  A    between atoms: C4_4  and  C5_5 
REMARK    3  A    between atoms: C4_4  and  N1_10 
REMARK    4  A    between atoms: N1_10  and  C9_11 
ROOT
ATOM      1  N1  <0> d           0.738  -1.962  -1.265  0.00  0.00    -0.359 N 
ATOM      2  H12 <0> d           0.052  -2.454  -1.743  0.00  0.00     0.162 HD
ENDROOT
BRANCH   1   3
ATOM      3  C4  <0> d           0.718  -0.497  -1.257  0.00  0.00     0.127 C 
BRANCH   3   4
ATOM      4  C2  <0> d           0.002  -0.004   0.002  0.00  0.00     0.005 C 
ATOM      5  C1  <0> d          -0.019   1.526   0.010  0.00  0.00     0.012 C 
ATOM      6  C3  <0> d          -1.433  -0.534   0.013  0.00  0.00     0.012 C 
ENDBRANCH   3   4
BRANCH   3   7
ATOM      7  C5  <0> d          -0.011   0.002  -2.478  0.00  0.00     0.005 A 
ATOM      8  S1  <0> d          -1.488  -0.641  -3.246  0.00  0.00    -0.104 SA
ATOM      9  C8  <0> d          -1.612   0.538  -4.580  0.00  0.00     0.050 A 
ATOM     10  C7  <0> d          -0.532   1.327  -4.358  0.00  0.00     0.008 A 
ATOM     11  C6  <0> d           0.289   1.052  -3.281  0.00  0.00     0.017 A 
ENDBRANCH   3   7
ENDBRANCH   1   3
BRANCH   1  12
ATOM     12  C9  <0> d           1.744  -2.650  -0.585  0.00  0.00     0.213 A 
ATOM     13  N4  <0> d           2.674  -1.998   0.063  0.00  0.00    -0.145 NA
ATOM     14  N3  <0> d           3.673  -2.703   0.743  0.00  0.00    -0.222 N 
ATOM     15  C11 <0> d           3.699  -4.047   0.735  0.00  0.00     0.347 A 
ATOM     16  C12 <0> d           4.708  -1.966   1.472  0.00  0.00     0.185 C 
ATOM     17  N2  <0> d           2.764  -4.757   0.076  0.00  0.00    -0.266 N 
ATOM     18  O2  <0> d           4.583  -4.632   1.333  0.00  0.00    -0.245 OA
ATOM     19  C10 <0> d           1.778  -4.122  -0.591  0.00  0.00     0.298 A 
ATOM     20  C13 <0> d           2.818  -6.221   0.084  0.00  0.00     0.165 C 
ATOM     21  O1  <0> d           0.930  -4.757  -1.188  0.00  0.00    -0.264 OA
ENDBRANCH   1  12
TORSDOF 4
