REMARK  4 active torsions:
REMARK  status: ('A' for Active; 'I' for Inactive)
REMARK    1  A    between atoms: C3_3  and  C6_8 
REMARK    2  A    between atoms: C6_8  and  N2_9 
REMARK    3  A    between atoms: C8_12  and  C10_16 
REMARK    4  A    between atoms: C10_16  and  C11_17 
ROOT
ATOM      1  N2  <0> d          -0.641  -1.262  -3.070  0.00  0.00    -0.264 N 
ATOM      2  C7  <0> d          -0.331  -2.454  -3.618  0.00  0.00     0.251 A 
ATOM      3  O2  <0> d           0.777  -2.888  -3.849  0.00  0.00    -0.271 OA
ATOM      4  C8  <0> d          -1.657  -3.140  -3.883  0.00  0.00     0.183 A 
ATOM      5  N3  <0> d          -2.653  -2.163  -3.410  0.00  0.00    -0.329 N 
ATOM      6  C9  <0> d          -1.964  -1.103  -2.950  0.00  0.00     0.326 A 
ATOM      7  O3  <0> d          -2.485  -0.111  -2.480  0.00  0.00    -0.247 OA
ATOM      8  H12 <0> d          -3.617  -2.266  -3.425  0.00  0.00     0.165 HD
ENDROOT
BRANCH   4   9
ATOM      9  C10 <0> d          -1.757  -4.444  -3.088  0.00  0.00     0.071 C 
BRANCH   9  10
ATOM     10  C11 <0> d          -3.026  -5.164  -3.462  0.00  0.00    -0.048 A 
ATOM     11  C18 <0> d          -4.404  -4.942  -2.879  0.00  0.00     0.155 A 
ATOM     12  N4  <0> d          -5.291  -5.881  -3.574  0.00  0.00    -0.385 N 
ATOM     13  C17 <0> d          -4.580  -6.571  -4.433  0.00  0.00     0.038 A 
ATOM     14  H21 <0> d          -6.244  -5.978  -3.421  0.00  0.00     0.160 HD
ATOM     15  C12 <0> d          -3.163  -6.144  -4.384  0.00  0.00    -0.006 A 
ATOM     16  C16 <0> d          -4.936  -7.600  -5.347  0.00  0.00     0.030 A 
ATOM     17  C13 <0> d          -2.208  -6.807  -5.280  0.00  0.00     0.014 A 
ATOM     18  C14 <0> d          -2.653  -7.776  -6.112  0.00  0.00     0.001 A 
ATOM     19  C15 <0> d          -4.000  -8.162  -6.140  0.00  0.00     0.002 A 
ENDBRANCH   9  10
ENDBRANCH   4   9
BRANCH   1  20
ATOM     20  C6  <0> d           0.349  -0.266  -2.654  0.00  0.00     0.175 C 
BRANCH  20  21
ATOM     21  C3  <0> d           0.735  -0.512  -1.218  0.00  0.00    -0.007 A 
ATOM     22  C2  <0> d           0.002  -0.004   0.002  0.00  0.00     0.180 A 
ATOM     23  C1  <0> d          -0.019   1.526   0.010  0.00  0.00     0.047 C 
ATOM     24  O1  <0> d           0.748  -0.498   1.124  0.00  0.00    -0.271 OA
ATOM     25  N1  <0> d           1.832  -1.235   0.581  0.00  0.00    -0.270 N 
ATOM     26  C4  <0> d           1.772  -1.208  -0.801  0.00  0.00     0.035 A 
ATOM     27  H6  <0> d           2.513  -1.690   1.100  0.00  0.00     0.194 HD
ATOM     28  C5  <0> d           2.763  -1.888  -1.710  0.00  0.00     0.070 C 
ENDBRANCH  20  21
ENDBRANCH   1  20
TORSDOF 4
