REMARK  2 active torsions:
REMARK  status: ('A' for Active; 'I' for Inactive)
REMARK    1  A    between atoms: N1_6  and  C6_7 
REMARK    2  A    between atoms: C14_18  and  N2_19 
ROOT
ATOM      1  C1  <0> d          -0.087   1.501   0.017  0.00  0.00     0.068 C 
ATOM      2  C2  <0> d          -0.028  -0.005   0.005  0.00  0.00     0.009 A 
ATOM      3  C3  <0> d          -0.106  -0.791  -1.091  0.00  0.00     0.036 A 
ATOM      4  C4  <0> d          -0.008  -2.121  -0.657  0.00  0.00    -0.003 A 
ATOM      5  C5  <0> d           0.125  -2.103   0.689  0.00  0.00     0.021 A 
ATOM      6  N1  <0> d           0.120  -0.808   1.099  0.00  0.00    -0.343 N 
ATOM      7  C11 <0> d           0.258  -3.342   1.540  0.00  0.00     0.066 C 
ATOM      8  C12 <0> d          -0.196  -4.550   0.712  0.00  0.00    -0.040 C 
ATOM      9  C13 <0> d           0.510  -4.532  -0.647  0.00  0.00     0.046 C 
ATOM     10  C14 <0> d          -0.038  -3.375  -1.492  0.00  0.00     0.219 C 
ATOM     11  C15 <0> d          -1.710  -4.484   0.500  0.00  0.00     0.015 C 
ATOM     12  C16 <0> d           0.159  -5.840   1.454  0.00  0.00     0.015 C 
ENDROOT
BRANCH   6  13
ATOM     13  C6  <0> d           0.248  -0.350   2.485  0.00  0.00     0.047 C 
ATOM     14  C9  <0> d           1.177  -1.320   3.242  0.00  0.00     0.171 C 
ATOM     15  S1  <0> d           2.462  -0.207   3.948  0.00  0.00     0.146 S 
ATOM     16  C8  <0> d           1.552   1.390   3.776  0.00  0.00     0.143 C 
ATOM     17  O1  <0> d           3.593  -0.195   3.088  0.00  0.00    -0.228 OA
ATOM     18  O2  <0> d           2.631  -0.503   5.327  0.00  0.00    -0.228 OA
ATOM     19  C7  <0> d           0.749   1.093   2.479  0.00  0.00     0.047 C 
ATOM     20  C10 <0> d          -1.134  -0.383   3.140  0.00  0.00     0.040 C 
ENDBRANCH   6  13
BRANCH  10  21
ATOM     21  N2  <0> d           0.799  -3.195  -2.686  0.00  0.00    -0.071 N 
ATOM     22  H19 <0> d           1.749  -3.002  -2.405  0.00  0.00     0.275 HD
ATOM     23  H20 <0> d           0.777  -4.036  -3.243  0.00  0.00     0.275 HD
ATOM     24  H27 <0> d           0.447  -2.422  -3.230  0.00  0.00     0.275 HD
ENDBRANCH  10  21
TORSDOF 2
