REMARK  5 active torsions:
REMARK  status: ('A' for Active; 'I' for Inactive)
REMARK    1  A    between atoms: C5_6  and  N2_7 
REMARK    2  A    between atoms: N2_7  and  S1_8 
REMARK    3  A    between atoms: S1_8  and  C6_11 
REMARK    4  A    between atoms: C12_20  and  N6_24 
REMARK    5  A    between atoms: N6_24  and  C15_25 
ROOT
ATOM      1  C1  <0> d          -0.321   1.090   0.249  0.00  0.00     0.002 A 
ATOM      2  C2  <0> d           0.787   1.947   0.143  0.00  0.00     0.002 A 
ATOM      3  C3  <0> d           2.054   1.492   0.023  0.00  0.00     0.034 A 
ATOM      4  C4  <0> d           2.315   0.099  -0.000  0.00  0.00     0.085 A 
ATOM      5  N1  <0> d           3.552  -0.339  -0.117  0.00  0.00    -0.227 NA
ATOM      6  C5  <0> d           3.834  -1.651  -0.142  0.00  0.00     0.182 A 
ATOM      7  C12 <0> d           2.702  -2.648  -0.035  0.00  0.00     0.256 A 
ATOM      8  N5  <0> d           1.334  -2.122   0.094  0.00  0.00    -0.361 N 
ATOM      9  C13 <0> d           1.163  -0.830   0.110  0.00  0.00     0.059 A 
ATOM     10  C14 <0> d          -0.184  -0.254   0.237  0.00  0.00     0.031 A 
ATOM     11  H14 <0> d           0.576  -2.724   0.166  0.00  0.00     0.162 HD
ENDROOT
BRANCH   6  12
ATOM     12  N2  <0> d           5.064  -2.059  -0.258  0.00  0.00    -0.140 NA
BRANCH  12  13
ATOM     13  S1  <0> d           6.294  -0.957  -0.374  0.00  0.00     0.287 S 
ATOM     14  O1  <0> d           6.114  -0.277  -1.608  0.00  0.00    -0.198 OA
ATOM     15  O2  <0> d           6.348  -0.275   0.872  0.00  0.00    -0.198 OA
BRANCH  13  16
ATOM     16  C6  <0> d           7.797  -1.867  -0.514  0.00  0.00     0.113 A 
ATOM     17  C11 <0> d           8.238  -2.678   0.566  0.00  0.00     0.119 A 
ATOM     18  C10 <0> d           9.484  -3.421   0.411  0.00  0.00     0.098 A 
ATOM     19  N3  <0> d           7.655  -2.874   1.749  0.00  0.00    -0.190 NA
ATOM     20  C9  <0> d          10.202  -3.289  -0.809  0.00  0.00     0.035 A 
ATOM     21  N4  <0> d           9.796  -4.151   1.482  0.00  0.00    -0.191 NA
ATOM     22  C8  <0> d           9.725  -2.493  -1.795  0.00  0.00     0.004 A 
ATOM     23  C7  <0> d           8.531  -1.788  -1.649  0.00  0.00     0.028 A 
ATOM     24  S2  <0> d           8.618  -3.887   2.546  0.00  0.00     0.117 SA
ENDBRANCH  13  16
ENDBRANCH  12  13
ENDBRANCH   6  12
BRANCH   7  25
ATOM     25  N6  <0> d           2.743  -3.501  -1.225  0.00  0.00    -0.361 N 
ATOM     26  H9  <0> d           2.888  -3.106  -2.099  0.00  0.00     0.162 HD
BRANCH  25  27
ATOM     27  C15 <0> d           2.571  -4.882  -1.102  0.00  0.00     0.051 A 
ATOM     28  C20 <0> d           2.729  -5.706  -2.210  0.00  0.00     0.060 A 
ATOM     29  C19 <0> d           2.564  -7.072  -2.083  0.00  0.00     0.026 A 
ATOM     30 Cl1  <0> d           3.142  -5.020  -3.751  0.00  0.00    -0.082 Cl
ATOM     31  C18 <0> d           2.230  -7.618  -0.857  0.00  0.00     0.002 A 
ATOM     32  C17 <0> d           2.066  -6.800   0.246  0.00  0.00     0.002 A 
ATOM     33  C16 <0> d           2.236  -5.434   0.128  0.00  0.00     0.031 A 
ENDBRANCH  25  27
ENDBRANCH   7  25
TORSDOF 5
