REMARK  6 active torsions:
REMARK  status: ('A' for Active; 'I' for Inactive)
REMARK    1  A    between atoms: C2_2  and  C3_3 
REMARK    2  A    between atoms: C3_3  and  C4_4 
REMARK    3  A    between atoms: C3_3  and  N1_7 
REMARK    4  A    between atoms: C4_4  and  O1_5 
REMARK       I    between atoms: N1_7  and  C6_8 
REMARK    5  A    between atoms: C6_8  and  C7_10 
REMARK       I    between atoms: N2_12  and  C15_20 
REMARK    6  A    between atoms: C15_20  and  C16_22 
REMARK       I    between atoms: N4_25  and  C21_28 
ROOT
ATOM      1  C7  <0> d          -0.715   1.531   4.156  0.00  0.00     0.106 C 
ATOM      2  C8  <0> d          -0.216   0.812   5.430  0.00  0.00     0.140 C 
ATOM      3  N2  <0> d           0.730   1.767   6.053  0.00  0.00    -0.350 N 
ATOM      4  C9  <0> d           0.097   3.093   5.859  0.00  0.00     0.136 C 
ATOM      5  C10 <0> d          -0.511   3.028   4.443  0.00  0.00    -0.007 C 
ATOM      6  C11 <0> d           0.453   3.634   3.428  0.00  0.00     0.039 C 
ATOM      7  C12 <0> d           0.596   5.135   3.699  0.00  0.00     0.233 C 
ATOM      8  N3  <0> d          -0.720   5.779   3.600  0.00  0.00    -0.075 N 
ATOM      9  C13 <0> d          -1.613   5.256   4.640  0.00  0.00     0.233 C 
ATOM     10  C14 <0> d          -1.849   3.760   4.409  0.00  0.00     0.039 C 
ATOM     11  C15 <0> d           1.901   1.492   6.660  0.00  0.00     0.224 C 
ATOM     12  O3  <0> d           2.569   2.391   7.126  0.00  0.00    -0.273 OA
ATOM     13  H22 <0> d          -0.615   6.775   3.719  0.00  0.00     0.277 HD
ATOM     14  H39 <0> d          -1.117   5.591   2.692  0.00  0.00     0.277 HD
ENDROOT
BRANCH  11  15
ATOM     15  C16 <0> d           2.382   0.067   6.760  0.00  0.00     0.081 C 
ATOM     16  C20 <0> d           3.727   0.032   7.489  0.00  0.00     0.034 C 
ATOM     17  C19 <0> d           4.229  -1.413   7.558  0.00  0.00     0.126 C 
ATOM     18  N4  <0> d           3.188  -2.247   8.174  0.00  0.00    -0.352 N 
ATOM     19  C18 <0> d           1.833  -2.218   7.606  0.00  0.00     0.126 C 
ATOM     20  C21 <0> d           3.470  -3.022   9.239  0.00  0.00     0.215 C 
ATOM     21  C17 <0> d           1.358  -0.764   7.537  0.00  0.00     0.034 C 
ATOM     22  O4  <0> d           4.563  -2.962   9.761  0.00  0.00    -0.274 OA
ATOM     23  C22 <0> d           2.426  -3.963   9.784  0.00  0.00     0.117 C 
ENDBRANCH  11  15
BRANCH   1  24
ATOM     24  C6  <0> d           0.102   1.110   2.962  0.00  0.00     0.224 C 
ATOM     25  N1  <0> d          -0.387   1.282   1.717  0.00  0.00    -0.354 N 
ATOM     26  H13 <0> d          -1.272   1.658   1.591  0.00  0.00     0.162 HD
ATOM     27  O2  <0> d           1.198   0.616   3.120  0.00  0.00    -0.273 OA
BRANCH  25  28
ATOM     28  C3  <0> d           0.419   0.900   0.555  0.00  0.00     0.107 C 
BRANCH  28  29
ATOM     29  C2  <0> d           1.402   2.026   0.225  0.00  0.00     0.023 C 
ATOM     30  C1  <0> d           2.443   2.138   1.340  0.00  0.00     0.007 C 
ENDBRANCH  28  29
BRANCH  28  31
ATOM     31  C4  <0> d          -0.498   0.656  -0.644  0.00  0.00     0.192 C 
BRANCH  31  32
ATOM     32  O1  <0> d          -1.137   1.880  -1.012  0.00  0.00    -0.394 OA
ATOM     33  C5  <0> d          -2.022   1.761  -2.129  0.00  0.00     0.201 C 
ENDBRANCH  31  32
ENDBRANCH  28  31
ENDBRANCH  25  28
ENDBRANCH   1  24
TORSDOF 6
