REMARK  5 active torsions:
REMARK  status: ('A' for Active; 'I' for Inactive)
REMARK    1  A    between atoms: C2_2  and  N1_3 
REMARK    2  A    between atoms: N3_7  and  C8_12 
REMARK    3  A    between atoms: C8_12  and  C9_13 
REMARK    4  A    between atoms: C9_13  and  N5_14 
REMARK       I    between atoms: N5_14  and  C10_15 
REMARK    5  A    between atoms: C10_15  and  C11_17 
ROOT
ATOM      1  N1  <0> d           0.711  -0.489   1.189  0.00  0.00    -0.266 N 
ATOM      2  C3  <0> d           2.058  -0.736   1.281  0.00  0.00     0.102 A 
ATOM      3  C4  <0> d           3.292  -0.726   0.610  0.00  0.00     0.172 A 
ATOM      4  N2  <0> d           4.221  -1.132   1.431  0.00  0.00    -0.182 NA
ATOM      5  N3  <0> d           3.644  -1.427   2.672  0.00  0.00    -0.264 N 
ATOM      6  C5  <0> d           2.297  -1.180   2.580  0.00  0.00     0.108 A 
ATOM      7  C6  <0> d           1.063  -1.190   3.252  0.00  0.00     0.081 A 
ATOM      8  N4  <0> d           0.134  -0.778   2.432  0.00  0.00    -0.175 NA
ATOM      9  C7  <0> d           0.848  -1.603   4.685  0.00  0.00     0.075 C 
ENDROOT
BRANCH   5  10
ATOM     10  C8  <0> d           4.353  -1.912   3.859  0.00  0.00     0.171 C 
BRANCH  10  11
ATOM     11  C9  <0> d           4.819  -0.720   4.698  0.00  0.00     0.144 C 
BRANCH  11  12
ATOM     12  N5  <0> d           5.528  -1.206   5.884  0.00  0.00    -0.357 N 
ATOM     13  C10 <0> d           6.032  -0.328   6.774  0.00  0.00     0.246 C 
ATOM     14  O1  <0> d           5.899   0.864   6.593  0.00  0.00    -0.271 OA
ATOM     15  H15 <0> d           5.634  -2.159   6.030  0.00  0.00     0.162 HD
BRANCH  13  16
ATOM     16  C11 <0> d           6.761  -0.827   7.995  0.00  0.00     0.213 C 
ATOM     17  O2  <0> d           7.270   0.282   8.745  0.00  0.00    -0.376 OA
ATOM     18  C14 <0> d           6.668   0.307  10.051  0.00  0.00     0.168 C 
ATOM     19  C13 <0> d           6.237  -1.155  10.326  0.00  0.00     0.029 C 
ATOM     20  C12 <0> d           5.785  -1.601   8.908  0.00  0.00     0.043 C 
ENDBRANCH  13  16
ENDBRANCH  11  12
ENDBRANCH  10  11
ENDBRANCH   5  10
BRANCH   1  21
ATOM     21  C2  <0> d           0.002  -0.004   0.002  0.00  0.00     0.147 C 
ATOM     22  C1  <0> d          -0.019   1.526   0.010  0.00  0.00     0.028 C 
ENDBRANCH   1  21
TORSDOF 5
