REMARK  4 active torsions:
REMARK  status: ('A' for Active; 'I' for Inactive)
REMARK    1  A    between atoms: C7_7  and  C8_8 
REMARK    2  A    between atoms: N1_9  and  C9_10 
REMARK    3  A    between atoms: N5_18  and  C13_21 
REMARK    4  A    between atoms: C17_25  and  C19_27 
ROOT
ATOM      1  C1  <0> d           0.508   1.369  -0.674  0.00  0.00     0.001 A 
ATOM      2  C2  <0> d           1.818   1.644  -1.040  0.00  0.00     0.001 A 
ATOM      3  C3  <0> d           2.833   0.763  -0.738  0.00  0.00     0.018 A 
ATOM      4  C4  <0> d           2.542  -0.419  -0.056  0.00  0.00     0.044 A 
ATOM      5  C5  <0> d           1.210  -0.695   0.315  0.00  0.00    -0.003 A 
ATOM      6  C6  <0> d           0.199   0.206   0.001  0.00  0.00     0.013 A 
ATOM      7  C7  <0> d           0.933  -1.955   1.036  0.00  0.00     0.060 A 
ATOM      8  C11 <0> d           2.062  -2.847   1.323  0.00  0.00     0.267 A 
ATOM      9  O1  <0> d           1.868  -3.893   1.915  0.00  0.00    -0.267 OA
ATOM     10  N5  <0> d           3.307  -2.521   0.940  0.00  0.00    -0.244 N 
ATOM     11  C12 <0> d           3.594  -1.385   0.284  0.00  0.00     0.266 A 
ATOM     12  O2  <0> d           4.745  -1.152  -0.034  0.00  0.00    -0.267 OA
ENDROOT
BRANCH  10  13
ATOM     13  C13 <0> d           4.352  -3.405   1.238  0.00  0.00     0.046 A 
ATOM     14  C18 <0> d           4.950  -3.378   2.491  0.00  0.00     0.046 A 
ATOM     15  C17 <0> d           5.977  -4.255   2.783  0.00  0.00     0.050 A 
ATOM     16  C16 <0> d           6.417  -5.151   1.826  0.00  0.00     0.016 A 
ATOM     17  C15 <0> d           5.827  -5.176   0.576  0.00  0.00     0.003 A 
ATOM     18  C14 <0> d           4.796  -4.306   0.279  0.00  0.00     0.030 A 
BRANCH  15  19
ATOM     19  C19 <0> d           6.622  -4.232   4.145  0.00  0.00     0.417 C 
ATOM     20  F1  <0> d           7.631  -5.199   4.200  0.00  0.00    -0.166 F 
ATOM     21  F2  <0> d           7.174  -2.968   4.378  0.00  0.00    -0.166 F 
ATOM     22  F3  <0> d           5.659  -4.507   5.122  0.00  0.00    -0.166 F 
ENDBRANCH  15  19
ENDBRANCH  10  13
BRANCH   7  23
ATOM     23  C8  <0> d          -0.347  -2.283   1.425  0.00  0.00     0.124 C 
ATOM     24  N1  <0> d          -0.597  -3.496   1.988  0.00  0.00    -0.198 N 
ATOM     25  H7  <0> d           0.105  -4.164   2.033  0.00  0.00     0.183 HD
BRANCH  24  26
ATOM     26  C9  <0> d          -1.857  -3.779   2.496  0.00  0.00     0.723 A 
ATOM     27  N4  <0> d          -2.236  -4.900   3.062  0.00  0.00     0.043 NA
ATOM     28  N3  <0> d          -3.468  -4.814   3.418  0.00  0.00    -0.129 NA
ATOM     29  C10 <0> d          -3.946  -3.644   3.095  0.00  0.00     0.249 A 
ATOM     30  N2  <0> d          -2.938  -2.945   2.497  0.00  0.00    -0.181 N 
ATOM     31  H1  <0> d          -2.980  -2.042   2.145  0.00  0.00     0.185 HD
ENDBRANCH  24  26
ENDBRANCH   7  23
TORSDOF 4
