REMARK  2 active torsions:
REMARK  status: ('A' for Active; 'I' for Inactive)
REMARK    1  A    between atoms: C3_3  and  C10_12 
REMARK    2  A    between atoms: C11_14  and  C12_17 
ROOT
ATOM      1  C1  <0> d          -2.651   0.144   0.002  0.00  0.00     0.071 C 
ATOM      2  C2  <0> d          -2.498   1.643   0.018  0.00  0.00     0.045 A 
ATOM      3  C3  <0> d          -1.224   2.208   0.020  0.00  0.00     0.045 A 
ATOM      4  C4  <0> d          -1.103   3.601   0.027  0.00  0.00    -0.031 A 
ATOM      5  C5  <0> d          -2.251   4.363   0.036  0.00  0.00    -0.008 A 
ATOM      6  C6  <0> d          -3.482   3.725   0.041  0.00  0.00     0.126 A 
ATOM      7  N1  <0> d          -3.568   2.410   0.034  0.00  0.00    -0.264 NA
ATOM      8  C7  <0> d          -2.205   5.867   0.039  0.00  0.00     0.272 C 
ATOM      9  N2  <0> d          -0.875   6.336   0.445  0.00  0.00    -0.071 N 
ATOM     10  C8  <0> d           0.167   5.697  -0.374  0.00  0.00     0.237 C 
ATOM     11  C9  <0> d           0.266   4.224   0.028  0.00  0.00     0.068 C 
ATOM     12  H8  <0> d          -0.815   7.427   0.314  0.00  0.00     0.277 HD
ATOM     13  H16 <0> d          -0.705   6.085   1.502  0.00  0.00     0.277 HD
ENDROOT
BRANCH   3  14
ATOM     14  C10 <0> d          -0.016   1.345   0.009  0.00  0.00     0.192 A 
ATOM     15  N4  <0> d           1.227   1.753  -0.000  0.00  0.00    -0.105 NA
ATOM     16  O1  <0> d           1.982   0.804  -0.013  0.00  0.00    -0.190 OA
ATOM     17  C11 <0> d           1.280  -0.340  -0.012  0.00  0.00     0.208 A 
ATOM     18  N3  <0> d           0.002  -0.004   0.002  0.00  0.00    -0.199 NA
BRANCH  17  19
ATOM     19  C12 <0> d           1.829  -1.710  -0.025  0.00  0.00     0.035 A 
ATOM     20  C16 <0> d           0.983  -2.798  -0.018  0.00  0.00     0.107 A 
ATOM     21  N5  <0> d           1.480  -4.050  -0.034  0.00  0.00    -0.333 N 
ATOM     22  C15 <0> d           2.807  -4.269  -0.048  0.00  0.00     0.245 A 
ATOM     23  H1  <0> d           0.782  -4.901  -0.036  0.00  0.00     0.168 HD
ATOM     24  C14 <0> d           3.709  -3.189  -0.051  0.00  0.00     0.075 A 
ATOM     25  O2  <0> d           3.232  -5.412  -0.058  0.00  0.00    -0.268 OA
ATOM     26  C13 <0> d           3.229  -1.916  -0.039  0.00  0.00     0.023 A 
ENDBRANCH  17  19
ENDBRANCH   3  14
TORSDOF 2
