REMARK  3 active torsions:
REMARK  status: ('A' for Active; 'I' for Inactive)
REMARK    1  A    between atoms: C6_6  and  N1_9 
REMARK    2  A    between atoms: C10_11  and  C13_15 
REMARK       I    between atoms: C13_15  and  N2_17 
REMARK    3  A    between atoms: N2_17  and  C14_18 
ROOT
ATOM      1  N1  <0> d           0.052  -2.797   2.393  0.00  0.00    -0.317 N 
ATOM      2  C9  <0> d          -1.150  -3.238   3.109  0.00  0.00     0.147 C 
ATOM      3  C10 <0> d          -0.666  -4.318   4.102  0.00  0.00     0.105 C 
ATOM      4  C11 <0> d           0.814  -3.919   4.304  0.00  0.00     0.119 C 
ATOM      5  C12 <0> d           1.170  -3.167   3.041  0.00  0.00     0.225 C 
ATOM      6  O1  <0> d           2.300  -2.929   2.669  0.00  0.00    -0.273 OA
ENDROOT
BRANCH   3   7
ATOM      7  C13 <0> d          -0.777  -5.694   3.498  0.00  0.00     0.229 C 
ATOM      8  O2  <0> d          -1.203  -5.829   2.370  0.00  0.00    -0.273 OA
ATOM      9  N2  <0> d          -0.401  -6.775   4.210  0.00  0.00    -0.306 N 
ATOM     10  H15 <0> d          -0.060  -6.668   5.111  0.00  0.00     0.171 HD
BRANCH   9  11
ATOM     11  C14 <0> d          -0.503  -8.037   3.655  0.00  0.00     0.164 C 
ATOM     12  S1  <0> d          -0.065  -9.591   4.418  0.00  0.00    -0.091 SA
ATOM     13  C16 <0> d          -0.122 -10.643   2.907  0.00  0.00     0.104 C 
ATOM     14  C15 <0> d          -1.007  -9.723   2.023  0.00  0.00     0.162 C 
ATOM     15  N3  <0> d          -0.932  -8.343   2.466  0.00  0.00    -0.266 NA
ENDBRANCH   9  11
ENDBRANCH   3   7
BRANCH   1  16
ATOM     16  C6  <0> d           0.037  -2.089   1.186  0.00  0.00     0.043 A 
ATOM     17  C5  <0> d           0.041  -2.773  -0.022  0.00  0.00     0.030 A 
ATOM     18  C4  <0> d           0.025  -2.071  -1.212  0.00  0.00     0.003 A 
ATOM     19  C3  <0> d           0.006  -0.688  -1.200  0.00  0.00     0.007 A 
ATOM     20  C2  <0> d           0.002  -0.004   0.002  0.00  0.00    -0.054 A 
ATOM     21  C1  <0> d          -0.018   1.503   0.010  0.00  0.00     0.049 C 
ATOM     22  C7  <0> d           0.023  -0.700   1.194  0.00  0.00    -0.029 A 
ATOM     23  C8  <0> d           0.025   0.046   2.504  0.00  0.00     0.051 C 
ENDBRANCH   1  16
TORSDOF 3
