REMARK  6 active torsions:
REMARK  status: ('A' for Active; 'I' for Inactive)
REMARK    1  A    between atoms: C3_3  and  N1_9 
REMARK       I    between atoms: N1_9  and  C7_10 
REMARK    2  A    between atoms: C7_10  and  C8_12 
REMARK       I    between atoms: C8_12  and  N2_14 
REMARK    3  A    between atoms: N2_14  and  C9_15 
REMARK    4  A    between atoms: C9_15  and  C10_16 
REMARK    5  A    between atoms: C10_16  and  C11_17 
REMARK    6  A    between atoms: C11_17  and  N3_18 
ROOT
ATOM      1  C8  <0> d           4.849   4.226  -0.237  0.00  0.00     0.309 C 
ATOM      2  O2  <0> d           5.906   3.630  -0.250  0.00  0.00    -0.262 OA
ATOM      3  N2  <0> d           4.833   5.571  -0.332  0.00  0.00    -0.353 N 
ATOM      4  H5  <0> d           3.988   6.048  -0.322  0.00  0.00     0.162 HD
ENDROOT
BRANCH   1   5
ATOM      5  C7  <0> d           3.567   3.471  -0.116  0.00  0.00     0.314 C 
ATOM      6  N1  <0> d           3.583   2.126  -0.021  0.00  0.00    -0.318 N 
ATOM      7  H4  <0> d           4.428   1.655   0.049  0.00  0.00     0.169 HD
ATOM      8  O1  <0> d           2.510   4.067  -0.103  0.00  0.00    -0.262 OA
BRANCH   6   9
ATOM      9  C3  <0> d           2.382   1.411  -0.024  0.00  0.00     0.052 A 
ATOM     10  C2  <0> d           1.250   1.953  -0.619  0.00  0.00     0.034 A 
ATOM     11  C1  <0> d           0.065   1.244  -0.621  0.00  0.00     0.044 A 
ATOM     12  C6  <0> d           0.004  -0.007  -0.031  0.00  0.00     0.117 A 
ATOM     13  C5  <0> d           1.131  -0.551   0.563  0.00  0.00     0.063 A 
ATOM     14  F1  <0> d          -1.157  -0.698  -0.034  0.00  0.00    -0.206 F 
ATOM     15  C4  <0> d           2.318   0.154   0.568  0.00  0.00     0.040 A 
ATOM     16 Br1  <0> d           3.857  -0.589   1.378  0.00  0.00    -0.049 Br
ENDBRANCH   6   9
ENDBRANCH   1   5
BRANCH   3  17
ATOM     17  C9  <0> d           6.091   6.312  -0.451  0.00  0.00     0.125 C 
BRANCH  17  18
ATOM     18  C10 <0> d           5.793   7.810  -0.542  0.00  0.00     0.040 C 
BRANCH  18  19
ATOM     19  C11 <0> d           7.107   8.584  -0.666  0.00  0.00     0.130 C 
BRANCH  19  20
ATOM     20  N3  <0> d           6.822  10.019  -0.753  0.00  0.00    -0.352 N 
ATOM     21  C14 <0> d           6.723  10.880   0.282  0.00  0.00     0.182 A 
ATOM     22  N4  <0> d           6.463  12.070  -0.187  0.00  0.00    -0.361 N 
ATOM     23  C13 <0> d           6.380  12.009  -1.524  0.00  0.00     0.106 A 
ATOM     24  H15 <0> d           6.346  12.871   0.347  0.00  0.00     0.166 HD
ATOM     25  C12 <0> d           6.601  10.735  -1.898  0.00  0.00     0.108 A 
ENDBRANCH  19  20
ENDBRANCH  18  19
ENDBRANCH  17  18
ENDBRANCH   3  17
TORSDOF 6
