REMARK  7 active torsions:
REMARK  status: ('A' for Active; 'I' for Inactive)
REMARK    1  A    between atoms: C2_2  and  N1_3 
REMARK    2  A    between atoms: N2_8  and  C7_11 
REMARK    3  A    between atoms: C7_11  and  C8_12 
REMARK    4  A    between atoms: C8_12  and  C9_13 
REMARK    5  A    between atoms: C8_12  and  O4_22 
REMARK    6  A    between atoms: C9_13  and  O3_14 
REMARK    7  A    between atoms: O3_14  and  C10_15 
ROOT
ATOM      1  N1  <0> d          -0.018   1.461   0.010  0.00  0.00    -0.308 N 
ATOM      2  C3  <0> d          -1.213   2.110   0.019  0.00  0.00     0.124 A 
ATOM      3  C4  <0> d          -1.233   3.490   0.032  0.00  0.00     0.128 A 
ATOM      4  C5  <0> d           0.055   4.202   0.023  0.00  0.00     0.273 A 
ATOM      5  O1  <0> d           0.093   5.418   0.029  0.00  0.00    -0.266 OA
ATOM      6  N2  <0> d           1.193   3.476   0.009  0.00  0.00    -0.262 N 
ATOM      7  C6  <0> d           1.144   2.133   0.003  0.00  0.00     0.331 A 
ATOM      8  O2  <0> d           2.186   1.506  -0.010  0.00  0.00    -0.246 OA
ATOM      9  C16 <0> d          -2.472   4.208   0.047  0.00  0.00     0.106 C 
ATOM     10  N3  <0> d          -3.454   4.778   0.059  0.00  0.00    -0.191 NA
ENDROOT
BRANCH   1  11
ATOM     11  C2  <0> d           0.002  -0.004   0.002  0.00  0.00     0.128 C 
ATOM     12  C1  <0> d           0.023  -0.522   1.442  0.00  0.00     0.027 C 
ENDBRANCH   1  11
BRANCH   6  13
ATOM     13  C7  <0> d           2.490   4.157   0.001  0.00  0.00     0.171 C 
BRANCH  13  14
ATOM     14  C8  <0> d           2.929   4.401  -1.445  0.00  0.00     0.161 C 
BRANCH  14  15
ATOM     15  C9  <0> d           4.337   4.999  -1.456  0.00  0.00     0.209 C 
BRANCH  15  16
ATOM     16  O3  <0> d           4.793   5.119  -2.805  0.00  0.00    -0.349 OA
BRANCH  16  17
ATOM     17  C10 <0> d           6.035   5.636  -2.993  0.00  0.00     0.069 A 
ATOM     18  C15 <0> d           6.540   5.781  -4.277  0.00  0.00     0.040 A 
ATOM     19  C14 <0> d           7.804   6.307  -4.467  0.00  0.00     0.045 A 
ATOM     20  C13 <0> d           8.566   6.689  -3.376  0.00  0.00     0.116 A 
ATOM     21  C12 <0> d           8.063   6.546  -2.094  0.00  0.00     0.045 A 
ATOM     22  F1  <0> d           9.801   7.203  -3.563  0.00  0.00    -0.206 F 
ATOM     23  C11 <0> d           6.798   6.026  -1.902  0.00  0.00     0.040 A 
ENDBRANCH  16  17
ENDBRANCH  15  16
ENDBRANCH  14  15
BRANCH  14  24
ATOM     24  O4  <0> d           2.021   5.310  -2.071  0.00  0.00    -0.392 OA
ATOM     25  H16 <0> d           2.175   5.607  -3.119  0.00  0.00     0.210 HD
ENDBRANCH  14  24
ENDBRANCH  13  14
ENDBRANCH   6  13
TORSDOF 7
