REMARK  6 active torsions:
REMARK  status: ('A' for Active; 'I' for Inactive)
REMARK    1  A    between atoms: C2_2  and  C3_3 
REMARK    2  A    between atoms: C2_2  and  S1_18 
REMARK       I    between atoms: C3_3  and  N1_5 
REMARK    3  A    between atoms: N1_5  and  C4_6 
REMARK    4  A    between atoms: S1_18  and  C11_19 
REMARK    5  A    between atoms: C14_22  and  S2_25 
REMARK    6  A    between atoms: S2_25  and  N5_28 
ROOT
ATOM      1  C1  <0> d          -0.149   1.658   0.148  0.00  0.00     0.031 C 
ATOM      2  C2  <0> d           0.057   0.145   0.046  0.00  0.00     0.142 C 
ENDROOT
BRANCH   2   3
ATOM      3  C3  <0> d           0.772  -0.347   1.278  0.00  0.00     0.236 C 
ATOM      4  O1  <0> d           1.978  -0.474   1.269  0.00  0.00    -0.272 OA
ATOM      5  N1  <0> d           0.071  -0.647   2.389  0.00  0.00    -0.326 N 
ATOM      6  H7  <0> d          -0.882  -0.474   2.423  0.00  0.00     0.169 HD
BRANCH   5   7
ATOM      7  C4  <0> d           0.721  -1.210   3.496  0.00  0.00     0.037 A 
ATOM      8  C9  <0> d           1.794  -2.067   3.307  0.00  0.00     0.061 A 
ATOM      9  C8  <0> d           2.438  -2.617   4.404  0.00  0.00     0.065 A 
ATOM     10  C7  <0> d           1.997  -2.315   5.694  0.00  0.00     0.063 A 
ATOM     11  N2  <0> d           3.518  -3.486   4.541  0.00  0.00    -0.306 N 
ATOM     12  C6  <0> d           0.919  -1.462   5.877  0.00  0.00     0.034 A 
ATOM     13  N3  <0> d           2.824  -3.011   6.575  0.00  0.00    -0.307 N 
ATOM     14  C5  <0> d           0.284  -0.911   4.782  0.00  0.00     0.032 A 
ATOM     15  C10 <0> d           3.725  -3.703   5.853  0.00  0.00     0.325 A 
ATOM     16  H2  <0> d           2.761  -2.999   7.543  0.00  0.00     0.170 HD
ATOM     17  O2  <0> d           4.596  -4.417   6.316  0.00  0.00    -0.247 OA
ATOM     18  H1  <0> d           4.033  -3.869   3.814  0.00  0.00     0.170 HD
ENDBRANCH   5   7
ENDBRANCH   2   3
BRANCH   2  19
ATOM     19  S1  <0> d           1.052  -0.232  -1.423  0.00  0.00    -0.096 SA
BRANCH  19  20
ATOM     20  C11 <0> d           0.029   0.264  -2.769  0.00  0.00     0.093 A 
ATOM     21  N4  <0> d          -1.169   0.776  -2.530  0.00  0.00    -0.253 NA
ATOM     22  C15 <0> d          -1.963   1.165  -3.509  0.00  0.00     0.143 A 
ATOM     23  C14 <0> d          -1.575   1.040  -4.828  0.00  0.00     0.097 A 
ATOM     24  C13 <0> d          -0.329   0.502  -5.122  0.00  0.00     0.029 A 
ATOM     25  C12 <0> d           0.484   0.108  -4.075  0.00  0.00     0.040 A 
BRANCH  23  26
ATOM     26  S2  <0> d          -2.649   1.557  -6.125  0.00  0.00     0.262 S 
ATOM     27  O3  <0> d          -3.526   2.525  -5.564  0.00  0.00    -0.200 OA
ATOM     28  O4  <0> d          -1.825   1.836  -7.248  0.00  0.00    -0.200 OA
BRANCH  26  29
ATOM     29  N5  <0> d          -3.585   0.254  -6.535  0.00  0.00    -0.303 N 
ATOM     30  C19 <0> d          -4.873   0.008  -5.870  0.00  0.00     0.163 C 
ATOM     31  C18 <0> d          -4.909  -1.443  -5.392  0.00  0.00     0.255 C 
ATOM     32  N6  <0> d          -4.628  -2.339  -6.521  0.00  0.00    -0.072 N 
ATOM     33  C17 <0> d          -3.262  -2.115  -7.010  0.00  0.00     0.255 C 
ATOM     34  C20 <0> d          -4.768  -3.734  -6.084  0.00  0.00     0.269 C 
ATOM     35  H25 <0> d          -5.285  -2.155  -7.266  0.00  0.00     0.279 HD
ATOM     36  C16 <0> d          -3.147  -0.694  -7.572  0.00  0.00     0.163 C 
ENDBRANCH  26  29
ENDBRANCH  23  26
ENDBRANCH  19  20
ENDBRANCH   2  19
TORSDOF 6
