REMARK  3 active torsions:
REMARK  status: ('A' for Active; 'I' for Inactive)
REMARK    1  A    between atoms: C5_6  and  N2_8 
REMARK       I    between atoms: N2_8  and  C7_9 
REMARK    2  A    between atoms: C7_9  and  C8_11 
REMARK    3  A    between atoms: N4_25  and  C19_26 
ROOT
ATOM      1  C8  <0> d           0.279  -2.995   4.784  0.00  0.00     0.201 C 
ATOM      2  C9  <0> d           1.680  -3.606   4.874  0.00  0.00     0.074 C 
ATOM      3  C10 <0> d           1.439  -5.118   4.712  0.00  0.00     0.108 C 
ATOM      4  C11 <0> d          -0.057  -5.287   4.607  0.00  0.00     0.227 C 
ATOM      5  O2  <0> d          -0.619  -6.341   4.402  0.00  0.00    -0.273 OA
ATOM      6  N3  <0> d          -0.677  -4.116   4.773  0.00  0.00    -0.281 N 
ATOM      7  C12 <0> d          -2.041  -3.893   4.982  0.00  0.00     0.056 A 
ATOM      8  C13 <0> d          -3.034  -4.667   4.424  0.00  0.00     0.031 A 
ATOM      9  C14 <0> d          -4.359  -4.357   4.676  0.00  0.00     0.002 A 
ATOM     10  C15 <0> d          -4.687  -3.278   5.481  0.00  0.00     0.001 A 
ATOM     11  C16 <0> d          -3.701  -2.498   6.051  0.00  0.00     0.019 A 
ATOM     12  C17 <0> d          -2.364  -2.801   5.812  0.00  0.00     0.059 A 
ATOM     13  C18 <0> d          -1.263  -2.031   6.419  0.00  0.00     0.258 C 
ATOM     14  O3  <0> d          -1.487  -1.297   7.362  0.00  0.00    -0.267 OA
ATOM     15  N4  <0> d          -0.007  -2.137   5.932  0.00  0.00    -0.308 N 
ENDROOT
BRANCH   1  16
ATOM     16  C7  <0> d           0.149  -2.202   3.509  0.00  0.00     0.273 C 
ATOM     17  N2  <0> d           0.050  -2.839   2.326  0.00  0.00    -0.308 N 
ATOM     18  H7  <0> d          -0.012  -3.807   2.300  0.00  0.00     0.170 HD
ATOM     19  O1  <0> d           0.133  -0.990   3.549  0.00  0.00    -0.268 OA
BRANCH  17  20
ATOM     20  C5  <0> d           0.037  -2.107   1.139  0.00  0.00     0.130 A 
ATOM     21  N1  <0> d           0.014  -0.785   1.185  0.00  0.00    -0.243 NA
ATOM     22  C4  <0> d           0.001  -0.055   0.086  0.00  0.00     0.119 A 
ATOM     23  C3  <0> d           0.012  -0.651  -1.160  0.00  0.00     0.026 A 
ATOM     24  C2  <0> d           0.036  -2.036  -1.251  0.00  0.00    -0.057 A 
ATOM     25  C1  <0> d           0.049  -2.720  -2.594  0.00  0.00     0.048 C 
ATOM     26  C6  <0> d           0.043  -2.774  -0.081  0.00  0.00     0.057 A 
ENDBRANCH  17  20
ENDBRANCH   1  16
BRANCH  15  27
ATOM     27  C19 <0> d           1.080  -1.384   6.562  0.00  0.00     0.082 C 
ATOM     28  C20 <0> d           0.774   0.114   6.486  0.00  0.00     0.032 C 
ATOM     29  C21 <0> d           1.208  -1.804   8.028  0.00  0.00     0.032 C 
ENDBRANCH  15  27
TORSDOF 3
