REMARK  9 active torsions:
REMARK  status: ('A' for Active; 'I' for Inactive)
REMARK    1  A    between atoms: C2_2  and  C4_4 
REMARK    2  A    between atoms: C4_4  and  C5_5 
REMARK    3  A    between atoms: C4_4  and  N6_36 
REMARK    4  A    between atoms: N4_9  and  C6_10 
REMARK    5  A    between atoms: C11_15  and  C12_16 
REMARK    6  A    between atoms: C11_15  and  N6_36 
REMARK    7  A    between atoms: C12_16  and  O1_17 
REMARK    8  A    between atoms: C13_18  and  C14_19 
REMARK    9  A    between atoms: C13_18  and  N6_36 
ROOT
ATOM      1  N6  <0> d          -1.811   0.654   1.575  0.00  0.00    -0.053 N 
ATOM      2  H33 <0> d          -1.803  -0.370   1.649  0.00  0.00     0.281 HD
ENDROOT
BRANCH   1   3
ATOM      3  C4  <0> d          -2.399   1.219   2.808  0.00  0.00     0.264 C 
BRANCH   3   4
ATOM      4  C2  <0> d          -3.766   0.575   3.044  0.00  0.00     0.016 C 
ATOM      5  C1  <0> d          -3.601  -0.942   3.165  0.00  0.00     0.012 C 
ATOM      6  C3  <0> d          -4.374   1.126   4.335  0.00  0.00     0.012 C 
ENDBRANCH   3   4
BRANCH   3   7
ATOM      7  C5  <0> d          -1.491   0.912   3.971  0.00  0.00     0.179 A 
ATOM      8  N4  <0> d          -1.127   1.760   4.952  0.00  0.00    -0.228 N 
ATOM      9  N3  <0> d          -0.347   1.108   5.747  0.00  0.00    -0.044 NA
ATOM     10  N2  <0> d          -0.215  -0.094   5.305  0.00  0.00    -0.023 NA
ATOM     11  N1  <0> d          -0.908  -0.233   4.228  0.00  0.00    -0.112 NA
BRANCH   8  12
ATOM     12  C6  <0> d          -1.539   3.159   5.090  0.00  0.00     0.113 C 
ATOM     13  C10 <0> d          -2.268   3.363   6.430  0.00  0.00     0.027 C 
ATOM     14  C9  <0> d          -1.445   4.396   7.227  0.00  0.00     0.002 C 
ATOM     15  C8  <0> d          -0.665   5.179   6.142  0.00  0.00     0.002 C 
ATOM     16  C7  <0> d          -0.297   4.074   5.119  0.00  0.00     0.027 C 
ENDBRANCH   8  12
ENDBRANCH   3   7
ENDBRANCH   1   3
BRANCH   1  17
ATOM     17  C11 <0> d          -0.423   1.135   1.412  0.00  0.00     0.262 C 
BRANCH  17  18
ATOM     18  C12 <0> d           0.289   0.242   0.393  0.00  0.00     0.192 C 
BRANCH  18  19
ATOM     19  O1  <0> d          -0.294   0.433  -0.897  0.00  0.00    -0.399 OA
ATOM     20  H23 <0> d           0.156  -0.044  -1.607  0.00  0.00     0.209 HD
ENDBRANCH  18  19
ENDBRANCH  17  18
ENDBRANCH   1  17
BRANCH   1  21
ATOM     21  C13 <0> d          -2.622   1.045   0.403  0.00  0.00     0.280 C 
BRANCH  21  22
ATOM     22  C14 <0> d          -2.511   2.528   0.155  0.00  0.00     0.036 A 
ATOM     23  C22 <0> d          -3.371   3.419   0.829  0.00  0.00     0.253 A 
ATOM     24  N5  <0> d          -3.300   4.747   0.639  0.00  0.00    -0.322 N 
ATOM     25  O2  <0> d          -4.196   2.973   1.608  0.00  0.00    -0.268 OA
ATOM     26  C21 <0> d          -2.383   5.291  -0.238  0.00  0.00     0.048 A 
ATOM     27  H2  <0> d          -3.905   5.332   1.122  0.00  0.00     0.169 HD
ATOM     28  C16 <0> d          -1.505   4.443  -0.940  0.00  0.00    -0.006 A 
ATOM     29  C20 <0> d          -2.314   6.664  -0.436  0.00  0.00     0.070 A 
ATOM     30  C15 <0> d          -1.588   2.999  -0.721  0.00  0.00     0.028 A 
ATOM     31  C17 <0> d          -0.572   4.986  -1.831  0.00  0.00     0.053 A 
ATOM     32  C18 <0> d          -0.515   6.352  -2.015  0.00  0.00     0.103 A 
ATOM     33  O4  <0> d           0.402   6.865  -2.881  0.00  0.00    -0.346 OA
ATOM     34  C19 <0> d          -1.387   7.193  -1.317  0.00  0.00     0.104 A 
ATOM     35  C24 <0> d           0.187   8.210  -3.324  0.00  0.00     0.202 C 
ATOM     36  C23 <0> d          -0.155   9.070  -2.100  0.00  0.00     0.202 C 
ATOM     37  O3  <0> d          -1.340   8.541  -1.496  0.00  0.00    -0.346 OA
ENDBRANCH  21  22
ENDBRANCH   1  21
TORSDOF 9
