REMARK  5 active torsions:
REMARK  status: ('A' for Active; 'I' for Inactive)
REMARK    1  A    between atoms: C6_6  and  C7_7 
REMARK    2  A    between atoms: C7_7  and  S1_8 
REMARK    3  A    between atoms: S1_8  and  C8_9 
REMARK    4  A    between atoms: C9_12  and  N3_14 
REMARK    5  A    between atoms: C10_15  and  C11_17 
ROOT
ATOM      1  C8  <0> d          -3.335  -1.973  -1.518  0.00  0.00     0.160 A 
ATOM      2  N1  <0> d          -3.974  -2.359  -0.417  0.00  0.00    -0.133 NA
ATOM      3  N2  <0> d          -5.056  -3.004  -0.467  0.00  0.00    -0.120 NA
ATOM      4  C9  <0> d          -5.622  -3.335  -1.627  0.00  0.00     0.218 A 
ATOM      5  S2  <0> d          -4.442  -2.619  -2.768  0.00  0.00    -0.020 SA
ENDROOT
BRANCH   4   6
ATOM      6  N3  <0> d          -6.762  -4.013  -1.873  0.00  0.00    -0.194 NA
ATOM      7  C10 <0> d          -7.494  -4.453  -0.871  0.00  0.00     0.204 C 
ATOM      8  O1  <0> d          -7.103  -4.226   0.406  0.00  0.00    -0.170 OA
BRANCH   7   9
ATOM      9  C11 <0> d          -8.690  -5.164  -1.129  0.00  0.00     0.085 C 
ATOM     10  C12 <0> d          -9.448  -5.620  -0.093  0.00  0.00     0.082 A 
ATOM     11  S3  <0> d          -9.180  -5.469   1.668  0.00  0.00    -0.024 SA
ATOM     12  C13 <0> d         -10.717  -6.383  -0.115  0.00  0.00     0.266 A 
ATOM     13  C14 <0> d         -10.641  -6.339   2.214  0.00  0.00     0.291 A 
ATOM     14  N4  <0> d         -11.238  -6.697   1.059  0.00  0.00    -0.283 N 
ATOM     15  O3  <0> d         -11.006  -6.560   3.353  0.00  0.00    -0.260 OA
ATOM     16  H8  <0> d         -12.069  -7.197   1.091  0.00  0.00     0.172 HD
ATOM     17  O2  <0> d         -11.252  -6.704  -1.159  0.00  0.00    -0.267 OA
ENDBRANCH   7   9
ENDBRANCH   4   6
BRANCH   1  18
ATOM     18  S1  <0> d          -1.829  -1.075  -1.696  0.00  0.00    -0.097 SA
BRANCH  18  19
ATOM     19  C7  <0> d          -1.293  -0.775   0.011  0.00  0.00     0.120 C 
BRANCH  19  20
ATOM     20  C6  <0> d           0.002  -0.004   0.002  0.00  0.00    -0.048 A 
ATOM     21  C1  <0> d          -0.017   1.378   0.010  0.00  0.00     0.009 A 
ATOM     22  C2  <0> d           1.171   2.086   0.002  0.00  0.00     0.024 A 
ATOM     23  C3  <0> d           2.378   1.410  -0.013  0.00  0.00     0.034 A 
ATOM     24  C4  <0> d           2.396   0.027  -0.021  0.00  0.00     0.024 A 
ATOM     25 Cl1  <0> d           3.870   2.298  -0.023  0.00  0.00    -0.084 Cl
ATOM     26  C5  <0> d           1.208  -0.679  -0.013  0.00  0.00     0.009 A 
ENDBRANCH  19  20
ENDBRANCH  18  19
ENDBRANCH   1  18
TORSDOF 5
