REMARK  3 active torsions:
REMARK  status: ('A' for Active; 'I' for Inactive)
REMARK    1  A    between atoms: C5_5  and  N1_7 
REMARK    2  A    between atoms: C8_9  and  C11_13 
REMARK       I    between atoms: C11_13  and  N2_15 
REMARK    3  A    between atoms: N2_15  and  C12_16 
ROOT
ATOM      1  N1  <0> d           1.169  -2.129  -0.476  0.00  0.00    -0.316 N 
ATOM      2  C7  <0> d           1.177  -2.785   0.836  0.00  0.00     0.147 C 
ATOM      3  C8  <0> d           0.804  -4.259   0.563  0.00  0.00     0.105 C 
ATOM      4  C9  <0> d           1.258  -4.432  -0.906  0.00  0.00     0.119 C 
ATOM      5  C10 <0> d           1.213  -3.030  -1.473  0.00  0.00     0.225 C 
ATOM      6  O1  <0> d           1.220  -2.759  -2.655  0.00  0.00    -0.273 OA
ENDROOT
BRANCH   3   7
ATOM      7  C11 <0> d          -0.681  -4.474   0.698  0.00  0.00     0.228 C 
ATOM      8  O2  <0> d          -1.404  -3.544   0.988  0.00  0.00    -0.273 OA
ATOM      9  N2  <0> d          -1.206  -5.698   0.497  0.00  0.00    -0.322 N 
ATOM     10  H10 <0> d          -0.640  -6.425   0.195  0.00  0.00     0.169 HD
BRANCH   9  11
ATOM     11  C12 <0> d          -2.573  -5.922   0.725  0.00  0.00     0.101 A 
ATOM     12  C16 <0> d          -3.138  -5.678   2.004  0.00  0.00     0.201 A 
ATOM     13  C15 <0> d          -4.519  -5.911   2.190  0.00  0.00     0.074 A 
ATOM     14  O3  <0> d          -2.444  -5.270   2.925  0.00  0.00    -0.286 OA
ATOM     15  C14 <0> d          -5.259  -6.367   1.154  0.00  0.00     0.091 A 
ATOM     16  N3  <0> d          -4.693  -6.597  -0.055  0.00  0.00    -0.373 N 
ATOM     17  C13 <0> d          -3.370  -6.380  -0.272  0.00  0.00     0.121 A 
ATOM     18  H14 <0> d          -5.245  -6.923  -0.783  0.00  0.00     0.164 HD
ENDBRANCH   9  11
ENDBRANCH   3   7
BRANCH   1  19
ATOM     19  C5  <0> d           1.116  -0.743  -0.666  0.00  0.00     0.054 A 
ATOM     20  C4  <0> d           2.291  -0.006  -0.750  0.00  0.00     0.037 A 
ATOM     21  C3  <0> d           2.235   1.362  -0.938  0.00  0.00     0.021 A 
ATOM     22 Br1  <0> d           3.965  -0.874  -0.607  0.00  0.00    -0.049 Br
ATOM     23  C2  <0> d           1.011   1.996  -1.043  0.00  0.00     0.002 A 
ATOM     24  C1  <0> d          -0.160   1.265  -0.961  0.00  0.00     0.002 A 
ATOM     25  C6  <0> d          -0.111  -0.102  -0.773  0.00  0.00     0.031 A 
ENDBRANCH   1  19
TORSDOF 3
