REMARK  0 active torsions:
REMARK  status: ('A' for Active; 'I' for Inactive)
ROOT
ATOM      1  C1  <0> d          -0.019   1.521   0.010  0.00  0.00     0.047 C 
ATOM      2  C2  <0> d           1.422   2.052  -0.001  0.00  0.00     0.238 C 
ATOM      3  C3  <0> d           1.343   3.584  -0.017  0.00  0.00     0.216 C 
ATOM      4  O1  <0> d           2.672   4.130   0.062  0.00  0.00    -0.292 OA
ATOM      5  P1  <0> d           3.789   3.557  -0.972  0.00  0.00     0.384 P 
ATOM      6  O2  <0> d           3.637   4.234  -2.353  0.00  0.00    -0.629 OA
ATOM      7  N1  <0> d           3.482   1.940  -1.091  0.00  0.00    -0.150 N 
ATOM      8  N2  <0> d           2.157   1.559  -1.165  0.00  0.00     0.020 N 
ATOM      9  C4  <0> d           2.170   0.087  -1.212  0.00  0.00     0.272 C 
ATOM     10  C5  <0> d           0.742  -0.439  -1.293  0.00  0.00     0.047 C 
ATOM     11  C6  <0> d           0.002  -0.004   0.002  0.00  0.00     0.023 C 
ATOM     12  C7  <0> d          -1.388  -0.576  -0.025  0.00  0.00     0.024 C 
ATOM     13  C8  <0> d          -1.564  -1.815  -0.491  0.00  0.00     0.151 C 
ATOM     14  C9  <0> d          -0.399  -2.595  -0.954  0.00  0.00     0.151 C 
ATOM     15  C10 <0> d           0.706  -1.939  -1.383  0.00  0.00     0.026 C 
ATOM     16  F1  <0> d          -0.458  -3.944  -0.996  0.00  0.00    -0.203 F 
ATOM     17  F2  <0> d          -2.803  -2.353  -0.539  0.00  0.00    -0.203 F 
ATOM     18  O3  <0> d           5.209   3.797  -0.414  0.00  0.00    -0.629 OA
ATOM     19  H8  <0> d           4.204   1.292  -1.116  0.00  0.00     0.200 HD
ATOM     20  H13 <0> d           1.735   1.921  -2.007  0.00  0.00     0.309 HD
ENDROOT
TORSDOF 0
