REMARK  3 active torsions:
REMARK  status: ('A' for Active; 'I' for Inactive)
REMARK    1  A    between atoms: C5_5  and  N1_7 
REMARK    2  A    between atoms: C6_8  and  C13_16 
REMARK    3  A    between atoms: C6_8  and  O2_20 
ROOT
ATOM      1  N1  <0> d          -0.018   1.470   0.010  0.00  0.00    -0.202 N 
ATOM      2  C6  <0> d           0.002  -0.004   0.002  0.00  0.00     0.264 A 
ATOM      3  C7  <0> d           1.496  -0.334   0.121  0.00  0.00     0.102 A 
ATOM      4  C8  <0> d           1.985  -1.164  -1.068  0.00  0.00     0.016 C 
ATOM      5  C9  <0> d           3.517  -1.180  -1.053  0.00  0.00     0.001 C 
ATOM      6  C10 <0> d           4.083   0.220  -1.283  0.00  0.00     0.006 C 
ATOM      7  C11 <0> d           3.674   1.152  -0.131  0.00  0.00     0.057 C 
ATOM      8  C12 <0> d           2.172   1.025   0.018  0.00  0.00     0.042 A 
ATOM      9  N2  <0> d           1.298   1.935   0.000  0.00  0.00    -0.176 NA
ENDROOT
BRANCH   1  10
ATOM     10  C5  <0> d          -1.159   2.266   0.020  0.00  0.00     0.169 A 
ATOM     11  C4  <0> d          -1.182   3.620   0.028  0.00  0.00     0.060 A 
ATOM     12  C3  <0> d          -2.542   4.005   0.036  0.00  0.00     0.036 A 
ATOM     13  C2  <0> d          -3.269   2.874   0.033  0.00  0.00     0.051 A 
ATOM     14  C1  <0> d          -4.774   2.796   0.040  0.00  0.00     0.077 C 
ATOM     15  O1  <0> d          -2.428   1.823   0.018  0.00  0.00    -0.297 OA
ENDBRANCH   1  10
BRANCH   2  16
ATOM     16  C13 <0> d          -0.775  -0.561   1.196  0.00  0.00     0.440 C 
ATOM     17  F1  <0> d          -2.111  -0.154   1.114  0.00  0.00    -0.166 F 
ATOM     18  F2  <0> d          -0.712  -1.959   1.182  0.00  0.00    -0.166 F 
ATOM     19  F3  <0> d          -0.213  -0.081   2.384  0.00  0.00    -0.166 F 
ENDBRANCH   2  16
BRANCH   2  20
ATOM     20  O2  <0> d          -0.530  -0.509  -1.224  0.00  0.00    -0.361 OA
ATOM     21  H15 <0> d          -1.452  -0.265  -1.383  0.00  0.00     0.213 HD
ENDBRANCH   2  20
TORSDOF 3
