REMARK  3 active torsions:
REMARK  status: ('A' for Active; 'I' for Inactive)
REMARK    1  A    between atoms: C2_3  and  C10_13 
REMARK    2  A    between atoms: C3_5  and  C4_7 
REMARK    3  A    between atoms: C13_16  and  N4_19 
ROOT
ATOM      1  C1  <0> d          -0.018   1.461   0.010  0.00  0.00     0.181 C 
ATOM      2  N1  <0> d           0.002  -0.004   0.002  0.00  0.00    -0.258 N 
ATOM      3  C2  <0> d           0.008  -0.804  -1.079  0.00  0.00     0.128 A 
ATOM      4  N2  <0> d           0.028  -2.045  -0.665  0.00  0.00    -0.216 NA
ATOM      5  C3  <0> d           0.035  -2.077   0.667  0.00  0.00     0.152 A 
ATOM      6  N3  <0> d           0.025  -0.852   1.122  0.00  0.00    -0.155 NA
ENDROOT
BRANCH   3   7
ATOM      7  C10 <0> d          -0.006  -0.350  -2.515  0.00  0.00     0.057 C 
ATOM      8  C15 <0> d          -1.251  -0.902  -3.213  0.00  0.00     0.014 C 
ATOM      9  C14 <0> d          -1.265  -0.442  -4.671  0.00  0.00     0.033 C 
ATOM     10  C13 <0> d          -0.012  -0.958  -5.381  0.00  0.00     0.183 C 
ATOM     11  C12 <0> d           1.233  -0.405  -4.684  0.00  0.00     0.033 C 
ATOM     12  C11 <0> d           1.247  -0.866  -3.225  0.00  0.00     0.014 C 
BRANCH  10  13
ATOM     13  N4  <0> d           0.010  -2.425  -5.332  0.00  0.00    -0.075 N 
ATOM     14  H25 <0> d           0.019  -2.729  -4.370  0.00  0.00     0.274 HD
ATOM     15  H26 <0> d          -0.811  -2.790  -5.792  0.00  0.00     0.274 HD
ATOM     16  H27 <0> d           0.836  -2.766  -5.800  0.00  0.00     0.274 HD
ENDBRANCH  10  13
ENDBRANCH   3   7
BRANCH   5  17
ATOM     17  C4  <0> d           0.056  -3.325   1.513  0.00  0.00     0.059 C 
ATOM     18  C9  <0> d           1.310  -3.325   2.390  0.00  0.00     0.012 C 
ATOM     19  C8  <0> d           1.332  -4.591   3.248  0.00  0.00     0.001 C 
ATOM     20  C7  <0> d           0.087  -4.626   4.137  0.00  0.00     0.000 C 
ATOM     21  C6  <0> d          -1.167  -4.626   3.260  0.00  0.00     0.001 C 
ATOM     22  C5  <0> d          -1.188  -3.360   2.402  0.00  0.00     0.012 C 
ENDBRANCH   5  17
TORSDOF 3
