REMARK  2 active torsions:
REMARK  status: ('A' for Active; 'I' for Inactive)
REMARK    1  A    between atoms: C4_5  and  N2_9 
REMARK       I    between atoms: N2_9  and  C7_10 
REMARK    2  A    between atoms: C7_10  and  C8_12 
ROOT
ATOM      1  C1  <0> d          -0.018   1.503   0.010  0.00  0.00     0.051 C 
ATOM      2  C2  <0> d           0.002  -0.004   0.002  0.00  0.00    -0.026 A 
ATOM      3  C3  <0> d           0.006  -0.713  -1.143  0.00  0.00    -0.012 A 
ATOM      4  S1  <0> d           0.033  -2.401  -0.579  0.00  0.00    -0.075 SA
ATOM      5  C4  <0> d           0.037  -2.157   1.081  0.00  0.00     0.098 A 
ATOM      6  C5  <0> d           0.025  -0.778   1.222  0.00  0.00     0.085 A 
ATOM      7  C6  <0> d           0.028  -0.152   2.510  0.00  0.00     0.103 C 
ATOM      8  N1  <0> d           0.031   0.344   3.532  0.00  0.00    -0.191 NA
ATOM      9  C17 <0> d          -0.008  -0.201  -2.560  0.00  0.00     0.057 C 
ENDROOT
BRANCH   5  10
ATOM     10  N2  <0> d           0.055  -3.116   2.084  0.00  0.00    -0.317 N 
ATOM     11  C7  <0> d           0.072  -4.426   1.764  0.00  0.00     0.267 C 
ATOM     12  O1  <0> d           0.071  -4.765   0.600  0.00  0.00    -0.269 OA
ATOM     13  H4  <0> d           0.056  -2.845   3.015  0.00  0.00     0.169 HD
BRANCH  11  14
ATOM     14  C8  <0> d           0.091  -5.467   2.853  0.00  0.00     0.225 C 
ATOM     15  O3  <0> d           0.863  -4.988   3.957  0.00  0.00    -0.319 OA
ATOM     16  C15 <0> d           2.215  -4.979   3.807  0.00  0.00     0.098 A 
ATOM     17  C10 <0> d           2.829  -5.953   3.023  0.00  0.00     0.068 A 
ATOM     18  C14 <0> d           2.984  -4.020   4.444  0.00  0.00     0.039 A 
ATOM     19  N3  <0> d           2.040  -6.908   2.366  0.00  0.00    -0.322 N 
ATOM     20  C11 <0> d           4.208  -5.971   2.897  0.00  0.00     0.032 A 
ATOM     21  C9  <0> d           0.702  -6.739   2.321  0.00  0.00     0.267 C 
ATOM     22  H5  <0> d           2.452  -7.681   1.950  0.00  0.00     0.169 HD
ATOM     23  O2  <0> d          -0.006  -7.605   1.853  0.00  0.00    -0.269 OA
ATOM     24  C12 <0> d           4.971  -5.014   3.541  0.00  0.00     0.002 A 
ATOM     25  C13 <0> d           4.361  -4.041   4.310  0.00  0.00     0.003 A 
ATOM     26  C16 <0> d          -1.340  -5.746   3.316  0.00  0.00     0.068 C 
ENDBRANCH  11  14
ENDBRANCH   5  10
TORSDOF 2
