REMARK  5 active torsions:
REMARK  status: ('A' for Active; 'I' for Inactive)
REMARK    1  A    between atoms: C2_2  and  C5_9 
REMARK    2  A    between atoms: C7_11  and  S1_17 
REMARK    3  A    between atoms: C10_14  and  O3_15 
REMARK    4  A    between atoms: S1_17  and  N3_20 
REMARK    5  A    between atoms: N3_20  and  C12_21 
ROOT
ATOM      1  C5  <0> d           0.657  -0.517  -1.255  0.00  0.00     0.014 A 
ATOM      2  C6  <0> d           1.777  -1.321  -1.172  0.00  0.00     0.038 A 
ATOM      3  C7  <0> d           2.379  -1.792  -2.324  0.00  0.00     0.082 A 
ATOM      4  C8  <0> d           1.861  -1.459  -3.562  0.00  0.00     0.028 A 
ATOM      5  C9  <0> d           0.741  -0.656  -3.651  0.00  0.00     0.039 A 
ATOM      6  C10 <0> d           0.132  -0.186  -2.495  0.00  0.00     0.077 A 
ENDROOT
BRANCH   3   7
ATOM      7  S1  <0> d           3.808  -2.816  -2.215  0.00  0.00     0.283 S 
ATOM      8  O4  <0> d           4.503  -2.678  -3.447  0.00  0.00    -0.198 OA
ATOM      9  O5  <0> d           4.416  -2.534  -0.962  0.00  0.00    -0.198 OA
BRANCH   7  10
ATOM     10  N3  <0> d           3.282  -4.385  -2.143  0.00  0.00    -0.157 NA
BRANCH  10  11
ATOM     11  C12 <0> d           4.207  -5.429  -2.050  0.00  0.00     0.111 A 
ATOM     12  C17 <0> d           3.766  -6.747  -1.989  0.00  0.00     0.146 A 
ATOM     13  C16 <0> d           4.684  -7.778  -1.903  0.00  0.00     0.048 A 
ATOM     14  F1  <0> d           2.443  -7.020  -2.019  0.00  0.00    -0.204 F 
ATOM     15  C15 <0> d           6.037  -7.500  -1.865  0.00  0.00     0.045 A 
ATOM     16  C14 <0> d           6.479  -6.188  -1.920  0.00  0.00     0.118 A 
ATOM     17  C13 <0> d           5.566  -5.153  -2.012  0.00  0.00     0.077 A 
ATOM     18  F2  <0> d           7.803  -5.920  -1.884  0.00  0.00    -0.206 F 
ENDBRANCH  10  11
ENDBRANCH   7  10
ENDBRANCH   3   7
BRANCH   1  19
ATOM     19  C2  <0> d           0.002  -0.004   0.002  0.00  0.00     0.142 A 
ATOM     20  C1  <0> d          -0.019   1.526   0.010  0.00  0.00     0.055 C 
ATOM     21  N2  <0> d           0.695  -0.520   1.195  0.00  0.00    -0.321 N 
ATOM     22  C4  <0> d          -0.206  -1.247   1.879  0.00  0.00     0.324 A 
ATOM     23  H5  <0> d           1.621  -0.365   1.440  0.00  0.00     0.165 HD
ATOM     24  N1  <0> d          -1.403  -1.272   1.282  0.00  0.00    -0.277 N 
ATOM     25  O2  <0> d           0.040  -1.819   2.924  0.00  0.00    -0.247 OA
ATOM     26  C3  <0> d          -1.403  -0.557   0.139  0.00  0.00     0.258 A 
ATOM     27  H4  <0> d          -2.175  -1.745   1.629  0.00  0.00     0.173 HD
ATOM     28  O1  <0> d          -2.332  -0.392  -0.621  0.00  0.00    -0.270 OA
ENDBRANCH   1  19
BRANCH   6  29
ATOM     29  O3  <0> d          -0.973   0.600  -2.579  0.00  0.00    -0.355 OA
ATOM     30  C11 <0> d          -1.458   0.899  -3.890  0.00  0.00     0.210 C 
ENDBRANCH   6  29
TORSDOF 5
