REMARK  4 active torsions:
REMARK  status: ('A' for Active; 'I' for Inactive)
REMARK    1  A    between atoms: C6_6  and  C11_14 
REMARK    2  A    between atoms: C7_7  and  C10_11 
REMARK    3  A    between atoms: C11_14  and  N2_15 
REMARK    4  A    between atoms: N2_15  and  C12_16 
ROOT
ATOM      1  C1  <0> d          -0.018   1.503   0.010  0.00  0.00     0.048 C 
ATOM      2  C2  <0> d           0.002  -0.004   0.002  0.00  0.00    -0.060 A 
ATOM      3  C3  <0> d           0.005  -0.669  -1.232  0.00  0.00     0.007 A 
ATOM      4  C4  <0> d           0.024  -2.019  -1.312  0.00  0.00     0.014 A 
ATOM      5  C5  <0> d           0.041  -2.806  -0.072  0.00  0.00    -0.003 A 
ATOM      6  C6  <0> d           0.060  -4.137   0.168  0.00  0.00    -0.009 A 
ATOM      7  C7  <0> d           0.070  -4.290   1.673  0.00  0.00     0.215 A 
ATOM      8  N1  <0> d           0.054  -2.928   2.216  0.00  0.00    -0.371 N 
ATOM      9  C8  <0> d           0.037  -2.079   1.218  0.00  0.00     0.040 A 
ATOM     10  C9  <0> d           0.022  -0.658   1.183  0.00  0.00     0.036 A 
ATOM     11  H26 <0> d           0.055  -2.694   3.158  0.00  0.00     0.161 HD
ENDROOT
BRANCH   6  12
ATOM     12  C11 <0> d           0.070  -5.242  -0.856  0.00  0.00     0.270 C 
BRANCH  12  13
ATOM     13  N2  <0> d           0.055  -4.660  -2.205  0.00  0.00    -0.067 N 
ATOM     14  H13 <0> d          -0.777  -4.102  -2.321  0.00  0.00     0.277 HD
ATOM     15  H27 <0> d           0.871  -4.079  -2.330  0.00  0.00     0.277 HD
BRANCH  13  16
ATOM     16  C12 <0> d           0.064  -5.738  -3.203  0.00  0.00     0.190 C 
ATOM     17  C17 <0> d          -0.077  -5.138  -4.603  0.00  0.00     0.016 C 
ATOM     18  C16 <0> d          -0.067  -6.260  -5.643  0.00  0.00    -0.013 C 
ATOM     19  C18 <0> d           1.091  -4.186  -4.870  0.00  0.00     0.012 C 
ATOM     20  C15 <0> d           1.251  -7.031  -5.549  0.00  0.00     0.005 C 
ATOM     21  C19 <0> d          -0.208  -5.660  -7.043  0.00  0.00     0.010 C 
ATOM     22  C14 <0> d           1.393  -7.631  -4.149  0.00  0.00     0.002 C 
ATOM     23  C13 <0> d           1.383  -6.509  -3.109  0.00  0.00     0.033 C 
ENDBRANCH  13  16
ENDBRANCH  12  13
ENDBRANCH   6  12
BRANCH   7  24
ATOM     24  C10 <0> d          -1.152  -5.047   2.125  0.00  0.00     0.201 C 
ATOM     25  O1  <0> d          -1.120  -6.263   2.212  0.00  0.00    -0.646 OA
ATOM     26  O2  <0> d          -2.174  -4.443   2.405  0.00  0.00    -0.646 OA
ENDBRANCH   7  24
TORSDOF 4
