REMARK  5 active torsions:
REMARK  status: ('A' for Active; 'I' for Inactive)
REMARK    1  A    between atoms: C5_5  and  O6_34 
REMARK    2  A    between atoms: C6_6  and  C8_8 
REMARK    3  A    between atoms: N3_16  and  C19_27 
REMARK    4  A    between atoms: C12_17  and  C13_18 
REMARK    5  A    between atoms: C17_22  and  N4_24 
ROOT
ATOM      1  C8  <0> d           0.310  -2.942   2.852  0.00  0.00     0.101 A 
ATOM      2  C9  <0> d           0.313  -4.340   2.789  0.00  0.00     0.034 A 
ATOM      3  C10 <0> d           0.250  -4.776   4.099  0.00  0.00     0.129 A 
ATOM      4  N1  <0> d           0.213  -3.650   4.872  0.00  0.00    -0.272 N 
ATOM      5  H1  <0> d           0.166  -3.641   5.841  0.00  0.00     0.189 HD
ATOM      6  N2  <0> d           0.254  -2.604   4.125  0.00  0.00    -0.173 NA
ATOM      7  C11 <0> d           0.250  -6.243   4.103  0.00  0.00     0.273 A 
ATOM      8  O1  <0> d           0.202  -6.934   5.102  0.00  0.00    -0.266 OA
ATOM      9  N3  <0> d           0.311  -6.715   2.844  0.00  0.00    -0.328 N 
ATOM     10  C12 <0> d           0.355  -5.570   1.925  0.00  0.00     0.159 A 
ENDROOT
BRANCH   1  11
ATOM     11  C6  <0> d           0.366  -2.011   1.698  0.00  0.00     0.029 A 
ATOM     12  C5  <0> d           1.244  -0.923   1.716  0.00  0.00     0.078 A 
ATOM     13  C4  <0> d           1.291  -0.059   0.634  0.00  0.00     0.038 A 
ATOM     14  C3  <0> d           0.472  -0.272  -0.459  0.00  0.00     0.009 A 
ATOM     15  C2  <0> d          -0.398  -1.348  -0.479  0.00  0.00    -0.061 A 
ATOM     16  C1  <0> d          -1.287  -1.573  -1.675  0.00  0.00     0.048 C 
ATOM     17  C7  <0> d          -0.459  -2.213   0.595  0.00  0.00     0.023 A 
BRANCH  12  18
ATOM     18  O6  <0> d           2.049  -0.715   2.790  0.00  0.00    -0.360 OA
ATOM     19  H20 <0> d           1.691  -0.089   3.435  0.00  0.00     0.217 HD
ENDBRANCH  12  18
ENDBRANCH   1  11
BRANCH  10  20
ATOM     20  C13 <0> d           1.631  -5.598   1.123  0.00  0.00    -0.028 A 
ATOM     21  C18 <0> d           1.602  -5.323  -0.231  0.00  0.00     0.045 A 
ATOM     22  C17 <0> d           2.774  -5.344  -0.966  0.00  0.00     0.103 A 
ATOM     23  C16 <0> d           3.972  -5.648  -0.347  0.00  0.00     0.036 A 
ATOM     24  C15 <0> d           4.000  -5.928   1.006  0.00  0.00     0.003 A 
ATOM     25  C14 <0> d           2.830  -5.903   1.742  0.00  0.00     0.010 A 
BRANCH  22  26
ATOM     26  N4  <0> d           2.744  -5.045  -2.415  0.00  0.00    -0.116 N 
ATOM     27  O2  <0> d           3.767  -5.066  -3.058  0.00  0.00    -0.532 OA
ATOM     28  O3  <0> d           1.696  -4.779  -2.955  0.00  0.00    -0.532 OA
ENDBRANCH  22  26
ENDBRANCH  10  20
BRANCH   9  29
ATOM     29  C19 <0> d           0.329  -8.127   2.458  0.00  0.00     0.103 C 
ATOM     30  C22 <0> d          -0.972  -8.810   2.944  0.00  0.00     0.165 C 
ATOM     31  S1  <0> d          -0.421 -10.529   3.292  0.00  0.00     0.146 S 
ATOM     32  C21 <0> d           1.377 -10.352   2.932  0.00  0.00     0.142 C 
ATOM     33  O4  <0> d          -1.001 -11.404   2.333  0.00  0.00    -0.228 OA
ATOM     34  O5  <0> d          -0.592 -10.798   4.676  0.00  0.00    -0.228 OA
ATOM     35  C20 <0> d           1.549  -8.815   3.093  0.00  0.00     0.041 C 
ENDBRANCH   9  29
TORSDOF 5
