REMARK  3 active torsions:
REMARK  status: ('A' for Active; 'I' for Inactive)
REMARK    1  A    between atoms: C5_5  and  C6_7 
REMARK    2  A    between atoms: C6_7  and  N1_9 
REMARK    3  A    between atoms: C13_16  and  N3_18 
ROOT
ATOM      1  N1  <0> d           2.486  -3.158   1.156  0.00  0.00    -0.323 N 
ATOM      2  C8  <0> d           3.296  -2.131   1.529  0.00  0.00     0.104 A 
ATOM      3  N2  <0> d           3.911  -2.426   2.637  0.00  0.00    -0.234 NA
ATOM      4  C9  <0> d           3.538  -3.664   3.051  0.00  0.00     0.087 A 
ATOM      5  C10 <0> d           2.615  -4.150   2.111  0.00  0.00     0.065 A 
ATOM      6  C11 <0> d           2.050  -5.407   2.277  0.00  0.00     0.034 A 
ATOM      7  C12 <0> d           2.393  -6.177   3.367  0.00  0.00     0.031 A 
ATOM      8  C13 <0> d           3.306  -5.701   4.306  0.00  0.00     0.028 A 
ATOM      9  C14 <0> d           3.884  -4.455   4.150  0.00  0.00     0.063 A 
ATOM     10  C15 <0> d           3.456  -0.839   0.769  0.00  0.00     0.091 C 
ENDROOT
BRANCH   1  11
ATOM     11  C6  <0> d           1.632  -3.203  -0.034  0.00  0.00     0.144 C 
ATOM     12  C7  <0> d           0.192  -3.507   0.384  0.00  0.00     0.040 C 
BRANCH  11  13
ATOM     13  C5  <0> d           2.123  -4.282  -0.964  0.00  0.00     0.076 A 
ATOM     14  C4  <0> d           2.543  -4.098  -2.229  0.00  0.00     0.037 A 
ATOM     15  C3  <0> d           2.911  -5.370  -2.727  0.00  0.00     0.035 A 
ATOM     16  C2  <0> d           2.694  -6.254  -1.737  0.00  0.00     0.049 A 
ATOM     17  C1  <0> d           2.944  -7.738  -1.810  0.00  0.00     0.076 C 
ATOM     18  O1  <0> d           2.212  -5.590  -0.673  0.00  0.00    -0.318 OA
ENDBRANCH  11  13
ENDBRANCH   1  11
BRANCH   8  19
ATOM     19  N3  <0> d           3.646  -6.493   5.408  0.00  0.00    -0.399 N 
ATOM     20  H13 <0> d           3.247  -7.370   5.517  0.00  0.00     0.156 HD
ATOM     21  H14 <0> d           4.282  -6.164   6.064  0.00  0.00     0.156 HD
ENDBRANCH   8  19
TORSDOF 3
