REMARK  10 active torsions:
REMARK  status: ('A' for Active; 'I' for Inactive)
REMARK    1  A    between atoms: C5_5  and  S1_9 
REMARK    2  A    between atoms: S1_9  and  N1_12 
REMARK    3  A    between atoms: N1_12  and  C9_13 
REMARK    4  A    between atoms: C9_13  and  C10_14 
REMARK    5  A    between atoms: C10_14  and  C11_15 
REMARK       I    between atoms: C11_15  and  N2_17 
REMARK    6  A    between atoms: N2_17  and  N3_18 
REMARK       I    between atoms: N3_18  and  C12_19 
REMARK       I    between atoms: C12_19  and  N4_21 
REMARK    7  A    between atoms: N4_21  and  C13_22 
REMARK    8  A    between atoms: C13_22  and  C14_23 
REMARK    9  A    between atoms: C14_23  and  C15_24 
REMARK   10  A    between atoms: C15_24  and  O5_25 
ROOT
ATOM      1  C10 <0> d           2.437  -6.335   1.980  0.00  0.00     0.125 C 
ENDROOT
BRANCH   1   2
ATOM      2  C9  <0> d           1.414  -5.245   1.653  0.00  0.00     0.141 C 
BRANCH   2   3
ATOM      3  N1  <0> d           1.158  -5.232   0.211  0.00  0.00    -0.315 N 
ATOM      4  H10 <0> d           1.766  -5.687  -0.394  0.00  0.00     0.172 HD
BRANCH   3   5
ATOM      5  S1  <0> d          -0.168  -4.441  -0.388  0.00  0.00     0.259 S 
ATOM      6  O1  <0> d          -1.289  -4.916   0.345  0.00  0.00    -0.201 OA
ATOM      7  O2  <0> d          -0.089  -4.532  -1.804  0.00  0.00    -0.201 OA
BRANCH   5   8
ATOM      8  C5  <0> d           0.015  -2.737   0.018  0.00  0.00     0.085 A 
ATOM      9  C4  <0> d          -0.894  -2.126   0.862  0.00  0.00     0.026 A 
ATOM     10  C3  <0> d          -0.750  -0.789   1.181  0.00  0.00     0.008 A 
ATOM     11  C2  <0> d           0.303  -0.062   0.657  0.00  0.00    -0.061 A 
ATOM     12  C1  <0> d           0.460   1.395   1.006  0.00  0.00     0.048 C 
ATOM     13  C7  <0> d           1.208  -0.672  -0.191  0.00  0.00     0.015 A 
ATOM     14  C6  <0> d           1.067  -2.010  -0.507  0.00  0.00    -0.038 A 
ATOM     15  C8  <0> d           2.058  -2.676  -1.426  0.00  0.00     0.050 C 
ENDBRANCH   5   8
ENDBRANCH   3   5
ENDBRANCH   2   3
ENDBRANCH   1   2
BRANCH   1  16
ATOM     16  C11 <0> d           2.700  -6.348   3.464  0.00  0.00     0.237 C 
ATOM     17  O3  <0> d           2.125  -5.564   4.189  0.00  0.00    -0.272 OA
ATOM     18  N2  <0> d           3.573  -7.232   3.986  0.00  0.00    -0.266 N 
ATOM     19  H15 <0> d           4.032  -7.860   3.406  0.00  0.00     0.190 HD
BRANCH  18  20
ATOM     20  N3  <0> d           3.817  -7.245   5.365  0.00  0.00    -0.249 N 
ATOM     21  C12 <0> d           4.691  -8.129   5.887  0.00  0.00     0.334 C 
ATOM     22  O4  <0> d           4.903  -8.140   7.084  0.00  0.00    -0.246 OA
ATOM     23  N4  <0> d           5.329  -9.001   5.081  0.00  0.00    -0.342 N 
ATOM     24  H17 <0> d           5.160  -8.992   4.126  0.00  0.00     0.164 HD
ATOM     25  H16 <0> d           3.358  -6.617   5.945  0.00  0.00     0.192 HD
BRANCH  23  26
ATOM     26  C13 <0> d           6.278  -9.962   5.648  0.00  0.00     0.126 C 
BRANCH  26  27
ATOM     27  C14 <0> d           6.858 -10.828   4.528  0.00  0.00     0.046 C 
BRANCH  27  28
ATOM     28  C15 <0> d           7.849 -11.832   5.120  0.00  0.00     0.168 C 
BRANCH  28  29
ATOM     29  O5  <0> d           8.391 -12.640   4.074  0.00  0.00    -0.396 OA
ATOM     30  C16 <0> d           9.333 -13.617   4.522  0.00  0.00     0.201 C 
ENDBRANCH  28  29
ENDBRANCH  27  28
ENDBRANCH  26  27
ENDBRANCH  23  26
ENDBRANCH  18  20
ENDBRANCH   1  16
TORSDOF 10
