REMARK  2 active torsions:
REMARK  status: ('A' for Active; 'I' for Inactive)
REMARK    1  A    between atoms: C5_5  and  C8_8 
REMARK    2  A    between atoms: C5_5  and  C9_11 
REMARK       I    between atoms: C9_11  and  N2_13 
ROOT
ATOM      1  C1  <0> d          -0.110   1.443   0.101  0.00  0.00     0.000 C 
ATOM      2  C2  <0> d           1.319   1.912   0.154  0.00  0.00     0.000 C 
ATOM      3  C3  <0> d           1.863   2.304  -1.233  0.00  0.00     0.002 C 
ATOM      4  C4  <0> d           1.436   1.322  -2.341  0.00  0.00     0.027 C 
ATOM      5  C5  <0> d           1.517  -0.115  -1.900  0.00  0.00     0.093 C 
ATOM      6  C6  <0> d           0.131  -0.546  -1.380  0.00  0.00     0.027 C 
ATOM      7  C7  <0> d          -0.116  -0.095  -0.018  0.00  0.00     0.002 C 
ENDROOT
BRANCH   5   8
ATOM      8  C8  <0> d           1.912  -0.982  -3.068  0.00  0.00     0.089 C 
ATOM      9  S1  <0> d           1.936  -0.370  -4.545  0.00  0.00    -0.065 SA
ATOM     10  N1  <0> d           2.244  -2.272  -2.868  0.00  0.00    -0.392 N 
ATOM     11  H13 <0> d           2.156  -2.664  -1.985  0.00  0.00     0.156 HD
ATOM     12  H14 <0> d           2.572  -2.809  -3.606  0.00  0.00     0.156 HD
ENDBRANCH   5   8
BRANCH   5  13
ATOM     13  C9  <0> d           2.536  -0.249  -0.798  0.00  0.00     0.235 C 
ATOM     14  O1  <0> d           2.193  -0.627   0.302  0.00  0.00    -0.272 OA
ATOM     15  N2  <0> d           3.828   0.051  -1.034  0.00  0.00    -0.349 N 
ATOM     16  C13 <0> d           4.784   0.061   0.074  0.00  0.00     0.140 C 
ATOM     17  C10 <0> d           4.260   0.370  -2.396  0.00  0.00     0.140 C 
ATOM     18  C12 <0> d           5.313   1.478   0.287  0.00  0.00     0.160 C 
ATOM     19  S2  <0> d           6.074   2.060  -1.256  0.00  0.00     0.147 S 
ATOM     20  C11 <0> d           4.729   1.827  -2.456  0.00  0.00     0.160 C 
ATOM     21  O2  <0> d           6.335   3.452  -1.135  0.00  0.00    -0.228 OA
ATOM     22  O3  <0> d           7.140   1.183  -1.596  0.00  0.00    -0.228 OA
ENDBRANCH   5  13
TORSDOF 2
