REMARK  5 active torsions:
REMARK  status: ('A' for Active; 'I' for Inactive)
REMARK    1  A    between atoms: C3_3  and  O5_26 
REMARK    2  A    between atoms: C5_5  and  C9_10 
REMARK    3  A    between atoms: C7_7  and  O1_8 
REMARK       I    between atoms: C9_10  and  N1_12 
REMARK    4  A    between atoms: N1_12  and  C10_13 
REMARK    5  A    between atoms: C13_19  and  N2_20 
ROOT
ATOM      1  C9  <0> d           0.050  -4.268  -0.029  0.00  0.00     0.252 C 
ATOM      2  O2  <0> d           0.051  -4.874  -1.083  0.00  0.00    -0.268 OA
ATOM      3  N1  <0> d           0.068  -4.944   1.137  0.00  0.00    -0.349 N 
ATOM      4  H11 <0> d           0.068  -4.461   1.978  0.00  0.00     0.163 HD
ENDROOT
BRANCH   3   5
ATOM      5  C10 <0> d           0.089  -6.409   1.134  0.00  0.00     0.130 C 
ATOM      6  C13 <0> d           0.777  -6.887   2.403  0.00  0.00     0.225 C 
ATOM      7  C12 <0> d          -0.100  -7.794   3.291  0.00  0.00     0.175 C 
ATOM      8  S1  <0> d          -1.330  -8.417   2.063  0.00  0.00     0.148 S 
ATOM      9  C11 <0> d          -1.361  -6.922   0.981  0.00  0.00     0.167 C 
ATOM     10  O3  <0> d          -2.593  -8.565   2.697  0.00  0.00    -0.228 OA
ATOM     11  O4  <0> d          -0.770  -9.507   1.345  0.00  0.00    -0.228 OA
BRANCH   6  12
ATOM     12  N2  <0> d           1.986  -7.632   2.029  0.00  0.00    -0.064 N 
ATOM     13  C18 <0> d           2.834  -6.790   1.177  0.00  0.00     0.235 C 
ATOM     14  C17 <0> d           4.056  -7.588   0.718  0.00  0.00     0.028 C 
ATOM     15  C16 <0> d           4.853  -8.042   1.944  0.00  0.00     0.003 C 
ATOM     16  C15 <0> d           3.938  -8.858   2.862  0.00  0.00     0.028 C 
ATOM     17  C14 <0> d           2.720  -8.013   3.242  0.00  0.00     0.235 C 
ATOM     18  H29 <0> d           1.724  -8.465   1.522  0.00  0.00     0.280 HD
ENDBRANCH   6  12
ENDBRANCH   3   5
BRANCH   1  19
ATOM     19  C5  <0> d           0.029  -2.789  -0.026  0.00  0.00     0.037 A 
ATOM     20  C4  <0> d           0.011  -2.088  -1.232  0.00  0.00     0.054 A 
ATOM     21  C3  <0> d          -0.009  -0.703  -1.224  0.00  0.00     0.077 A 
ATOM     22  C2  <0> d          -0.011  -0.013  -0.021  0.00  0.00     0.005 A 
ATOM     23  C1  <0> d          -0.033   1.493  -0.018  0.00  0.00     0.054 C 
ATOM     24  C7  <0> d           0.013  -0.707   1.181  0.00  0.00     0.077 A 
ATOM     25  C6  <0> d           0.028  -2.092   1.182  0.00  0.00     0.054 A 
BRANCH  21  26
ATOM     26  O5  <0> d          -0.027  -0.018  -2.398  0.00  0.00    -0.355 OA
ATOM     27  C19 <0> d          -0.024  -0.791  -3.600  0.00  0.00     0.210 C 
ENDBRANCH  21  26
BRANCH  24  28
ATOM     28  O1  <0> d           0.017  -0.027   2.357  0.00  0.00    -0.355 OA
ATOM     29  C8  <0> d           0.043  -0.804   3.556  0.00  0.00     0.210 C 
ENDBRANCH  24  28
ENDBRANCH   1  19
TORSDOF 5
