REMARK  1 active torsions:
REMARK  status: ('A' for Active; 'I' for Inactive)
REMARK    1  A    between atoms: C7_7  and  O3_12 
ROOT
ATOM      1  C1  <0> d          -2.228   3.830  -0.778  0.00  0.00     0.033 A 
ATOM      2  C2  <0> d          -2.081   5.152  -1.158  0.00  0.00     0.013 A 
ATOM      3  C3  <0> d          -0.829   5.740  -1.148  0.00  0.00     0.041 A 
ATOM      4  C4  <0> d           0.276   5.007  -0.758  0.00  0.00     0.047 A 
ATOM      5  C5  <0> d           0.130   3.679  -0.377  0.00  0.00     0.109 A 
ATOM      6  C6  <0> d          -1.126   3.093  -0.388  0.00  0.00     0.027 A 
ATOM      7  C7  <0> d          -1.298   1.655   0.017  0.00  0.00     0.259 C 
ATOM      8  N1  <0> d          -0.011   0.966   0.007  0.00  0.00    -0.306 N 
ATOM      9  C8  <0> d           1.152   1.630  -0.000  0.00  0.00     0.368 C 
ATOM     10  O1  <0> d           2.187   0.994  -0.011  0.00  0.00    -0.238 OA
ATOM     11  O2  <0> d           1.220   2.967   0.004  0.00  0.00    -0.259 OA
ATOM     12 Br1  <0> d           1.987   5.812  -0.744  0.00  0.00    -0.048 Br
ATOM     13 Br2  <0> d          -3.592   6.156  -1.691  0.00  0.00    -0.051 Br
ATOM     14  H4  <0> d           0.002  -0.004   0.002  0.00  0.00     0.167 HD
ENDROOT
BRANCH   7  15
ATOM     15  O3  <0> d          -2.188   1.008  -0.894  0.00  0.00    -0.372 OA
ATOM     16  H5  <0> d          -2.359   0.079  -0.684  0.00  0.00     0.212 HD
ENDBRANCH   7  15
TORSDOF 1
