REMARK  5 active torsions:
REMARK  status: ('A' for Active; 'I' for Inactive)
REMARK    1  A    between atoms: N1_5  and  C5_7 
REMARK    2  A    between atoms: C5_7  and  C6_8 
REMARK       I    between atoms: C6_8  and  N3_10 
REMARK    3  A    between atoms: N3_10  and  C7_11 
REMARK    4  A    between atoms: C7_11  and  C9_13 
REMARK       I    between atoms: C9_13  and  N4_15 
REMARK    5  A    between atoms: N4_15  and  C10_16 
ROOT
ATOM      1  C6  <0> d           1.482  -3.681   1.774  0.00  0.00     0.238 C 
ATOM      2  O1  <0> d           2.393  -3.031   1.307  0.00  0.00    -0.272 OA
ATOM      3  N3  <0> d           1.747  -4.750   2.552  0.00  0.00    -0.347 N 
ATOM      4  H7  <0> d           1.019  -5.270   2.925  0.00  0.00     0.163 HD
ENDROOT
BRANCH   3   5
ATOM      5  C7  <0> d           3.135  -5.126   2.832  0.00  0.00     0.172 C 
ATOM      6  C8  <0> d           3.665  -6.005   1.697  0.00  0.00     0.042 C 
BRANCH   5   7
ATOM      7  C9  <0> d           3.196  -5.890   4.129  0.00  0.00     0.240 C 
ATOM      8  O2  <0> d           2.181  -6.100   4.758  0.00  0.00    -0.271 OA
ATOM      9  N4  <0> d           4.380  -6.340   4.591  0.00  0.00    -0.351 N 
ATOM     10  H11 <0> d           5.192  -6.173   4.088  0.00  0.00     0.163 HD
BRANCH   9  11
ATOM     11  C10 <0> d           4.439  -7.084   5.852  0.00  0.00     0.022 C 
ATOM     12  C11 <0> d           3.581  -8.346   5.741  0.00  0.00     0.037 C 
ATOM     13  C12 <0> d           5.889  -7.476   6.145  0.00  0.00     0.037 C 
ATOM     14  C13 <0> d           3.910  -6.205   6.987  0.00  0.00     0.037 C 
ENDBRANCH   9  11
ENDBRANCH   5   7
ENDBRANCH   3   5
BRANCH   1  15
ATOM     15  C5  <0> d           0.055  -3.295   1.486  0.00  0.00     0.253 C 
BRANCH  15  16
ATOM     16  N1  <0> d           0.034  -2.109   0.625  0.00  0.00    -0.264 N 
ATOM     17  C4  <0> d           0.028  -2.108  -0.725  0.00  0.00     0.051 A 
ATOM     18  C3  <0> d           0.008  -0.818  -1.136  0.00  0.00     0.083 A 
ATOM     19  C14 <0> d           0.041  -3.324  -1.615  0.00  0.00     0.072 C 
ATOM     20  C2  <0> d           0.002  -0.004   0.002  0.00  0.00     0.074 A 
ATOM     21 Cl1  <0> d          -0.008  -0.271  -2.784  0.00  0.00    -0.080 Cl
ATOM     22  C1  <0> d          -0.018   1.503   0.010  0.00  0.00     0.074 C 
ATOM     23  N2  <0> d           0.023  -0.777   1.058  0.00  0.00    -0.175 NA
ENDBRANCH  15  16
ENDBRANCH   1  15
TORSDOF 5
