REMARK  6 active torsions:
REMARK  status: ('A' for Active; 'I' for Inactive)
REMARK    1  A    between atoms: C5_5  and  C8_8 
REMARK    2  A    between atoms: C8_8  and  N1_9 
REMARK    3  A    between atoms: C9_10  and  S1_20 
REMARK    4  A    between atoms: S1_20  and  C17_21 
REMARK    5  A    between atoms: C17_21  and  C18_22 
REMARK    6  A    between atoms: N3_24  and  C19_25 
ROOT
ATOM      1  N1  <0> d           1.447  -4.746  -0.032  0.00  0.00    -0.313 N 
ATOM      2  C9  <0> d           2.122  -4.964  -1.311  0.00  0.00     0.252 C 
ATOM      3  N2  <0> d           3.077  -6.073  -1.201  0.00  0.00    -0.359 N 
ATOM      4  C10 <0> d           3.888  -6.149  -0.074  0.00  0.00     0.046 A 
ATOM      5  C11 <0> d           5.142  -6.735  -0.117  0.00  0.00     0.030 A 
ATOM      6  C12 <0> d           5.907  -6.796   1.032  0.00  0.00     0.002 A 
ATOM      7  C13 <0> d           5.430  -6.277   2.225  0.00  0.00     0.001 A 
ATOM      8  C14 <0> d           4.185  -5.686   2.284  0.00  0.00     0.019 A 
ATOM      9  C15 <0> d           3.405  -5.613   1.132  0.00  0.00     0.058 A 
ATOM     10  C16 <0> d           2.080  -4.965   1.138  0.00  0.00     0.258 C 
ATOM     11  O1  <0> d           1.563  -4.634   2.187  0.00  0.00    -0.267 OA
ATOM     12  H12 <0> d           3.140  -6.741  -1.901  0.00  0.00     0.162 HD
ENDROOT
BRANCH   2  13
ATOM     13  S1  <0> d           3.013  -3.456  -1.785  0.00  0.00    -0.115 SA
BRANCH  13  14
ATOM     14  C17 <0> d           4.186  -3.194  -0.426  0.00  0.00     0.167 C 
BRANCH  14  15
ATOM     15  C18 <0> d           5.000  -1.956  -0.698  0.00  0.00     0.205 C 
ATOM     16  O2  <0> d           5.942  -1.562   0.182  0.00  0.00    -0.174 OA
ATOM     17  N3  <0> d           4.794  -1.266  -1.783  0.00  0.00    -0.037 NA
BRANCH  17  18
ATOM     18  C19 <0> d           5.531  -0.145  -2.028  0.00  0.00     0.746 A 
ATOM     19  N4  <0> d           6.480   0.348  -1.254  0.00  0.00    -0.053 NA
ATOM     20  C20 <0> d           6.983   1.449  -1.807  0.00  0.00     0.275 A 
ATOM     21  N5  <0> d           6.371   1.682  -2.939  0.00  0.00    -0.152 NA
ATOM     22  N6  <0> d           5.425   0.659  -3.113  0.00  0.00    -0.104 N 
ATOM     23  H2  <0> d           4.816   0.551  -3.860  0.00  0.00     0.208 HD
ENDBRANCH  17  18
ENDBRANCH  14  15
ENDBRANCH  13  14
ENDBRANCH   2  13
BRANCH   1  24
ATOM     24  C8  <0> d           0.059  -4.275  -0.021  0.00  0.00     0.167 C 
BRANCH  24  25
ATOM     25  C5  <0> d           0.040  -2.768  -0.013  0.00  0.00    -0.040 A 
ATOM     26  C4  <0> d           0.025  -2.071  -1.206  0.00  0.00     0.009 A 
ATOM     27  C3  <0> d           0.006  -0.689  -1.199  0.00  0.00     0.007 A 
ATOM     28  C2  <0> d           0.002  -0.004   0.002  0.00  0.00    -0.062 A 
ATOM     29  C1  <0> d          -0.018   1.503   0.010  0.00  0.00     0.048 C 
ATOM     30  C7  <0> d           0.023  -0.702   1.195  0.00  0.00     0.007 A 
ATOM     31  C6  <0> d           0.037  -2.084   1.188  0.00  0.00     0.009 A 
ENDBRANCH  24  25
ENDBRANCH   1  24
TORSDOF 6
