REMARK  5 active torsions:
REMARK  status: ('A' for Active; 'I' for Inactive)
REMARK    1  A    between atoms: C7_7  and  N2_24 
REMARK    2  A    between atoms: C8_8  and  O2_23 
REMARK    3  A    between atoms: N1_12  and  C14_15 
REMARK    4  A    between atoms: C14_15  and  C15_16 
REMARK    5  A    between atoms: C16_17  and  C17_18 
ROOT
ATOM      1  C1  <0> d          -0.017   1.377   0.010  0.00  0.00     0.001 A 
ATOM      2  C2  <0> d           1.172   2.083   0.002  0.00  0.00     0.001 A 
ATOM      3  C3  <0> d           2.376   1.405  -0.012  0.00  0.00     0.009 A 
ATOM      4  C4  <0> d           2.397   0.021  -0.019  0.00  0.00    -0.038 A 
ATOM      5  C5  <0> d           1.208  -0.685  -0.013  0.00  0.00    -0.018 A 
ATOM      6  C6  <0> d           0.002  -0.004   0.002  0.00  0.00     0.010 A 
ATOM      7  C7  <0> d           1.494  -2.172  -0.027  0.00  0.00     0.251 C 
ATOM      8  C8  <0> d           2.974  -2.303   0.396  0.00  0.00     0.166 C 
ATOM      9  C9  <0> d           3.558  -0.944  -0.031  0.00  0.00     0.019 C 
ATOM     10  C10 <0> d           4.627  -0.500   0.964  0.00  0.00     0.045 C 
ATOM     11  C11 <0> d           5.806  -1.475   0.910  0.00  0.00     0.236 C 
ATOM     12  N1  <0> d           6.347  -1.514  -0.455  0.00  0.00    -0.068 N 
ATOM     13  C12 <0> d           5.346  -2.005  -1.410  0.00  0.00     0.236 C 
ATOM     14  C13 <0> d           4.151  -1.048  -1.433  0.00  0.00     0.045 C 
ATOM     15  H32 <0> d           6.607  -0.484  -0.741  0.00  0.00     0.280 HD
ENDROOT
BRANCH   8  16
ATOM     16  O2  <0> d           3.084  -2.482   1.810  0.00  0.00    -0.392 OA
ATOM     17  H22 <0> d           4.075  -2.592   2.274  0.00  0.00     0.210 HD
ENDBRANCH   8  16
BRANCH   7  18
ATOM     18  N2  <0> d           1.300  -2.716  -1.378  0.00  0.00    -0.060 N 
ATOM     19  C24 <0> d          -0.122  -2.647  -1.778  0.00  0.00     0.236 C 
ATOM     20  C23 <0> d          -0.405  -3.882  -2.653  0.00  0.00     0.029 C 
ATOM     21  C22 <0> d           0.928  -4.662  -2.694  0.00  0.00     0.029 C 
ATOM     22  C21 <0> d           1.666  -4.154  -1.430  0.00  0.00     0.236 C 
ATOM     23  H31 <0> d           1.935  -2.108  -2.039  0.00  0.00     0.280 HD
ENDBRANCH   7  18
BRANCH  12  24
ATOM     24  C14 <0> d           7.572  -2.323  -0.513  0.00  0.00     0.262 C 
BRANCH  24  25
ATOM     25  C15 <0> d           8.656  -1.653   0.291  0.00  0.00     0.003 C 
ATOM     26  C16 <0> d           9.274  -2.320   1.261  0.00  0.00     0.035 C 
BRANCH  26  27
ATOM     27  C17 <0> d          10.332  -1.666   2.046  0.00  0.00     0.074 A 
ATOM     28  O1  <0> d          10.773  -0.403   1.881  0.00  0.00    -0.323 OA
ATOM     29  C20 <0> d          11.741  -0.149   2.776  0.00  0.00     0.142 A 
ATOM     30  C19 <0> d          11.941  -1.253   3.523  0.00  0.00     0.027 A 
ATOM     31  C18 <0> d          11.041  -2.232   3.062  0.00  0.00     0.039 A 
ENDBRANCH  26  27
ENDBRANCH  24  25
ENDBRANCH  12  24
TORSDOF 5
