REMARK  4 active torsions:
REMARK  status: ('A' for Active; 'I' for Inactive)
REMARK    1  A    between atoms: C3_3  and  C9_14 
REMARK    2  A    between atoms: N2_6  and  C5_7 
REMARK       I    between atoms: C9_14  and  N3_16 
REMARK    3  A    between atoms: N3_16  and  C10_17 
REMARK    4  A    between atoms: C13_20  and  O4_24 
ROOT
ATOM      1  C1  <0> d          -0.022   1.502   0.011  0.00  0.00     0.071 C 
ATOM      2  C2  <0> d           0.008  -0.004   0.002  0.00  0.00     0.044 A 
ATOM      3  C3  <0> d           0.015  -0.815  -1.115  0.00  0.00     0.075 A 
ATOM      4  C4  <0> d           0.045  -2.152  -0.660  0.00  0.00     0.158 A 
ATOM      5  N1  <0> d           0.056  -2.135   0.644  0.00  0.00    -0.183 NA
ATOM      6  N2  <0> d           0.038  -0.805   1.080  0.00  0.00    -0.268 N 
ENDROOT
BRANCH   3   7
ATOM      7  C9  <0> d          -0.006  -0.369  -2.520  0.00  0.00     0.259 C 
ATOM      8  O3  <0> d          -0.032   0.818  -2.781  0.00  0.00    -0.267 OA
ATOM      9  N3  <0> d           0.005  -1.278  -3.516  0.00  0.00    -0.323 N 
ATOM     10  H12 <0> d           0.093  -2.222  -3.310  0.00  0.00     0.169 HD
BRANCH   9  11
ATOM     11  C10 <0> d          -0.113  -0.859  -4.847  0.00  0.00     0.036 A 
ATOM     12  C15 <0> d           0.461   0.339  -5.251  0.00  0.00     0.056 A 
ATOM     13  C14 <0> d           0.349   0.749  -6.566  0.00  0.00     0.069 A 
ATOM     14  C13 <0> d          -0.345  -0.032  -7.480  0.00  0.00     0.090 A 
ATOM     15 Cl1  <0> d           1.072   2.243  -7.074  0.00  0.00    -0.081 Cl
ATOM     16  C12 <0> d          -0.923  -1.227  -7.075  0.00  0.00     0.041 A 
ATOM     17  C11 <0> d          -0.807  -1.640  -5.762  0.00  0.00     0.032 A 
BRANCH  14  18
ATOM     18  O4  <0> d          -0.460   0.373  -8.773  0.00  0.00    -0.354 OA
ATOM     19  C16 <0> d          -1.188  -0.479  -9.659  0.00  0.00     0.210 C 
ENDBRANCH  14  18
ENDBRANCH   9  11
ENDBRANCH   3   7
BRANCH   6  20
ATOM     20  C5  <0> d           0.048  -0.361   2.476  0.00  0.00     0.125 C 
ATOM     21  C8  <0> d           1.343  -0.856   3.163  0.00  0.00     0.167 C 
ATOM     22  S1  <0> d           0.804  -1.118   4.901  0.00  0.00     0.146 S 
ATOM     23  C7  <0> d          -0.985  -0.715   4.730  0.00  0.00     0.142 C 
ATOM     24  O1  <0> d           1.421  -0.142   5.730  0.00  0.00    -0.228 OA
ATOM     25  O2  <0> d           0.939  -2.495   5.224  0.00  0.00    -0.228 OA
ATOM     26  C6  <0> d          -1.181  -0.933   3.202  0.00  0.00     0.043 C 
ENDBRANCH   6  20
TORSDOF 4
