REMARK  3 active torsions:
REMARK  status: ('A' for Active; 'I' for Inactive)
REMARK    1  A    between atoms: C6_6  and  C7_7 
REMARK    2  A    between atoms: C7_7  and  C8_8 
REMARK    3  A    between atoms: C7_7  and  O2_14 
ROOT
ATOM      1  C1  <0> d          -0.017   1.379   0.010  0.00  0.00     0.021 A 
ATOM      2  C2  <0> d           1.167   2.083   0.002  0.00  0.00    -0.022 A 
ATOM      3  C3  <0> d           2.388   1.421  -0.013  0.00  0.00     0.043 A 
ATOM      4  C4  <0> d           2.400   0.027  -0.021  0.00  0.00     0.054 A 
ATOM      5  C5  <0> d           1.212  -0.676  -0.015  0.00  0.00     0.045 A 
ATOM      6  C6  <0> d           0.002  -0.004   0.002  0.00  0.00    -0.007 A 
ATOM      7 Cl1  <0> d           1.236  -2.412  -0.026  0.00  0.00    -0.084 Cl
ATOM      8  N1  <0> d           3.436   2.342  -0.018  0.00  0.00    -0.326 N 
ATOM      9  C13 <0> d           2.998   3.612  -0.006  0.00  0.00     0.226 A 
ATOM     10  O3  <0> d           3.684   4.611  -0.007  0.00  0.00    -0.273 OA
ATOM     11  C14 <0> d           1.485   3.560   0.007  0.00  0.00     0.144 A 
ATOM     12  H14 <0> d           4.374   2.094  -0.028  0.00  0.00     0.169 HD
ENDROOT
BRANCH   6  13
ATOM     13  C7  <0> d          -1.291  -0.777   0.011  0.00  0.00     0.157 C 
BRANCH  13  14
ATOM     14  C8  <0> d          -1.651  -1.155   1.449  0.00  0.00     0.023 C 
ATOM     15  C12 <0> d          -2.965  -1.941   1.460  0.00  0.00     0.034 C 
ATOM     16  C11 <0> d          -3.276  -2.381   2.893  0.00  0.00     0.168 C 
ATOM     17  O1  <0> d          -2.191  -3.164   3.394  0.00  0.00    -0.391 OA
ATOM     18  C10 <0> d          -0.945  -2.466   3.452  0.00  0.00     0.168 C 
ATOM     19  C9  <0> d          -0.541  -2.029   2.042  0.00  0.00     0.034 C 
ENDBRANCH  13  14
BRANCH  13  20
ATOM     20  O2  <0> d          -2.332   0.029  -0.544  0.00  0.00    -0.390 OA
ATOM     21  H13 <0> d          -2.490   0.854  -0.064  0.00  0.00     0.210 HD
ENDBRANCH  13  20
ENDBRANCH   6  13
TORSDOF 3
