REMARK  4 active torsions:
REMARK  status: ('A' for Active; 'I' for Inactive)
REMARK    1  A    between atoms: C6_6  and  S1_8 
REMARK    2  A    between atoms: S1_8  and  C8_11 
REMARK    3  A    between atoms: C8_11  and  C9_12 
REMARK    4  A    between atoms: C12_15  and  N1_19 
ROOT
ATOM      1  C8  <0> d           4.707   0.142   2.505  0.00  0.00     0.180 C 
ENDROOT
BRANCH   1   2
ATOM      2  S1  <0> d           3.055  -0.582   2.700  0.00  0.00     0.152 S 
ATOM      3  O1  <0> d           2.447  -0.012   3.851  0.00  0.00    -0.227 OA
ATOM      4  O2  <0> d           3.170  -1.996   2.608  0.00  0.00    -0.227 OA
BRANCH   2   5
ATOM      5  C6  <0> d           2.178   0.019   1.231  0.00  0.00     0.109 C 
ATOM      6  C5  <0> d           2.894  -0.475  -0.028  0.00  0.00     0.020 C 
ATOM      7  C4  <0> d           2.154   0.032  -1.268  0.00  0.00     0.002 C 
ATOM      8  C3  <0> d           0.718  -0.497  -1.257  0.00  0.00     0.004 C 
ATOM      9  C2  <0> d           0.002  -0.004   0.002  0.00  0.00    -0.017 C 
ATOM     10  C1  <0> d          -0.019   1.526   0.010  0.00  0.00     0.010 C 
ATOM     11  C7  <0> d           0.742  -0.511   1.242  0.00  0.00     0.024 C 
ENDBRANCH   2   5
ENDBRANCH   1   2
BRANCH   1  12
ATOM     12  C9  <0> d           5.575  -0.269   3.666  0.00  0.00    -0.027 A 
ATOM     13  C14 <0> d           6.327  -1.428   3.589  0.00  0.00     0.020 A 
ATOM     14  C13 <0> d           7.129  -1.804   4.650  0.00  0.00     0.048 A 
ATOM     15 Br1  <0> d           6.262  -2.495   2.029  0.00  0.00    -0.050 Br
ATOM     16  C12 <0> d           7.172  -1.022   5.797  0.00  0.00     0.026 A 
ATOM     17  C11 <0> d           6.411   0.138   5.872  0.00  0.00     0.029 A 
ATOM     18  C10 <0> d           5.615   0.511   4.807  0.00  0.00     0.012 A 
BRANCH  16  19
ATOM     19  N1  <0> d           7.978  -1.402   6.873  0.00  0.00    -0.399 N 
ATOM     20  H19 <0> d           8.007  -0.855   7.674  0.00  0.00     0.156 HD
ATOM     21  H20 <0> d           8.508  -2.212   6.820  0.00  0.00     0.156 HD
ENDBRANCH  16  19
ENDBRANCH   1  12
TORSDOF 4
