REMARK  6 active torsions:
REMARK  status: ('A' for Active; 'I' for Inactive)
REMARK    1  A    between atoms: C2_2  and  C3_3 
REMARK    2  A    between atoms: C2_2  and  C11_17 
REMARK    3  A    between atoms: C2_2  and  N1_20 
REMARK    4  A    between atoms: C3_3  and  C4_4 
REMARK    5  A    between atoms: C4_4  and  O1_5 
REMARK    6  A    between atoms: O1_5  and  C5_6 
ROOT
ATOM      1  O1  <0> d           2.869  -0.455   2.388  0.00  0.00    -0.345 OA
ENDROOT
BRANCH   1   2
ATOM      2  C4  <0> d           2.178   0.019   1.231  0.00  0.00     0.179 C 
BRANCH   2   3
ATOM      3  C3  <0> d           0.742  -0.511   1.242  0.00  0.00     0.076 C 
BRANCH   3   4
ATOM      4  C2  <0> d           0.002  -0.004   0.002  0.00  0.00     0.208 C 
ATOM      5  C1  <0> d          -0.019   1.526   0.010  0.00  0.00     0.058 C 
BRANCH   4   6
ATOM      6  C11 <0> d          -1.412  -0.526   0.013  0.00  0.00     0.210 C 
ATOM      7  O2  <0> d          -1.810  -1.227  -0.902  0.00  0.00    -0.646 OA
ATOM      8  O3  <0> d          -2.158  -0.246   0.936  0.00  0.00    -0.646 OA
ENDBRANCH   4   6
BRANCH   4   9
ATOM      9  N1  <0> d           0.690  -0.478  -1.207  0.00  0.00    -0.060 N 
ATOM     10  H8  <0> d           1.636  -0.129  -1.214  0.00  0.00     0.275 HD
ATOM     11  H9  <0> d           0.703  -1.487  -1.212  0.00  0.00     0.275 HD
ATOM     12  H10 <0> d           0.202  -0.144  -2.024  0.00  0.00     0.275 HD
ENDBRANCH   4   9
ENDBRANCH   3   4
ENDBRANCH   2   3
ENDBRANCH   1   2
BRANCH   1  13
ATOM     13  C5  <0> d           4.166  -0.072   2.532  0.00  0.00     0.152 A 
ATOM     14  C10 <0> d           4.474   1.096   3.216  0.00  0.00     0.194 A 
ATOM     15  C9  <0> d           5.796   1.482   3.366  0.00  0.00     0.199 A 
ATOM     16  F1  <0> d           3.486   1.854   3.738  0.00  0.00    -0.200 F 
ATOM     17  C8  <0> d           6.811   0.707   2.825  0.00  0.00     0.199 A 
ATOM     18  F2  <0> d           6.097   2.616   4.036  0.00  0.00    -0.199 F 
ATOM     19  C7  <0> d           6.504  -0.457   2.138  0.00  0.00     0.199 A 
ATOM     20  F3  <0> d           8.099   1.087   2.968  0.00  0.00    -0.199 F 
ATOM     21  C6  <0> d           5.183  -0.847   1.992  0.00  0.00     0.194 A 
ATOM     22  F4  <0> d           7.493  -1.211   1.612  0.00  0.00    -0.199 F 
ATOM     23  F5  <0> d           4.884  -1.982   1.322  0.00  0.00    -0.200 F 
ENDBRANCH   1  13
TORSDOF 6
