REMARK  6 active torsions:
REMARK  status: ('A' for Active; 'I' for Inactive)
REMARK    1  A    between atoms: C5_5  and  C7_8 
REMARK    2  A    between atoms: C7_8  and  C8_9 
REMARK       I    between atoms: C8_9  and  N2_11 
REMARK    3  A    between atoms: N2_11  and  C9_12 
REMARK    4  A    between atoms: C9_12  and  C10_13 
REMARK    5  A    between atoms: C10_13  and  C11_14 
REMARK    6  A    between atoms: C11_14  and  N3_15 
ROOT
ATOM      1  C10 <0> d           3.159  -8.032   0.206  0.00  0.00     0.040 C 
ENDROOT
BRANCH   1   2
ATOM      2  C9  <0> d           3.138  -6.503   0.149  0.00  0.00     0.124 C 
BRANCH   2   3
ATOM      3  N2  <0> d           1.751  -6.033   0.138  0.00  0.00    -0.361 N 
ATOM      4  C8  <0> d           1.487  -4.713   0.089  0.00  0.00     0.221 C 
ATOM      5  O1  <0> d           2.398  -3.913   0.055  0.00  0.00    -0.273 OA
ATOM      6  H9  <0> d           1.022  -6.673   0.165  0.00  0.00     0.162 HD
BRANCH   4   7
ATOM      7  C7  <0> d           0.059  -4.229   0.077  0.00  0.00     0.142 C 
BRANCH   7   8
ATOM      8  C5  <0> d           0.039  -2.724   0.021  0.00  0.00    -0.032 A 
ATOM      9  C4  <0> d           0.024  -2.067  -1.200  0.00  0.00     0.011 A 
ATOM     10  C3  <0> d           0.005  -0.681  -1.203  0.00  0.00     0.027 A 
ATOM     11  C2  <0> d           0.002  -0.004   0.002  0.00  0.00     0.030 A 
ATOM     12  C1  <0> d          -0.018   1.503   0.010  0.00  0.00     0.070 C 
ATOM     13  N1  <0> d           0.022  -0.662   1.145  0.00  0.00    -0.265 NA
ATOM     14  C6  <0> d           0.035  -1.980   1.186  0.00  0.00     0.124 A 
ENDBRANCH   7   8
ENDBRANCH   4   7
ENDBRANCH   2   3
ENDBRANCH   1   2
BRANCH   1  15
ATOM     15  C11 <0> d           4.608  -8.522   0.218  0.00  0.00     0.138 C 
BRANCH  15  16
ATOM     16  N3  <0> d           4.628  -9.986   0.273  0.00  0.00    -0.268 N 
ATOM     17  C18 <0> d           4.633 -10.780  -0.806  0.00  0.00     0.326 A 
ATOM     18  N4  <0> d           4.655 -12.088  -0.481  0.00  0.00    -0.324 N 
ATOM     19  O3  <0> d           4.621 -10.367  -1.949  0.00  0.00    -0.247 OA
ATOM     20  C13 <0> d           4.656 -12.146   0.982  0.00  0.00     0.116 A 
ATOM     21  H24 <0> d           4.665 -12.840  -1.093  0.00  0.00     0.165 HD
ATOM     22  C12 <0> d           4.638 -10.703   1.417  0.00  0.00     0.256 A 
ATOM     23  C17 <0> d           5.897 -12.870   1.512  0.00  0.00     0.041 C 
ATOM     24  C14 <0> d           3.426 -12.897   1.508  0.00  0.00     0.041 C 
ATOM     25  O2  <0> d           4.632 -10.277   2.552  0.00  0.00    -0.270 OA
ATOM     26  C16 <0> d           5.378 -14.052   2.360  0.00  0.00     0.003 C 
ATOM     27  C15 <0> d           3.956 -14.323   1.808  0.00  0.00     0.003 C 
ENDBRANCH  15  16
ENDBRANCH   1  15
TORSDOF 6
