REMARK  2 active torsions:
REMARK  status: ('A' for Active; 'I' for Inactive)
REMARK    1  A    between atoms: C10_11  and  N1_14 
REMARK    2  A    between atoms: C11_12  and  O2_13 
ROOT
ATOM      1  C1  <0> d          -0.468   0.723  -1.554  0.00  0.00     0.049 C 
ATOM      2  C2  <0> d          -0.431  -0.755  -1.265  0.00  0.00    -0.053 A 
ATOM      3  C3  <0> d          -0.663  -1.665  -2.280  0.00  0.00     0.008 A 
ATOM      4  C4  <0> d          -0.627  -3.019  -2.015  0.00  0.00     0.013 A 
ATOM      5  C5  <0> d          -0.361  -3.474  -0.734  0.00  0.00     0.006 A 
ATOM      6  C6  <0> d          -0.131  -2.567   0.285  0.00  0.00     0.084 A 
ATOM      7  C7  <0> d          -0.160  -1.202   0.012  0.00  0.00    -0.022 A 
ATOM      8  C8  <0> d           0.101  -0.210   1.116  0.00  0.00     0.052 C 
ATOM      9  O1  <0> d           0.123  -2.968   1.557  0.00  0.00    -0.348 OA
ATOM     10  C9  <0> d           0.519  -4.325   1.763  0.00  0.00     0.212 C 
ATOM     11  C10 <0> d          -0.463  -5.235   1.015  0.00  0.00     0.245 C 
ATOM     12  C11 <0> d          -0.326  -4.961  -0.485  0.00  0.00     0.187 C 
ENDROOT
BRANCH  11  13
ATOM     13  N1  <0> d          -0.145  -6.642   1.293  0.00  0.00    -0.058 N 
ATOM     14  C16 <0> d          -0.408  -6.931   2.708  0.00  0.00     0.184 C 
ATOM     15  C15 <0> d          -0.155  -8.415   2.985  0.00  0.00     0.033 C 
ATOM     16  C17 <0> d          -1.863  -6.593   3.035  0.00  0.00     0.040 C 
ATOM     17  C14 <0> d           1.303  -8.749   2.656  0.00  0.00     0.004 C 
ATOM     18  C13 <0> d           1.586  -8.374   1.198  0.00  0.00     0.028 C 
ATOM     19  C12 <0> d           1.269  -6.891   0.988  0.00  0.00     0.236 C 
ATOM     20  H26 <0> d          -0.721  -7.237   0.716  0.00  0.00     0.281 HD
ENDBRANCH  11  13
BRANCH  12  21
ATOM     21  O2  <0> d          -1.405  -5.586  -1.183  0.00  0.00    -0.389 OA
ATOM     22  H14 <0> d          -1.333  -5.533  -2.146  0.00  0.00     0.210 HD
ENDBRANCH  12  21
TORSDOF 2
