REMARK  6 active torsions:
REMARK  status: ('A' for Active; 'I' for Inactive)
REMARK    1  A    between atoms: O1_2  and  C2_3 
REMARK    2  A    between atoms: C8_9  and  O4_26 
REMARK    3  A    between atoms: C15_17  and  C16_18 
REMARK    4  A    between atoms: C15_17  and  N1_29 
REMARK    5  A    between atoms: C16_18  and  C17_19 
REMARK    6  A    between atoms: C16_18  and  O3_25 
ROOT
ATOM      1  C2  <0> d          10.611   2.536  -1.920  0.00  0.00     0.069 A 
ATOM      2  C3  <0> d           9.636   1.941  -2.707  0.00  0.00     0.039 A 
ATOM      3  C4  <0> d           8.479   2.630  -3.006  0.00  0.00     0.040 A 
ATOM      4  C5  <0> d           8.285   3.920  -2.521  0.00  0.00     0.079 A 
ATOM      5  C6  <0> d           9.257   4.512  -1.734  0.00  0.00     0.006 A 
ATOM      6  C7  <0> d          10.419   3.820  -1.436  0.00  0.00     0.049 A 
ATOM      7  C8  <0> d           9.081   5.903  -1.181  0.00  0.00     0.157 C 
ATOM      8  C9  <0> d           7.989   6.635  -1.966  0.00  0.00     0.075 C 
ATOM      9  C10 <0> d           6.771   5.710  -2.071  0.00  0.00     0.073 C 
ATOM     10  O2  <0> d           7.133   4.566  -2.842  0.00  0.00    -0.339 OA
ATOM     11  C11 <0> d           5.622   6.455  -2.753  0.00  0.00     0.066 C 
ATOM     12  C12 <0> d           4.388   5.551  -2.797  0.00  0.00     0.238 C 
ATOM     13  C13 <0> d           5.080   4.409  -0.775  0.00  0.00     0.238 C 
ATOM     14  C14 <0> d           6.337   5.277  -0.670  0.00  0.00     0.066 C 
ATOM     15  N1  <0> d           4.005   5.197  -1.414  0.00  0.00    -0.068 N 
ATOM     16  H28 <0> d           3.860   6.060  -0.877  0.00  0.00     0.280 HD
ENDROOT
BRANCH   7  17
ATOM     17  O4  <0> d          10.312   6.621  -1.298  0.00  0.00    -0.391 OA
ATOM     18  H27 <0> d          11.050   6.215  -0.823  0.00  0.00     0.210 HD
ENDBRANCH   7  17
BRANCH  15  19
ATOM     19  C15 <0> d           2.748   4.420  -1.422  0.00  0.00     0.271 C 
BRANCH  19  20
ATOM     20  C16 <0> d           2.436   3.961   0.004  0.00  0.00     0.177 C 
BRANCH  20  21
ATOM     21  C17 <0> d           1.127   3.216   0.018  0.00  0.00    -0.028 A 
ATOM     22  C22 <0> d          -0.066   3.914   0.019  0.00  0.00     0.010 A 
ATOM     23  C21 <0> d          -1.268   3.230   0.031  0.00  0.00     0.001 A 
ATOM     24  C20 <0> d          -1.276   1.848   0.036  0.00  0.00     0.000 A 
ATOM     25  C19 <0> d          -0.083   1.149   0.041  0.00  0.00     0.001 A 
ATOM     26  C18 <0> d           1.118   1.833   0.029  0.00  0.00     0.010 A 
ENDBRANCH  20  21
BRANCH  20  27
ATOM     27  O3  <0> d           2.345   5.101   0.862  0.00  0.00    -0.389 OA
ATOM     28  H26 <0> d           1.655   5.730   0.608  0.00  0.00     0.210 HD
ENDBRANCH  20  27
ENDBRANCH  19  20
ENDBRANCH  15  19
BRANCH   1  29
ATOM     29  O1  <0> d          11.753   1.859  -1.623  0.00  0.00    -0.356 OA
ATOM     30  C1  <0> d          11.882   0.539  -2.156  0.00  0.00     0.210 C 
ENDBRANCH   1  29
TORSDOF 6
