REMARK  7 active torsions:
REMARK  status: ('A' for Active; 'I' for Inactive)
REMARK    1  A    between atoms: C2_2  and  O1_3 
REMARK    2  A    between atoms: O1_3  and  C3_4 
REMARK    3  A    between atoms: C3_4  and  C4_5 
REMARK       I    between atoms: C4_5  and  N1_7 
REMARK    4  A    between atoms: N1_7  and  N2_8 
REMARK       I    between atoms: N2_8  and  C5_9 
REMARK    5  A    between atoms: C5_9  and  C6_11 
REMARK    6  A    between atoms: C6_11  and  C7_12 
REMARK    7  A    between atoms: C7_12  and  N3_13 
ROOT
ATOM      1  N3  <0> d           4.151  -7.531   6.818  0.00  0.00    -0.307 N 
ATOM      2  C8  <0> d           5.500  -7.679   6.770  0.00  0.00     0.213 A 
ATOM      3  N4  <0> d           6.182  -8.012   7.833  0.00  0.00    -0.235 NA
ATOM      4  C9  <0> d           5.574  -8.217   8.998  0.00  0.00     0.115 A 
ATOM      5  C10 <0> d           4.184  -8.088   9.146  0.00  0.00     0.075 A 
ATOM      6  C11 <0> d           3.466  -7.717   7.962  0.00  0.00     0.262 A 
ATOM      7  O4  <0> d           2.256  -7.576   7.990  0.00  0.00    -0.267 OA
ATOM      8  C12 <0> d           3.656  -8.345  10.485  0.00  0.00    -0.026 A 
ATOM      9  C13 <0> d           4.548  -8.678  11.442  0.00  0.00    -0.008 A 
ATOM     10  S1  <0> d           6.121  -8.669  10.625  0.00  0.00    -0.073 SA
ATOM     11  C14 <0> d           4.263  -8.987  12.880  0.00  0.00     0.047 C 
ATOM     12  C15 <0> d           2.841  -8.511  13.206  0.00  0.00     0.005 C 
ATOM     13  C16 <0> d           1.894  -9.004  12.108  0.00  0.00     0.005 C 
ATOM     14  C17 <0> d           2.167  -8.248  10.807  0.00  0.00     0.041 C 
ENDROOT
BRANCH   1  15
ATOM     15  C7  <0> d           3.426  -7.157   5.601  0.00  0.00     0.142 C 
BRANCH  15  16
ATOM     16  C6  <0> d           3.344  -5.632   5.505  0.00  0.00     0.125 C 
BRANCH  16  17
ATOM     17  C5  <0> d           2.599  -5.247   4.253  0.00  0.00     0.237 C 
ATOM     18  N2  <0> d           2.404  -3.946   3.959  0.00  0.00    -0.267 N 
ATOM     19  H9  <0> d           2.742  -3.258   4.553  0.00  0.00     0.190 HD
ATOM     20  O3  <0> d           2.175  -6.107   3.511  0.00  0.00    -0.272 OA
BRANCH  18  21
ATOM     21  N1  <0> d           1.711  -3.588   2.795  0.00  0.00    -0.266 N 
ATOM     22  C4  <0> d           1.515  -2.287   2.501  0.00  0.00     0.259 C 
ATOM     23  O2  <0> d           1.939  -1.427   3.244  0.00  0.00    -0.269 OA
ATOM     24  H8  <0> d           1.372  -4.276   2.201  0.00  0.00     0.190 HD
BRANCH  22  25
ATOM     25  C3  <0> d           0.770  -1.902   1.249  0.00  0.00     0.272 C 
BRANCH  25  26
ATOM     26  O1  <0> d           0.693  -0.477   1.160  0.00  0.00    -0.382 OA
BRANCH  26  27
ATOM     27  C2  <0> d           0.002  -0.004   0.002  0.00  0.00     0.163 C 
ATOM     28  C1  <0> d          -0.019   1.526   0.010  0.00  0.00     0.033 C 
ENDBRANCH  26  27
ENDBRANCH  25  26
ENDBRANCH  22  25
ENDBRANCH  18  21
ENDBRANCH  16  17
ENDBRANCH  15  16
ENDBRANCH   1  15
TORSDOF 7
