REMARK  5 active torsions:
REMARK  status: ('A' for Active; 'I' for Inactive)
REMARK    1  A    between atoms: C4_4  and  C18_22 
REMARK    2  A    between atoms: C5_5  and  C7_7 
REMARK    3  A    between atoms: C7_7  and  N1_8 
REMARK       I    between atoms: N1_8  and  C8_9 
REMARK    4  A    between atoms: C8_9  and  C9_11 
REMARK    5  A    between atoms: C18_22  and  N3_23 
ROOT
ATOM      1  N1  <0> d           0.456  -0.458   1.322  0.00  0.00    -0.353 N 
ATOM      2  C8  <0> d           0.548  -1.781   1.561  0.00  0.00     0.253 C 
ATOM      3  O1  <0> d           0.287  -2.577   0.680  0.00  0.00    -0.268 OA
ATOM      4  H7  <0> d           0.692   0.263   2.119  0.00  0.00     0.163 HD
ENDROOT
BRANCH   1   5
ATOM      5  C7  <0> d           0.042   0.021   0.001  0.00  0.00     0.162 C 
BRANCH   5   6
ATOM      6  C5  <0> d           0.021   1.528  -0.003  0.00  0.00    -0.033 A 
ATOM      7  C4  <0> d           1.207   2.236  -0.054  0.00  0.00    -0.032 A 
ATOM      8  C3  <0> d           1.188   3.618  -0.059  0.00  0.00     0.009 A 
ATOM      9  C2  <0> d          -0.018   4.293  -0.012  0.00  0.00     0.001 A 
ATOM     10  C1  <0> d          -1.205   3.585   0.039  0.00  0.00     0.001 A 
ATOM     11  C6  <0> d          -1.185   2.203   0.038  0.00  0.00     0.009 A 
BRANCH   7  12
ATOM     12  C18 <0> d           2.522   1.501  -0.106  0.00  0.00     0.165 C 
BRANCH  12  13
ATOM     13  N3  <0> d           3.623   2.464  -0.033  0.00  0.00    -0.348 N 
ATOM     14  C22 <0> d           4.262   2.969  -1.102  0.00  0.00     0.220 C 
ATOM     15  C21 <0> d           5.332   3.941  -0.658  0.00  0.00     0.104 C 
ATOM     16  O3  <0> d           4.015   2.687  -2.256  0.00  0.00    -0.273 OA
ATOM     17  C20 <0> d           4.974   4.256   0.813  0.00  0.00     0.029 C 
ATOM     18  C19 <0> d           4.174   2.998   1.219  0.00  0.00     0.126 C 
ENDBRANCH  12  13
ENDBRANCH   7  12
ENDBRANCH   5   6
ENDBRANCH   1   5
BRANCH   2  19
ATOM     19  C9  <0> d           0.965  -2.264   2.895  0.00  0.00     0.048 A 
ATOM     20  C13 <0> d           1.195  -3.644   3.135  0.00  0.00     0.006 A 
ATOM     21  C12 <0> d           1.594  -4.059   4.429  0.00  0.00     0.045 A 
ATOM     22  C14 <0> d           1.035  -4.595   2.119  0.00  0.00     0.015 A 
ATOM     23  N2  <0> d           1.750  -3.158   5.403  0.00  0.00    -0.334 N 
ATOM     24  C17 <0> d           1.823  -5.427   4.667  0.00  0.00     0.030 A 
ATOM     25  C11 <0> d           1.542  -1.877   5.200  0.00  0.00     0.180 A 
ATOM     26  H21 <0> d           2.061  -3.514   6.396  0.00  0.00     0.168 HD
ATOM     27  C10 <0> d           1.151  -1.383   3.949  0.00  0.00     0.077 A 
ATOM     28  O2  <0> d           1.716  -1.008   6.227  0.00  0.00    -0.172 OA
ATOM     29  C16 <0> d           1.657  -6.325   3.657  0.00  0.00     0.002 A 
ATOM     30  C15 <0> d           1.265  -5.912   2.386  0.00  0.00     0.001 A 
ENDBRANCH   2  19
TORSDOF 5
