REMARK  8 active torsions:
REMARK  status: ('A' for Active; 'I' for Inactive)
REMARK    1  A    between atoms: C2_2  and  N1_3 
REMARK    2  A    between atoms: C6_7  and  C9_12 
REMARK       I    between atoms: C9_12  and  N4_14 
REMARK    3  A    between atoms: N4_14  and  C10_15 
REMARK    4  A    between atoms: C10_15  and  C11_16 
REMARK    5  A    between atoms: C11_16  and  C12_17 
REMARK    6  A    between atoms: C11_16  and  C20_27 
REMARK    7  A    between atoms: C16_21  and  O3_25 
REMARK    8  A    between atoms: C17_22  and  O2_23 
ROOT
ATOM      1  C11 <0> d          -5.413  -1.968  -7.615  0.00  0.00     0.071 C 
ENDROOT
BRANCH   1   2
ATOM      2  C10 <0> d          -5.944  -2.170  -6.194  0.00  0.00     0.137 C 
BRANCH   2   3
ATOM      3  N4  <0> d          -4.909  -1.793  -5.228  0.00  0.00    -0.356 N 
ATOM      4  C9  <0> d          -5.154  -1.889  -3.906  0.00  0.00     0.251 C 
ATOM      5  O1  <0> d          -6.234  -2.288  -3.515  0.00  0.00    -0.268 OA
ATOM      6  H12 <0> d          -4.047  -1.474  -5.540  0.00  0.00     0.162 HD
BRANCH   4   7
ATOM      7  C6  <0> d          -4.112  -1.510  -2.934  0.00  0.00     0.034 A 
ATOM      8  C5  <0> d          -2.870  -1.050  -3.382  0.00  0.00     0.019 A 
ATOM      9  C4  <0> d          -1.896  -0.695  -2.474  0.00  0.00     0.034 A 
ATOM     10  C3  <0> d          -2.146  -0.792  -1.111  0.00  0.00     0.075 A 
ATOM     11  N1  <0> d          -1.372  -0.511   0.012  0.00  0.00    -0.293 N 
ATOM     12  C8  <0> d          -3.386  -1.252  -0.657  0.00  0.00     0.073 A 
ATOM     13  N3  <0> d          -2.110  -0.794   1.125  0.00  0.00    -0.146 NA
ATOM     14  N2  <0> d          -3.342  -1.241   0.742  0.00  0.00    -0.301 N 
ATOM     15  H11 <0> d          -1.642  -1.472   1.707  0.00  0.00     0.173 HD
ATOM     16  H10 <0> d          -4.061  -1.508   1.337  0.00  0.00     0.182 HD
ATOM     17  C7  <0> d          -4.365  -1.609  -1.562  0.00  0.00     0.050 A 
BRANCH  11  18
ATOM     18  C2  <0> d           0.002  -0.004   0.002  0.00  0.00     0.141 C 
ATOM     19  C1  <0> d          -0.019   1.526   0.010  0.00  0.00     0.028 C 
ENDBRANCH  11  18
ENDBRANCH   4   7
ENDBRANCH   2   3
ENDBRANCH   1   2
BRANCH   1  20
ATOM     20  C12 <0> d          -6.430  -2.470  -8.607  0.00  0.00    -0.012 A 
ATOM     21  C17 <0> d          -6.097  -3.489  -9.485  0.00  0.00     0.108 A 
ATOM     22  C16 <0> d          -7.041  -3.954 -10.396  0.00  0.00     0.102 A 
ATOM     23  C15 <0> d          -8.305  -3.389 -10.429  0.00  0.00     0.039 A 
ATOM     24  C14 <0> d          -8.629  -2.369  -9.554  0.00  0.00     0.003 A 
ATOM     25  C13 <0> d          -7.694  -1.910  -8.645  0.00  0.00     0.011 A 
BRANCH  21  26
ATOM     26  O2  <0> d          -4.853  -4.037  -9.453  0.00  0.00    -0.353 OA
ATOM     27  C18 <0> d          -4.661  -5.159  -8.590  0.00  0.00     0.210 C 
ENDBRANCH  21  26
BRANCH  22  28
ATOM     28  O3  <0> d          -6.721  -4.958 -11.256  0.00  0.00    -0.353 OA
ATOM     29  C19 <0> d          -7.737  -5.381 -12.167  0.00  0.00     0.210 C 
ENDBRANCH  22  28
ENDBRANCH   1  20
BRANCH   1  30
ATOM     30  C20 <0> d          -5.160  -0.502  -7.853  0.00  0.00    -0.040 A 
ATOM     31  C27 <0> d          -6.174   0.618  -7.786  0.00  0.00     0.155 A 
ATOM     32  N5  <0> d          -5.435   1.849  -8.092  0.00  0.00    -0.385 N 
ATOM     33  C26 <0> d          -4.182   1.538  -8.318  0.00  0.00     0.038 A 
ATOM     34  H30 <0> d          -5.812   2.742  -8.125  0.00  0.00     0.160 HD
ATOM     35  C21 <0> d          -3.982   0.078  -8.176  0.00  0.00    -0.005 A 
ATOM     36  C25 <0> d          -3.055   2.337  -8.656  0.00  0.00     0.030 A 
ATOM     37  C22 <0> d          -2.634  -0.462  -8.393  0.00  0.00     0.014 A 
ATOM     38  C23 <0> d          -1.631   0.387  -8.711  0.00  0.00     0.001 A 
ATOM     39  C24 <0> d          -1.845   1.767  -8.840  0.00  0.00     0.002 A 
ENDBRANCH   1  30
TORSDOF 8
