REMARK  5 active torsions:
REMARK  status: ('A' for Active; 'I' for Inactive)
REMARK    1  A    between atoms: C10_10  and  S1_12 
REMARK    2  A    between atoms: S1_12  and  C11_13 
REMARK    3  A    between atoms: C11_13  and  C13_15 
REMARK       I    between atoms: C13_15  and  N2_17 
REMARK    4  A    between atoms: N2_17  and  C14_18 
REMARK    5  A    between atoms: C18_22  and  O2_24 
ROOT
ATOM      1  S1  <0> d           2.630   8.111  -0.376  0.00  0.00    -0.096 SA
ENDROOT
BRANCH   1   2
ATOM      2  C10 <0> d           2.280   9.834  -0.264  0.00  0.00     0.095 A 
ATOM      3  C9  <0> d           3.259  10.759  -0.658  0.00  0.00     0.046 A 
ATOM      4  C8  <0> d           3.002  12.094  -0.578  0.00  0.00    -0.047 A 
ATOM      5  C6  <0> d           1.743  12.505  -0.093  0.00  0.00    -0.000 A 
ATOM      6  C20 <0> d           4.037  13.107  -0.995  0.00  0.00     0.049 C 
ATOM      7  C5  <0> d           0.797  11.523   0.289  0.00  0.00     0.074 A 
ATOM      8  C7  <0> d           1.413  13.865   0.016  0.00  0.00     0.021 A 
ATOM      9  C4  <0> d          -0.457  11.933   0.772  0.00  0.00    -0.032 A 
ATOM     10  N1  <0> d           1.104  10.225   0.183  0.00  0.00    -0.241 NA
ATOM     11  C3  <0> d          -0.745  13.260   0.864  0.00  0.00     0.015 A 
ATOM     12  C21 <0> d          -1.481  10.907   1.185  0.00  0.00     0.050 C 
ATOM     13  C2  <0> d           0.187  14.225   0.488  0.00  0.00    -0.061 A 
ATOM     14  C1  <0> d          -0.166  15.685   0.603  0.00  0.00     0.048 C 
ENDBRANCH   1   2
BRANCH   1  15
ATOM     15  C11 <0> d           1.070   7.433   0.242  0.00  0.00     0.142 C 
ATOM     16  C12 <0> d           0.889   7.824   1.710  0.00  0.00     0.031 C 
BRANCH  15  17
ATOM     17  C13 <0> d           1.092   5.931   0.122  0.00  0.00     0.236 C 
ATOM     18  O1  <0> d           2.151   5.339   0.109  0.00  0.00    -0.272 OA
ATOM     19  N2  <0> d          -0.064   5.245   0.028  0.00  0.00    -0.326 N 
ATOM     20  H11 <0> d          -1.020   5.785  -0.037  0.00  0.00     0.169 HD
BRANCH  19  21
ATOM     21  C14 <0> d          -0.049   3.846   0.014  0.00  0.00     0.037 A 
ATOM     22  C19 <0> d           0.991   3.169  -0.609  0.00  0.00     0.066 A 
ATOM     23  C18 <0> d           1.006   1.783  -0.615  0.00  0.00     0.067 A 
ATOM     24  C17 <0> d          -0.023   1.076  -0.010  0.00  0.00     0.036 A 
ATOM     25  C16 <0> d          -1.058   1.752   0.609  0.00  0.00     0.005 A 
ATOM     26  C15 <0> d          -1.073   3.133   0.623  0.00  0.00     0.029 A 
BRANCH  23  27
ATOM     27  O2  <0> d           2.025   1.117  -1.219  0.00  0.00    -0.361 OA
ATOM     28  H16 <0> d           2.841   1.678  -1.699  0.00  0.00     0.217 HD
ENDBRANCH  23  27
ENDBRANCH  19  21
ENDBRANCH  15  17
ENDBRANCH   1  15
TORSDOF 5
