REMARK  7 active torsions:
REMARK  status: ('A' for Active; 'I' for Inactive)
REMARK    1  A    between atoms: C9_9  and  C15_16 
REMARK    2  A    between atoms: C11_11  and  C12_12 
REMARK    3  A    between atoms: C12_12  and  C13_13 
REMARK    4  A    between atoms: C13_13  and  S1_14 
REMARK       I    between atoms: C15_16  and  N1_18 
REMARK    5  A    between atoms: N1_18  and  C16_19 
REMARK    6  A    between atoms: C18_21  and  O3_27 
REMARK    7  A    between atoms: C21_24  and  O2_25 
ROOT
ATOM      1  C1  <0> d           4.023   7.979  -0.504  0.00  0.00     0.048 C 
ATOM      2  C2  <0> d           2.598   8.312  -0.867  0.00  0.00    -0.061 A 
ATOM      3  C3  <0> d           2.332   9.146  -1.937  0.00  0.00     0.009 A 
ATOM      4  C4  <0> d           1.030   9.454  -2.274  0.00  0.00     0.031 A 
ATOM      5  C5  <0> d          -0.027   8.925  -1.538  0.00  0.00     0.044 A 
ATOM      6  C6  <0> d           0.253   8.086  -0.464  0.00  0.00     0.015 A 
ATOM      7  C7  <0> d           1.553   7.782  -0.130  0.00  0.00     0.019 A 
ATOM      8  C8  <0> d          -1.081   7.690   0.112  0.00  0.00     0.247 A 
ATOM      9  C9  <0> d          -1.274   6.167   0.041  0.00  0.00     0.131 C 
ATOM     10  C10 <0> d          -2.050   5.857   1.350  0.00  0.00     0.050 C 
ATOM     11  C11 <0> d          -1.432   6.884   2.333  0.00  0.00     0.189 C 
ATOM     12  C24 <0> d          -2.096   8.396  -0.750  0.00  0.00     0.264 A 
ATOM     13  O4  <0> d          -3.302   8.350  -0.631  0.00  0.00    -0.270 OA
ATOM     14  N2  <0> d          -1.407   9.085  -1.678  0.00  0.00    -0.324 N 
ATOM     15  H28 <0> d          -1.821   9.630  -2.366  0.00  0.00     0.169 HD
ATOM     16  N3  <0> d          -1.200   8.089   1.514  0.00  0.00    -0.048 N 
ATOM     17  H29 <0> d          -1.990   8.737   1.622  0.00  0.00     0.279 HD
ATOM     18  H30 <0> d          -0.335   8.550   1.816  0.00  0.00     0.279 HD
ENDROOT
BRANCH   9  19
ATOM     19  C15 <0> d           0.057   5.460   0.029  0.00  0.00     0.229 C 
ATOM     20  O1  <0> d           0.591   5.156   1.074  0.00  0.00    -0.273 OA
ATOM     21  N1  <0> d           0.653   5.166  -1.143  0.00  0.00    -0.324 N 
ATOM     22  H18 <0> d           0.267   5.479  -1.976  0.00  0.00     0.169 HD
BRANCH  21  23
ATOM     23  C16 <0> d           1.831   4.407  -1.159  0.00  0.00     0.071 A 
ATOM     24  C21 <0> d           2.719   4.519  -2.227  0.00  0.00     0.095 A 
ATOM     25  C20 <0> d           3.880   3.764  -2.243  0.00  0.00     0.042 A 
ATOM     26  C19 <0> d           4.163   2.907  -1.196  0.00  0.00     0.039 A 
ATOM     27  C18 <0> d           3.281   2.793  -0.131  0.00  0.00     0.070 A 
ATOM     28  C17 <0> d           2.115   3.543  -0.112  0.00  0.00     0.069 A 
BRANCH  24  29
ATOM     29  O2  <0> d           2.443   5.366  -3.255  0.00  0.00    -0.354 OA
ATOM     30  C22 <0> d           3.398   5.431  -4.316  0.00  0.00     0.210 C 
ENDBRANCH  24  29
BRANCH  27  31
ATOM     31  O3  <0> d           3.560   1.946   0.895  0.00  0.00    -0.356 OA
ATOM     32  C23 <0> d           4.779   1.204   0.811  0.00  0.00     0.210 C 
ENDBRANCH  27  31
ENDBRANCH  21  23
ENDBRANCH   9  19
BRANCH  11  33
ATOM     33  C12 <0> d          -2.410   7.187   3.470  0.00  0.00     0.043 C 
BRANCH  33  34
ATOM     34  C13 <0> d          -1.735   8.103   4.492  0.00  0.00     0.075 C 
BRANCH  34  35
ATOM     35  S1  <0> d          -2.894   8.463   5.841  0.00  0.00    -0.173 SA
ATOM     36  C14 <0> d          -1.953   9.545   6.952  0.00  0.00     0.089 C 
ENDBRANCH  34  35
ENDBRANCH  33  34
ENDBRANCH  11  33
TORSDOF 7
