REMARK  7 active torsions:
REMARK  status: ('A' for Active; 'I' for Inactive)
REMARK    1  A    between atoms: C3_3  and  C8_10 
REMARK    2  A    between atoms: C8_10  and  N1_11 
REMARK    3  A    between atoms: N2_14  and  C15_20 
REMARK    4  A    between atoms: C11_15  and  C13_17 
REMARK    5  A    between atoms: C13_17  and  C14_18 
REMARK    6  A    between atoms: C14_18  and  O3_19 
REMARK    7  A    between atoms: C15_20  and  C16_21 
ROOT
ATOM      1  N1  <0> d           3.330   6.003   0.179  0.00  0.00    -0.063 N 
ATOM      2  C9  <0> d           4.177   5.790  -1.002  0.00  0.00     0.265 C 
ATOM      3  C10 <0> d           4.407   4.289  -1.198  0.00  0.00     0.301 C 
ATOM      4  N2  <0> d           3.110   3.615  -1.355  0.00  0.00     0.101 N 
ATOM      5  C11 <0> d           2.263   3.828  -0.174  0.00  0.00     0.251 C 
ATOM      6  C12 <0> d           2.033   5.328   0.023  0.00  0.00     0.271 C 
ATOM      7  H25 <0> d           3.840   5.561   1.047  0.00  0.00     0.280 HD
ENDROOT
BRANCH   1   8
ATOM      8  C8  <0> d           3.148   7.436   0.445  0.00  0.00     0.276 C 
BRANCH   8   9
ATOM      9  C3  <0> d           2.361   8.060  -0.678  0.00  0.00     0.004 A 
ATOM     10  C2  <0> d           3.015   8.764  -1.672  0.00  0.00     0.012 A 
ATOM     11  C1  <0> d           2.296   9.338  -2.704  0.00  0.00     0.003 A 
ATOM     12  C6  <0> d           0.920   9.210  -2.746  0.00  0.00     0.040 A 
ATOM     13  C5  <0> d           0.258   8.505  -1.754  0.00  0.00     0.105 A 
ATOM     14  C4  <0> d           0.983   7.923  -0.718  0.00  0.00     0.113 A 
ATOM     15  O1  <0> d          -1.067   8.236  -1.565  0.00  0.00    -0.323 OA
ATOM     16  O2  <0> d           0.112   7.295   0.125  0.00  0.00    -0.322 OA
ATOM     17  C7  <0> d          -1.185   7.837  -0.187  0.00  0.00     0.352 C 
ENDBRANCH   8   9
ENDBRANCH   1   8
BRANCH   5  18
ATOM     18  C13 <0> d           0.917   3.128  -0.378  0.00  0.00     0.063 C 
BRANCH  18  19
ATOM     19  C14 <0> d           0.083   3.245   0.899  0.00  0.00     0.166 C 
BRANCH  19  20
ATOM     20  O3  <0> d          -1.122   2.490   0.752  0.00  0.00    -0.401 OA
ATOM     21  H19 <0> d          -1.852   2.455   1.573  0.00  0.00     0.209 HD
ENDBRANCH  19  20
ENDBRANCH  18  19
ENDBRANCH   5  18
BRANCH   4  22
ATOM     22  C15 <0> d           3.292   2.181  -1.621  0.00  0.00     0.319 C 
BRANCH  22  23
ATOM     23  C16 <0> d           4.252   2.001  -2.769  0.00  0.00     0.010 A 
ATOM     24  S1  <0> d           3.907   1.899  -4.518  0.00  0.00    -0.105 SA
ATOM     25  C19 <0> d           5.584   1.695  -5.094  0.00  0.00     0.050 A 
ATOM     26  C18 <0> d           6.284   1.718  -3.933  0.00  0.00     0.008 A 
ATOM     27  C17 <0> d           5.601   1.880  -2.742  0.00  0.00     0.017 A 
ENDBRANCH  22  23
ENDBRANCH   4  22
TORSDOF 7
