REMARK  4 active torsions:
REMARK  status: ('A' for Active; 'I' for Inactive)
REMARK    1  A    between atoms: O1_2  and  C2_3 
REMARK    2  A    between atoms: C5_6  and  C8_9 
REMARK    3  A    between atoms: C15_17  and  C17_19 
REMARK    4  A    between atoms: C22_24  and  O2_25 
ROOT
ATOM      1  C8  <0> d          -6.014  -0.034   1.861  0.00  0.00     0.044 C 
ATOM      2  N1  <0> d          -6.639   0.363   2.906  0.00  0.00    -0.254 NA
ATOM      3  C9  <0> d          -8.023   0.019   3.213  0.00  0.00     0.218 C 
ATOM      4  C10 <0> d          -8.750   1.255   3.752  0.00  0.00     0.063 C 
ATOM      5  C11 <0> d          -8.047   1.747   5.019  0.00  0.00     0.004 C 
ATOM      6  C12 <0> d          -8.072   0.643   6.078  0.00  0.00     0.000 C 
ATOM      7  C13 <0> d          -7.350  -0.595   5.540  0.00  0.00     0.004 C 
ATOM      8  C14 <0> d          -8.053  -1.085   4.273  0.00  0.00     0.063 C 
ATOM      9  C15 <0> d          -7.930  -1.523   1.359  0.00  0.00     0.230 C 
ATOM     10  C16 <0> d          -6.643  -0.899   0.805  0.00  0.00     0.098 C 
ATOM     11  N2  <0> d          -8.717  -0.453   2.003  0.00  0.00    -0.038 N 
ATOM     12  H26 <0> d          -8.829   0.329   1.347  0.00  0.00     0.281 HD
ATOM     13  H27 <0> d          -9.641  -0.818   2.260  0.00  0.00     0.281 HD
ENDROOT
BRANCH   1  14
ATOM     14  C5  <0> d          -4.611   0.382   1.683  0.00  0.00    -0.012 A 
ATOM     15  C4  <0> d          -3.895  -0.032   0.556  0.00  0.00     0.016 A 
ATOM     16  C3  <0> d          -2.586   0.363   0.391  0.00  0.00     0.037 A 
ATOM     17  C2  <0> d          -1.974   1.163   1.348  0.00  0.00     0.068 A 
ATOM     18  C7  <0> d          -2.682   1.577   2.470  0.00  0.00     0.037 A 
ATOM     19  C6  <0> d          -3.993   1.191   2.640  0.00  0.00     0.016 A 
BRANCH  17  20
ATOM     20  O1  <0> d          -0.682   1.547   1.184  0.00  0.00    -0.356 OA
ATOM     21  C1  <0> d          -0.013   1.086   0.008  0.00  0.00     0.210 C 
ENDBRANCH  17  20
ENDBRANCH   1  14
BRANCH   9  22
ATOM     22  C17 <0> d          -8.727  -2.128   0.233  0.00  0.00     0.006 A 
ATOM     23  C22 <0> d          -8.467  -3.426  -0.182  0.00  0.00     0.074 A 
ATOM     24  C21 <0> d          -9.205  -3.982  -1.217  0.00  0.00     0.037 A 
ATOM     25  C20 <0> d         -10.191  -3.239  -1.837  0.00  0.00     0.003 A 
ATOM     26  C19 <0> d         -10.445  -1.944  -1.425  0.00  0.00     0.001 A 
ATOM     27  C18 <0> d          -9.714  -1.389  -0.391  0.00  0.00     0.012 A 
BRANCH  23  28
ATOM     28  O2  <0> d          -7.493  -4.153   0.426  0.00  0.00    -0.360 OA
ATOM     29  H25 <0> d          -7.802  -4.668   1.184  0.00  0.00     0.217 HD
ENDBRANCH  23  28
ENDBRANCH   9  22
TORSDOF 4
