REMARK  6 active torsions:
REMARK  status: ('A' for Active; 'I' for Inactive)
REMARK    1  A    between atoms: C4_4  and  C7_7 
REMARK    2  A    between atoms: C7_7  and  C8_8 
REMARK    3  A    between atoms: C8_8  and  C9_9 
REMARK    4  A    between atoms: C10_11  and  C16_20 
REMARK    5  A    between atoms: N2_12  and  C11_14 
REMARK    6  A    between atoms: C21_25  and  C22_26 
ROOT
ATOM      1  C9  <0> d           5.686  -1.788   1.397  0.00  0.00     0.279 C 
ATOM      2  N1  <0> d           6.069  -2.080   2.806  0.00  0.00    -0.031 N 
ATOM      3  C10 <0> d           7.550  -2.122   2.735  0.00  0.00     0.339 C 
ATOM      4  N2  <0> d           7.924  -1.370   1.526  0.00  0.00    -0.259 N 
ATOM      5  N3  <0> d           6.774  -0.886   0.944  0.00  0.00    -0.204 NA
ATOM      6  H13 <0> d           5.761  -1.342   3.421  0.00  0.00     0.282 HD
ATOM      7  H14 <0> d           6.848  -0.884  -0.062  0.00  0.00     0.149 HD
ATOM      8  H24 <0> d           5.699  -2.971   3.100  0.00  0.00     0.282 HD
ENDROOT
BRANCH   3   9
ATOM      9  C16 <0> d           8.147  -1.472   3.957  0.00  0.00     0.007 A 
ATOM     10  C21 <0> d           8.307  -2.205   5.130  0.00  0.00     0.024 A 
ATOM     11  C20 <0> d           8.864  -1.599   6.254  0.00  0.00     0.016 A 
ATOM     12  C19 <0> d           9.244  -0.273   6.203  0.00  0.00     0.001 A 
ATOM     13  C18 <0> d           9.077   0.452   5.037  0.00  0.00     0.001 A 
ATOM     14  C17 <0> d           8.530  -0.146   3.917  0.00  0.00     0.012 A 
BRANCH  10  15
ATOM     15  C22 <0> d           7.892  -3.630   5.180  0.00  0.00     0.181 A 
ATOM     16  N5  <0> d           7.915  -4.411   6.268  0.00  0.00    -0.221 NA
ATOM     17  C23 <0> d           7.483  -5.606   5.963  0.00  0.00     0.228 A 
ATOM     18  N6  <0> d           7.170  -5.621   4.654  0.00  0.00    -0.270 N 
ATOM     19  H3  <0> d           6.824  -6.373   4.149  0.00  0.00     0.190 HD
ATOM     20  N7  <0> d           7.436  -4.331   4.166  0.00  0.00    -0.153 NA
ENDBRANCH  10  15
ENDBRANCH   3   9
BRANCH   4  21
ATOM     21  C11 <0> d           9.216  -1.183   1.050  0.00  0.00     0.141 A 
ATOM     22  N4  <0> d          10.229  -1.799   1.642  0.00  0.00    -0.242 NA
ATOM     23  C15 <0> d          11.470  -1.652   1.218  0.00  0.00     0.119 A 
ATOM     24  C14 <0> d          11.759  -0.838   0.142  0.00  0.00     0.019 A 
ATOM     25  C13 <0> d          10.727  -0.170  -0.502  0.00  0.00     0.005 A 
ATOM     26  C12 <0> d           9.435  -0.347  -0.040  0.00  0.00     0.052 A 
ENDBRANCH   4  21
BRANCH   1  27
ATOM     27  C8  <0> d           4.332  -1.078   1.338  0.00  0.00     0.055 C 
BRANCH  27  28
ATOM     28  C7  <0> d           3.941  -0.846  -0.123  0.00  0.00     0.042 C 
BRANCH  28  29
ATOM     29  C4  <0> d           2.607  -0.146  -0.181  0.00  0.00    -0.058 A 
ATOM     30  C3  <0> d           2.550   1.235  -0.187  0.00  0.00     0.007 A 
ATOM     31  C2  <0> d           1.327   1.876  -0.241  0.00  0.00     0.001 A 
ATOM     32  C1  <0> d           0.160   1.137  -0.289  0.00  0.00     0.000 A 
ATOM     33  C6  <0> d           0.217  -0.245  -0.284  0.00  0.00     0.001 A 
ATOM     34  C5  <0> d           1.440  -0.886  -0.228  0.00  0.00     0.007 A 
ENDBRANCH  28  29
ENDBRANCH  27  28
ENDBRANCH   1  27
TORSDOF 6
