REMARK  15 active torsions:
REMARK  status: ('A' for Active; 'I' for Inactive)
REMARK    1  A    between atoms: C2_2  and  C3_3 
REMARK    2  A    between atoms: C2_2  and  O6_26 
REMARK    3  A    between atoms: C3_3  and  C4_4 
REMARK    4  A    between atoms: C4_4  and  C5_5 
REMARK    5  A    between atoms: C5_5  and  C6_6 
REMARK    6  A    between atoms: C6_6  and  C7_7 
REMARK    7  A    between atoms: C6_6  and  O5_25 
REMARK    8  A    between atoms: C8_8  and  C9_9 
REMARK    9  A    between atoms: C10_10  and  O4_24 
REMARK   10  A    between atoms: C13_14  and  C14_15 
REMARK   11  A    between atoms: C14_15  and  C15_16 
REMARK   12  A    between atoms: C16_17  and  C17_18 
REMARK   13  A    between atoms: C17_18  and  C18_19 
REMARK   14  A    between atoms: C18_19  and  C19_20 
REMARK   15  A    between atoms: C19_20  and  C20_21 
ROOT
ATOM      1  C9  <0> d          -3.482   0.210   3.308  0.00  0.00     0.048 C 
ATOM      2  C10 <0> d          -4.238  -0.884   4.104  0.00  0.00     0.133 C 
ATOM      3  C11 <0> d          -3.191  -2.023   4.179  0.00  0.00     0.111 C 
ATOM      4  C12 <0> d          -2.497  -1.988   2.829  0.00  0.00     0.134 C 
ATOM      5  O1  <0> d          -1.918  -2.905   2.298  0.00  0.00    -0.297 OA
ATOM      6  C13 <0> d          -2.666  -0.590   2.271  0.00  0.00     0.069 C 
ENDROOT
BRANCH   1   7
ATOM      7  C8  <0> d          -4.455   1.132   2.619  0.00  0.00    -0.020 C 
ATOM      8  C7  <0> d          -4.381   2.425   2.813  0.00  0.00     0.001 C 
BRANCH   8   9
ATOM      9  C6  <0> d          -5.354   3.347   2.124  0.00  0.00     0.140 C 
BRANCH   9  10
ATOM     10  C5  <0> d          -6.148   4.127   3.174  0.00  0.00     0.036 C 
BRANCH  10  11
ATOM     11  C4  <0> d          -7.220   4.969   2.480  0.00  0.00     0.005 C 
BRANCH  11  12
ATOM     12  C3  <0> d          -8.015   5.749   3.530  0.00  0.00     0.031 C 
BRANCH  12  13
ATOM     13  C2  <0> d          -9.087   6.591   2.836  0.00  0.00     0.114 C 
ATOM     14  C1  <0> d          -9.961   7.274   3.891  0.00  0.00     0.039 C 
BRANCH  13  15
ATOM     15  O6  <0> d          -8.459   7.585   2.023  0.00  0.00    -0.396 OA
ATOM     16  H31 <0> d          -7.789   7.283   1.205  0.00  0.00     0.210 HD
ENDBRANCH  13  15
ENDBRANCH  12  13
ENDBRANCH  11  12
ENDBRANCH  10  11
ENDBRANCH   9  10
BRANCH   9  17
ATOM     17  O5  <0> d          -4.636   4.262   1.294  0.00  0.00    -0.392 OA
ATOM     18  H30 <0> d          -4.005   3.884   0.476  0.00  0.00     0.210 HD
ENDBRANCH   9  17
ENDBRANCH   8   9
ENDBRANCH   1   7
BRANCH   6  19
ATOM     19  C14 <0> d          -1.296   0.061   2.069  0.00  0.00     0.040 C 
BRANCH  19  20
ATOM     20  C15 <0> d          -0.547  -0.672   0.986  0.00  0.00    -0.030 C 
ATOM     21  C16 <0> d          -0.061  -0.012  -0.036  0.00  0.00    -0.031 C 
BRANCH  21  22
ATOM     22  C17 <0> d          -0.101   1.494  -0.049  0.00  0.00     0.027 C 
BRANCH  22  23
ATOM     23  C18 <0> d           1.300   2.039  -0.335  0.00  0.00     0.014 C 
BRANCH  23  24
ATOM     24  C19 <0> d           1.259   3.569  -0.348  0.00  0.00     0.113 C 
BRANCH  24  25
ATOM     25  C20 <0> d           2.639   4.106  -0.630  0.00  0.00     0.172 C 
ATOM     26  O2  <0> d           3.560   3.343  -0.803  0.00  0.00    -0.648 OA
ATOM     27  O3  <0> d           2.844   5.431  -0.689  0.00  0.00    -0.648 OA
ENDBRANCH  24  25
ENDBRANCH  23  24
ENDBRANCH  22  23
ENDBRANCH  21  22
ENDBRANCH  19  20
ENDBRANCH   6  19
BRANCH   2  28
ATOM     28  O4  <0> d          -4.580  -0.421   5.412  0.00  0.00    -0.394 OA
ATOM     29  H29 <0> d          -5.122  -1.081   6.105  0.00  0.00     0.210 HD
ENDBRANCH   2  28
TORSDOF 15
