REMARK  6 active torsions:
REMARK  status: ('A' for Active; 'I' for Inactive)
REMARK    1  A    between atoms: C2_2  and  C4_4 
REMARK    2  A    between atoms: C7_8  and  C18_23 
REMARK    3  A    between atoms: C8_9  and  O1_10 
REMARK    4  A    between atoms: C11_14  and  C12_15 
REMARK    5  A    between atoms: C15_18  and  O3_22 
REMARK    6  A    between atoms: C16_19  and  O2_21 
ROOT
ATOM      1  C4  <0> d           0.635   3.606  -1.185  0.00  0.00     0.040 C 
ATOM      2  C5  <0> d          -0.791   3.042  -1.184  0.00  0.00     0.252 C 
ATOM      3  N1  <0> d          -0.723   1.573  -1.183  0.00  0.00    -0.033 N 
ATOM      4  C6  <0> d          -0.077   1.083  -2.411  0.00  0.00     0.252 C 
ATOM      5  C7  <0> d           1.370   1.589  -2.447  0.00  0.00     0.040 C 
ATOM      6  C8  <0> d           1.355   3.123  -2.450  0.00  0.00     0.142 C 
ATOM      7  C9  <0> d           2.092   1.105  -1.185  0.00  0.00     0.289 C 
ATOM      8  N2  <0> d           1.367   1.595  -0.002  0.00  0.00     0.126 N 
ATOM      9  C10 <0> d           1.379   3.065   0.042  0.00  0.00     0.289 C 
ATOM     10  C11 <0> d          -0.013   1.086   0.008  0.00  0.00     0.455 C 
ATOM     11  H31 <0> d          -1.750   1.180  -1.154  0.00  0.00     0.282 HD
ENDROOT
BRANCH  10  12
ATOM     12  C12 <0> d          -0.718   1.572   1.248  0.00  0.00     0.005 A 
ATOM     13  C17 <0> d          -2.083   1.789   1.224  0.00  0.00     0.050 A 
ATOM     14  C16 <0> d          -2.735   2.231   2.364  0.00  0.00     0.099 A 
ATOM     15  C15 <0> d          -2.010   2.466   3.529  0.00  0.00     0.098 A 
ATOM     16  C14 <0> d          -0.641   2.251   3.544  0.00  0.00     0.040 A 
ATOM     17  C13 <0> d           0.002   1.805   2.405  0.00  0.00     0.014 A 
BRANCH  14  18
ATOM     18  O2  <0> d          -4.078   2.440   2.344  0.00  0.00    -0.358 OA
ATOM     19  H22 <0> d          -4.650   2.255   1.423  0.00  0.00     0.217 HD
ENDBRANCH  14  18
BRANCH  15  20
ATOM     20  O3  <0> d          -2.643   2.905   4.649  0.00  0.00    -0.358 OA
ATOM     21  H23 <0> d          -3.730   3.075   4.636  0.00  0.00     0.217 HD
ENDBRANCH  15  20
ENDBRANCH  10  12
BRANCH   1  22
ATOM     22  C2  <0> d           0.594   5.135  -1.157  0.00  0.00    -0.008 C 
ATOM     23  C1  <0> d          -0.126   5.604   0.109  0.00  0.00     0.010 C 
ATOM     24  C3  <0> d           2.022   5.684  -1.165  0.00  0.00     0.010 C 
ENDBRANCH   1  22
BRANCH   5  25
ATOM     25  C18 <0> d           2.090   1.070  -3.694  0.00  0.00    -0.008 C 
ATOM     26  C19 <0> d           3.528   1.592  -3.707  0.00  0.00     0.010 C 
ATOM     27  C20 <0> d           2.102  -0.459  -3.676  0.00  0.00     0.010 C 
ENDBRANCH   5  25
BRANCH   6  28
ATOM     28  O1  <0> d           0.663   3.594  -3.609  0.00  0.00    -0.394 OA
ATOM     29  H13 <0> d           1.038   3.343  -4.612  0.00  0.00     0.210 HD
ENDBRANCH   6  28
TORSDOF 6
