REMARK  5 active torsions:
REMARK  status: ('A' for Active; 'I' for Inactive)
REMARK    1  A    between atoms: C7_7  and  N1_8 
REMARK       I    between atoms: N1_8  and  C8_9 
REMARK    2  A    between atoms: C8_9  and  C9_11 
REMARK       I    between atoms: C9_11  and  N2_13 
REMARK    3  A    between atoms: N2_13  and  C10_14 
REMARK    4  A    between atoms: C10_14  and  C11_15 
REMARK    5  A    between atoms: C15_20  and  O3_21 
ROOT
ATOM      1  C9  <0> d          -0.167   0.044   4.869  0.00  0.00     0.309 C 
ATOM      2  O2  <0> d          -0.183   1.257   4.874  0.00  0.00    -0.262 OA
ATOM      3  N2  <0> d          -0.248  -0.636   6.030  0.00  0.00    -0.349 N 
ATOM      4  H9  <0> d          -0.235  -1.606   6.026  0.00  0.00     0.163 HD
ENDROOT
BRANCH   1   5
ATOM      5  C8  <0> d          -0.056  -0.696   3.577  0.00  0.00     0.314 C 
ATOM      6  N1  <0> d           0.025  -0.016   2.416  0.00  0.00    -0.319 N 
ATOM      7  H8  <0> d           0.078   0.952   2.424  0.00  0.00     0.169 HD
ATOM      8  O1  <0> d          -0.040  -1.910   3.572  0.00  0.00    -0.262 OA
BRANCH   6   9
ATOM      9  C7  <0> d           0.033  -0.706   1.201  0.00  0.00     0.041 A 
ATOM     10  C2  <0> d          -0.586  -0.159   0.085  0.00  0.00    -0.035 A 
ATOM     11  C1  <0> d          -1.268   1.182   0.182  0.00  0.00     0.050 C 
ATOM     12  C3  <0> d          -0.571  -0.841  -1.116  0.00  0.00     0.009 A 
ATOM     13  C4  <0> d           0.055  -2.071  -1.206  0.00  0.00     0.001 A 
ATOM     14  C5  <0> d           0.667  -2.622  -0.095  0.00  0.00     0.002 A 
ATOM     15  C6  <0> d           0.655  -1.946   1.108  0.00  0.00     0.030 A 
ENDBRANCH   6   9
ENDBRANCH   1   5
BRANCH   3  16
ATOM     16  C10 <0> d          -0.356   0.090   7.298  0.00  0.00     0.166 C 
BRANCH  16  17
ATOM     17  C11 <0> d          -0.432  -0.895   8.436  0.00  0.00     0.012 A 
ATOM     18  C15 <0> d           0.721  -1.497   8.924  0.00  0.00     0.172 A 
ATOM     19  N3  <0> d           0.659  -2.358   9.926  0.00  0.00    -0.229 NA
ATOM     20  C14 <0> d          -0.489  -2.684  10.489  0.00  0.00     0.033 A 
ATOM     21  C13 <0> d          -1.675  -2.129  10.051  0.00  0.00     0.027 A 
ATOM     22  C17 <0> d          -0.505  -3.676  11.624  0.00  0.00     0.070 C 
ATOM     23  C12 <0> d          -1.652  -1.217   9.005  0.00  0.00     0.015 A 
BRANCH  18  24
ATOM     24  O3  <0> d           1.922  -1.195   8.370  0.00  0.00    -0.339 OA
ATOM     25  C16 <0> d           3.070  -1.848   8.916  0.00  0.00     0.211 C 
ENDBRANCH  18  24
ENDBRANCH  16  17
ENDBRANCH   3  16
TORSDOF 5
