REMARK  3 active torsions:
REMARK  status: ('A' for Active; 'I' for Inactive)
REMARK    1  A    between atoms: C6_8  and  C9_12 
REMARK    2  A    between atoms: C9_12  and  N3_13 
REMARK    3  A    between atoms: C14_18  and  C15_19 
ROOT
ATOM      1  C1  <0> d          -0.016   1.359   0.009  0.00  0.00     0.005 A 
ATOM      2  C2  <0> d           1.194   2.067   0.002  0.00  0.00     0.018 A 
ATOM      3  C3  <0> d           2.370   1.401  -0.013  0.00  0.00     0.102 A 
ATOM      4  N1  <0> d           2.400   0.039  -0.021  0.00  0.00    -0.274 N 
ATOM      5  C4  <0> d           1.236  -0.679  -0.013  0.00  0.00     0.137 A 
ATOM      6  C5  <0> d           0.002  -0.004   0.002  0.00  0.00     0.051 A 
ATOM      7  N2  <0> d           1.256  -2.011  -0.020  0.00  0.00    -0.233 NA
ATOM      8  C6  <0> d           2.397  -2.682  -0.034  0.00  0.00     0.068 A 
ATOM      9  C7  <0> d           3.600  -2.003  -0.042  0.00  0.00     0.104 A 
ATOM     10  C8  <0> d           3.587  -0.603  -0.035  0.00  0.00     0.255 A 
ATOM     11  O1  <0> d           4.633   0.026  -0.043  0.00  0.00    -0.268 OA
ENDROOT
BRANCH   8  12
ATOM     12  C9  <0> d           2.384  -4.189  -0.042  0.00  0.00     0.295 C 
BRANCH  12  13
ATOM     13  N3  <0> d           1.806  -4.680   1.217  0.00  0.00    -0.052 N 
ATOM     14  C14 <0> d           1.683  -6.141   1.160  0.00  0.00     0.288 C 
ATOM     15  C13 <0> d           1.008  -6.650   2.435  0.00  0.00     0.044 C 
ATOM     16  C12 <0> d           1.855  -6.255   3.648  0.00  0.00     0.004 C 
ATOM     17  C11 <0> d           2.039  -4.734   3.655  0.00  0.00     0.028 C 
ATOM     18  C10 <0> d           2.676  -4.296   2.335  0.00  0.00     0.236 C 
ATOM     19  H17 <0> d           0.893  -4.271   1.348  0.00  0.00     0.281 HD
BRANCH  14  20
ATOM     20  C15 <0> d           0.853  -6.529  -0.037  0.00  0.00     0.205 C 
ATOM     21  O2  <0> d           0.778  -7.698  -0.375  0.00  0.00    -0.646 OA
ATOM     22  O3  <0> d           0.255  -5.673  -0.667  0.00  0.00    -0.646 OA
ENDBRANCH  14  20
ENDBRANCH  12  13
ENDBRANCH   8  12
TORSDOF 3
