REMARK  4 active torsions:
REMARK  status: ('A' for Active; 'I' for Inactive)
REMARK    1  A    between atoms: N1_5  and  C7_10 
REMARK    2  A    between atoms: C5_7  and  C6_9 
REMARK    3  A    between atoms: C6_9  and  N3_22 
REMARK    4  A    between atoms: C10_13  and  N2_16 
ROOT
ATOM      1  C1  <0> d          -1.208  -2.138  -8.201  0.00  0.00     0.056 C 
ATOM      2  C2  <0> d          -0.098  -2.724  -7.326  0.00  0.00     0.135 C 
ATOM      3  C3  <0> d          -0.128  -2.067  -5.974  0.00  0.00     0.258 C 
ATOM      4  O1  <0> d          -0.268  -0.864  -5.911  0.00  0.00    -0.270 OA
ATOM      5  N1  <0> d          -0.006  -2.763  -4.837  0.00  0.00    -0.313 N 
ATOM      6  C4  <0> d           0.132  -4.217  -4.816  0.00  0.00     0.166 C 
ATOM      7  C5  <0> d           0.554  -4.722  -6.195  0.00  0.00     0.166 C 
ATOM      8  O2  <0> d          -0.298  -4.133  -7.184  0.00  0.00    -0.363 OA
ATOM      9  C15 <0> d           1.258  -2.468  -7.986  0.00  0.00     0.056 C 
ENDROOT
BRANCH   5  10
ATOM     10  C7  <0> d          -0.004  -2.069  -3.619  0.00  0.00     0.037 A 
ATOM     11  C12 <0> d           1.192  -1.603  -3.087  0.00  0.00     0.032 A 
ATOM     12  C11 <0> d           1.193  -0.915  -1.890  0.00  0.00     0.031 A 
ATOM     13  C10 <0> d           0.001  -0.697  -1.213  0.00  0.00     0.029 A 
ATOM     14  C9  <0> d          -1.195  -1.163  -1.745  0.00  0.00     0.031 A 
ATOM     15  C8  <0> d          -1.197  -1.846  -2.945  0.00  0.00     0.032 A 
BRANCH  13  16
ATOM     16  N2  <0> d           0.003  -0.004   0.002  0.00  0.00    -0.390 N 
ATOM     17  C13 <0> d          -1.256   0.231   0.714  0.00  0.00     0.149 C 
ATOM     18  C14 <0> d           1.264   0.486   0.564  0.00  0.00     0.149 C 
ENDBRANCH  13  16
ENDBRANCH   5  10
BRANCH   7  19
ATOM     19  C6  <0> d           0.424  -6.246  -6.248  0.00  0.00     0.263 C 
BRANCH  19  20
ATOM     20  N3  <0> d           0.913  -6.725  -7.552  0.00  0.00    -0.077 N 
ATOM     21  H9  <0> d           1.880  -6.435  -7.690  0.00  0.00     0.274 HD
ATOM     22  H10 <0> d           0.854  -7.741  -7.596  0.00  0.00     0.274 HD
ATOM     23  H24 <0> d           0.334  -6.323  -8.299  0.00  0.00     0.274 HD
ENDBRANCH  19  20
ENDBRANCH   7  19
TORSDOF 4
