REMARK  3 active torsions:
REMARK  status: ('A' for Active; 'I' for Inactive)
REMARK    1  A    between atoms: C4_5  and  C11_16 
REMARK    2  A    between atoms: C5_8  and  C8_13 
REMARK    3  A    between atoms: C11_16  and  O3_18 
ROOT
ATOM      1  C8  <0> d          -1.830   2.265   1.411  0.00  0.00     0.136 C 
ATOM      2  C9  <0> d          -2.981   3.182   1.423  0.00  0.00    -0.114 C 
ATOM      3  C10 <0> d          -3.899   3.914   1.433  0.00  0.00     0.012 C 
ENDROOT
BRANCH   1   4
ATOM      4  C5  <0> d          -1.165   2.300   0.033  0.00  0.00     0.151 C 
ATOM      5  N3  <0> d          -0.017   1.390   0.010  0.00  0.00    -0.231 N 
ATOM      6  C3  <0> d           1.269   1.798  -0.000  0.00  0.00     0.155 A 
ATOM      7  N2  <0> d           0.002  -0.004   0.002  0.00  0.00    -0.151 NA
ATOM      8  C2  <0> d           1.689   3.248  -0.017  0.00  0.00     0.199 C 
ATOM      9  N1  <0> d           2.025   0.738  -0.002  0.00  0.00    -0.211 NA
ATOM     10  C1  <0> d           2.799   3.475   1.011  0.00  0.00     0.048 C 
ATOM     11  O2  <0> d           0.527   4.061   0.325  0.00  0.00    -0.306 OA
ATOM     12  C6  <0> d          -0.638   3.694  -0.252  0.00  0.00     0.290 C 
ATOM     13  O1  <0> d          -1.243   4.453  -0.972  0.00  0.00    -0.262 OA
ATOM     14  C4  <0> d           1.264  -0.359  -0.002  0.00  0.00     0.176 A 
ATOM     15  C7  <0> d          -2.173   1.894  -1.044  0.00  0.00     0.053 C 
BRANCH  14  16
ATOM     16  C11 <0> d           1.773  -1.778  -0.006  0.00  0.00     0.187 C 
ATOM     17  C12 <0> d           2.293  -2.129  -1.402  0.00  0.00     0.048 C 
BRANCH  16  18
ATOM     18  O3  <0> d           2.833  -1.906   0.943  0.00  0.00    -0.388 OA
ATOM     19  H15 <0> d           3.590  -1.330   0.767  0.00  0.00     0.210 HD
ENDBRANCH  16  18
ENDBRANCH  14  16
ENDBRANCH   1   4
TORSDOF 3
