REMARK  4 active torsions:
REMARK  status: ('A' for Active; 'I' for Inactive)
REMARK    1  A    between atoms: C9_9  and  N1_10 
REMARK       I    between atoms: N1_10  and  C10_11 
REMARK    2  A    between atoms: C10_11  and  C11_13 
REMARK    3  A    between atoms: C11_13  and  C12_14 
REMARK    4  A    between atoms: C12_14  and  C13_15 
ROOT
ATOM      1  C12 <0> d          -1.339   2.075   0.020  0.00  0.00     0.088 C 
ENDROOT
BRANCH   1   2
ATOM      2  C11 <0> d          -1.097   3.586   0.027  0.00  0.00     0.110 C 
BRANCH   2   3
ATOM      3  C10 <0> d          -2.420   4.307   0.037  0.00  0.00     0.218 C 
ATOM      4  N1  <0> d          -2.453   5.654   0.044  0.00  0.00    -0.352 N 
ATOM      5  H11 <0> d          -1.514   6.227   0.043  0.00  0.00     0.163 HD
ATOM      6  O1  <0> d          -3.455   3.675   0.038  0.00  0.00    -0.274 OA
BRANCH   4   7
ATOM      7  C9  <0> d          -3.739   6.355   0.054  0.00  0.00     0.118 C 
ATOM      8  C4  <0> d          -4.249   6.537  -1.359  0.00  0.00    -0.029 A 
ATOM      9  C3  <0> d          -4.284   5.650  -2.422  0.00  0.00     0.010 A 
ATOM     10  C5  <0> d          -4.737   7.821  -1.519  0.00  0.00    -0.050 A 
ATOM     11  C2  <0> d          -4.804   6.043  -3.639  0.00  0.00     0.001 A 
ATOM     12  C1  <0> d          -5.292   7.327  -3.799  0.00  0.00     0.001 A 
ATOM     13  C6  <0> d          -5.258   8.213  -2.740  0.00  0.00     0.007 A 
ATOM     14  C7  <0> d          -4.588   8.589  -0.223  0.00  0.00     0.041 C 
ATOM     15  C8  <0> d          -3.566   7.785   0.608  0.00  0.00     0.034 C 
ENDBRANCH   4   7
ENDBRANCH   2   3
ENDBRANCH   1   2
BRANCH   1  16
ATOM     16  C13 <0> d          -0.016   1.354   0.009  0.00  0.00     0.108 A 
ATOM     17  N3  <0> d           1.091   2.047   0.003  0.00  0.00    -0.227 NA
ATOM     18  C18 <0> d           2.275   1.439  -0.012  0.00  0.00     0.116 A 
ATOM     19  C15 <0> d           2.394   0.043  -0.021  0.00  0.00     0.075 A 
ATOM     20  S1  <0> d           3.960   1.994  -0.025  0.00  0.00    -0.073 SA
ATOM     21  C14 <0> d           1.162  -0.688  -0.013  0.00  0.00     0.260 A 
ATOM     22  C16 <0> d           3.764  -0.489  -0.038  0.00  0.00    -0.026 A 
ATOM     23  N2  <0> d           0.002  -0.004   0.002  0.00  0.00    -0.311 N 
ATOM     24  O2  <0> d           1.164  -1.907  -0.020  0.00  0.00    -0.267 OA
ATOM     25  H2  <0> d          -0.943  -0.567   0.008  0.00  0.00     0.170 HD
ATOM     26  C21 <0> d           4.377  -1.893  -0.059  0.00  0.00     0.041 C 
ATOM     27  C17 <0> d           4.765   0.408  -0.040  0.00  0.00    -0.008 A 
ATOM     28  C20 <0> d           5.844  -1.708   0.375  0.00  0.00     0.010 C 
ATOM     29  C19 <0> d           6.118  -0.250  -0.054  0.00  0.00     0.047 C 
ENDBRANCH   1  16
TORSDOF 4
