REMARK  7 active torsions:
REMARK  status: ('A' for Active; 'I' for Inactive)
REMARK    1  A    between atoms: C2_2  and  C3_3 
REMARK    2  A    between atoms: C2_2  and  O2_22 
REMARK    3  A    between atoms: C4_6  and  S1_9 
REMARK    4  A    between atoms: S1_9  and  C6_10 
REMARK    5  A    between atoms: C6_10  and  C7_11 
REMARK       I    between atoms: C7_11  and  N4_13 
REMARK    6  A    between atoms: N4_13  and  C8_14 
REMARK    7  A    between atoms: C13_19  and  S2_20 
ROOT
ATOM      1  C6  <0> d           2.698  -2.138  -5.406  0.00  0.00     0.185 C 
ENDROOT
BRANCH   1   2
ATOM      2  S1  <0> d           0.986  -2.013  -4.820  0.00  0.00    -0.081 SA
BRANCH   2   3
ATOM      3  C4  <0> d           1.134  -1.284  -3.223  0.00  0.00     0.191 A 
ATOM      4  N2  <0> d           2.248  -0.927  -2.628  0.00  0.00    -0.122 NA
ATOM      5  N1  <0> d           1.986  -0.430  -1.472  0.00  0.00    -0.131 NA
ATOM      6  C3  <0> d           0.701  -0.440  -1.262  0.00  0.00     0.159 A 
ATOM      7  N3  <0> d           0.112  -0.989  -2.367  0.00  0.00    -0.314 N 
ATOM      8  C5  <0> d          -1.319  -1.211  -2.588  0.00  0.00     0.160 C 
BRANCH   6   9
ATOM      9  C2  <0> d          -0.006   0.057  -0.027  0.00  0.00     0.185 C 
ATOM     10  C1  <0> d          -0.026   1.587  -0.030  0.00  0.00     0.048 C 
BRANCH   9  11
ATOM     11  O2  <0> d           0.683  -0.408   1.136  0.00  0.00    -0.388 OA
ATOM     12  H18 <0> d           0.283  -0.126   1.969  0.00  0.00     0.210 HD
ENDBRANCH   9  11
ENDBRANCH   6   9
ENDBRANCH   2   3
ENDBRANCH   1   2
BRANCH   1  13
ATOM     13  C7  <0> d           2.715  -2.754  -6.781  0.00  0.00     0.231 C 
ATOM     14  O1  <0> d           1.674  -3.077  -7.314  0.00  0.00    -0.272 OA
ATOM     15  N4  <0> d           3.886  -2.946  -7.419  0.00  0.00    -0.325 N 
ATOM     16  H10 <0> d           4.712  -2.630  -7.022  0.00  0.00     0.169 HD
BRANCH  15  17
ATOM     17  C8  <0> d           3.910  -3.604  -8.657  0.00  0.00     0.051 A 
ATOM     18  C13 <0> d           4.988  -4.424  -8.992  0.00  0.00     0.026 A 
ATOM     19  C12 <0> d           5.002  -5.077 -10.217  0.00  0.00     0.021 A 
ATOM     20  C11 <0> d           3.957  -4.903 -11.104  0.00  0.00     0.002 A 
ATOM     21  C10 <0> d           2.892  -4.086 -10.774  0.00  0.00     0.002 A 
ATOM     22  C9  <0> d           2.866  -3.436  -9.553  0.00  0.00     0.031 A 
BRANCH  18  23
ATOM     23  S2  <0> d           6.322  -4.637  -7.861  0.00  0.00    -0.132 SA
ATOM     24  C14 <0> d           7.453  -5.763  -8.724  0.00  0.00     0.095 C 
ENDBRANCH  18  23
ENDBRANCH  15  17
ENDBRANCH   1  13
TORSDOF 7
