REMARK  3 active torsions:
REMARK  status: ('A' for Active; 'I' for Inactive)
REMARK    1  A    between atoms: N5_16  and  C9_17 
REMARK    2  A    between atoms: C9_17  and  C10_18 
REMARK    3  A    between atoms: C10_18  and  N6_28 
ROOT
ATOM      1  C1  <0> d          -3.966   4.539   0.064  0.00  0.00     0.071 C 
ATOM      2  C2  <0> d          -2.613   3.875   0.048  0.00  0.00     0.048 A 
ATOM      3  C3  <0> d          -2.388   2.564   0.039  0.00  0.00     0.054 A 
ATOM      4  N1  <0> d          -1.019   2.359   0.019  0.00  0.00    -0.138 N 
ATOM      5  C4  <0> d          -0.017   1.400   0.010  0.00  0.00     0.172 A 
ATOM      6  C5  <0> d           0.002  -0.004   0.002  0.00  0.00     0.281 A 
ATOM      7  O1  <0> d          -1.041  -0.634   0.008  0.00  0.00    -0.265 OA
ATOM      8  N2  <0> d           1.187  -0.649  -0.013  0.00  0.00    -0.273 N 
ATOM      9  H1  <0> d           1.203  -1.649  -0.018  0.00  0.00     0.173 HD
ATOM     10  C6  <0> d           2.346   0.031  -0.021  0.00  0.00     0.330 A 
ATOM     11  O2  <0> d           3.395  -0.585  -0.034  0.00  0.00    -0.246 OA
ATOM     12  N3  <0> d           2.376   1.377  -0.014  0.00  0.00    -0.286 N 
ATOM     13  C7  <0> d           1.191   2.097   0.002  0.00  0.00     0.186 A 
ATOM     14  N4  <0> d           0.903   3.396   0.012  0.00  0.00    -0.043 NA
ATOM     15  C8  <0> d          -0.411   3.567   0.025  0.00  0.00     0.716 A 
ATOM     16  N5  <0> d          -1.393   4.522   0.040  0.00  0.00    -0.181 N 
ATOM     17  C18 <0> d           3.661   2.081  -0.022  0.00  0.00     0.163 C 
ATOM     18  C19 <0> d          -3.442   1.488   0.043  0.00  0.00     0.071 C 
ENDROOT
BRANCH  16  19
ATOM     19  C9  <0> d          -1.185   5.973   0.045  0.00  0.00     0.175 C 
BRANCH  19  20
ATOM     20  C10 <0> d          -1.127   6.486  -1.395  0.00  0.00     0.255 C 
BRANCH  20  21
ATOM     21  N6  <0> d          -0.946   7.952  -1.380  0.00  0.00    -0.069 N 
ATOM     22  C11 <0> d          -0.623   8.434  -2.740  0.00  0.00     0.239 C 
ATOM     23  C12 <0> d          -0.557   9.963  -2.721  0.00  0.00     0.008 C 
ATOM     24  C13 <0> d           0.533  10.410  -1.743  0.00  0.00     0.011 C 
ATOM     25  C17 <0> d          -0.227  10.477  -4.124  0.00  0.00     0.011 C 
ATOM     26  C14 <0> d           0.226   9.842  -0.354  0.00  0.00     0.008 C 
ATOM     27  C15 <0> d           0.137   8.316  -0.442  0.00  0.00     0.239 C 
ATOM     28  C16 <0> d           1.342  10.234   0.616  0.00  0.00     0.011 C 
ATOM     29  H29 <0> d          -1.819   8.393  -1.069  0.00  0.00     0.280 HD
ENDBRANCH  20  21
ENDBRANCH  19  20
ENDBRANCH  16  19
TORSDOF 3
