REMARK  2 active torsions:
REMARK  status: ('A' for Active; 'I' for Inactive)
REMARK    1  A    between atoms: C5_5  and  C8_8 
REMARK    2  A    between atoms: N1_11  and  C11_15 
ROOT
ATOM      1  C8  <0> d           0.059  -4.275  -0.021  0.00  0.00     0.212 A 
ATOM      2  C9  <0> d           1.455  -4.792   0.266  0.00  0.00     0.255 A 
ATOM      3  O1  <0> d           2.457  -4.601  -0.390  0.00  0.00    -0.270 OA
ATOM      4  N1  <0> d           1.351  -5.508   1.403  0.00  0.00    -0.263 N 
ATOM      5  C10 <0> d           0.097  -5.515   1.869  0.00  0.00     0.326 A 
ATOM      6  O2  <0> d          -0.244  -6.094   2.882  0.00  0.00    -0.247 OA
ATOM      7  N2  <0> d          -0.747  -4.810   1.089  0.00  0.00    -0.325 N 
ATOM      8  H9  <0> d          -1.698  -4.679   1.230  0.00  0.00     0.165 HD
ENDROOT
BRANCH   4   9
ATOM      9  C11 <0> d           2.473  -6.194   2.049  0.00  0.00     0.101 C 
ATOM     10  C15 <0> d           2.666  -5.641   3.463  0.00  0.00     0.053 C 
ATOM     11  C14 <0> d           3.787  -6.416   4.160  0.00  0.00     0.234 C 
ATOM     12  N3  <0> d           3.430  -7.838   4.234  0.00  0.00    -0.075 N 
ATOM     13  C13 <0> d           3.314  -8.393   2.880  0.00  0.00     0.234 C 
ATOM     14  H15 <0> d           2.549  -7.938   4.715  0.00  0.00     0.277 HD
ATOM     15  H20 <0> d           4.146  -8.337   4.741  0.00  0.00     0.277 HD
ATOM     16  C12 <0> d           2.175  -7.694   2.135  0.00  0.00     0.053 C 
ENDBRANCH   4   9
BRANCH   1  17
ATOM     17  C5  <0> d           0.040  -2.768  -0.013  0.00  0.00    -0.026 A 
ATOM     18  C4  <0> d           0.025  -2.071  -1.206  0.00  0.00     0.010 A 
ATOM     19  C3  <0> d           0.006  -0.689  -1.199  0.00  0.00     0.007 A 
ATOM     20  C2  <0> d           0.002  -0.004   0.002  0.00  0.00    -0.062 A 
ATOM     21  C1  <0> d          -0.018   1.503   0.010  0.00  0.00     0.048 C 
ATOM     22  C7  <0> d           0.023  -0.702   1.195  0.00  0.00     0.007 A 
ATOM     23  C6  <0> d           0.037  -2.084   1.188  0.00  0.00     0.010 A 
ENDBRANCH   1  17
TORSDOF 2
