REMARK  4 active torsions:
REMARK  status: ('A' for Active; 'I' for Inactive)
REMARK    1  A    between atoms: C6_9  and  O3_23 
REMARK    2  A    between atoms: C8_12  and  C9_13 
REMARK    3  A    between atoms: C12_16  and  C15_19 
REMARK    4  A    between atoms: C15_19  and  O2_21 
ROOT
ATOM      1  C1  <0> d           0.467   1.746  -0.271  0.00  0.00     0.073 C 
ATOM      2  C2  <0> d           0.522   0.246  -0.138  0.00  0.00     0.062 A 
ATOM      3  C3  <0> d           0.210  -0.676  -1.153  0.00  0.00     0.034 A 
ATOM      4  C4  <0> d           0.380  -1.934  -0.639  0.00  0.00     0.158 A 
ATOM      5  N1  <0> d           0.797  -1.774   0.666  0.00  0.00    -0.256 N 
ATOM      6  N2  <0> d           0.873  -0.407   0.934  0.00  0.00    -0.176 NA
ATOM      7  C5  <0> d           1.112  -2.852   1.606  0.00  0.00     0.182 C 
ATOM      8  N3  <0> d           0.205  -3.154  -1.175  0.00  0.00    -0.208 NA
ATOM      9  C6  <0> d          -0.154  -3.618  -2.281  0.00  0.00     0.149 C 
ATOM     10  C7  <0> d          -0.496  -2.918  -3.537  0.00  0.00     0.161 C 
ATOM     11  S1  <0> d          -1.396  -1.384  -3.269  0.00  0.00    -0.146 SA
ATOM     12  C8  <0> d          -0.220  -0.249  -2.524  0.00  0.00     0.119 C 
ENDROOT
BRANCH  12  13
ATOM     13  C9  <0> d          -0.852   1.115  -2.432  0.00  0.00    -0.040 A 
ATOM     14  C14 <0> d          -0.214   2.209  -2.991  0.00  0.00     0.010 A 
ATOM     15  C13 <0> d          -0.790   3.460  -2.916  0.00  0.00     0.018 A 
ATOM     16  C12 <0> d          -2.014   3.623  -2.264  0.00  0.00     0.039 A 
ATOM     17  C11 <0> d          -2.650   2.517  -1.698  0.00  0.00     0.018 A 
ATOM     18  C10 <0> d          -2.066   1.270  -1.786  0.00  0.00     0.010 A 
BRANCH  16  19
ATOM     19  C15 <0> d          -2.635   4.961  -2.175  0.00  0.00     0.292 C 
ATOM     20  O1  <0> d          -3.700   5.100  -1.608  0.00  0.00    -0.259 OA
BRANCH  19  21
ATOM     21  O2  <0> d          -2.019   6.027  -2.722  0.00  0.00    -0.323 OA
ATOM     22  C16 <0> d          -2.675   7.290  -2.598  0.00  0.00     0.213 C 
ENDBRANCH  19  21
ENDBRANCH  16  19
ENDBRANCH  12  13
BRANCH   9  23
ATOM     23  O3  <0> d          -0.240  -4.963  -2.336  0.00  0.00    -0.347 OA
ATOM     24  H17 <0> d          -0.013  -5.405  -1.506  0.00  0.00     0.219 HD
ENDBRANCH   9  23
TORSDOF 4
