REMARK  4 active torsions:
REMARK  status: ('A' for Active; 'I' for Inactive)
REMARK    1  A    between atoms: N1_14  and  C18_23 
REMARK    2  A    between atoms: C11_15  and  C12_16 
REMARK    3  A    between atoms: C15_19  and  O4_22 
REMARK    4  A    between atoms: C18_23  and  C19_24 
ROOT
ATOM      1  C1  <0> d          -0.017   1.384   0.010  0.00  0.00     0.001 A 
ATOM      2  C2  <0> d           0.002  -0.004   0.002  0.00  0.00     0.003 A 
ATOM      3  C3  <0> d           1.195  -0.694  -0.013  0.00  0.00     0.038 A 
ATOM      4  C4  <0> d           2.399   0.005  -0.021  0.00  0.00     0.090 A 
ATOM      5  C5  <0> d           2.370   1.410  -0.013  0.00  0.00     0.049 A 
ATOM      6  C6  <0> d           1.154   2.091   0.002  0.00  0.00     0.018 A 
ATOM      7  C7  <0> d           3.657   2.132  -0.022  0.00  0.00     0.196 A 
ATOM      8  O1  <0> d           3.708   3.349  -0.016  0.00  0.00    -0.287 OA
ATOM      9  C8  <0> d           4.872   1.312  -0.039  0.00  0.00     0.060 A 
ATOM     10  C9  <0> d           4.773  -0.040  -0.045  0.00  0.00     0.156 A 
ATOM     11  O2  <0> d           3.572  -0.653  -0.036  0.00  0.00    -0.303 OA
ATOM     12  C10 <0> d           6.144  -0.609  -0.062  0.00  0.00     0.279 A 
ATOM     13  O3  <0> d           6.404  -1.796  -0.071  0.00  0.00    -0.265 OA
ATOM     14  N1  <0> d           7.056   0.378  -0.066  0.00  0.00    -0.329 N 
ATOM     15  C11 <0> d           6.338   1.658  -0.052  0.00  0.00     0.161 A 
ENDROOT
BRANCH  15  16
ATOM     16  C12 <0> d           6.671   2.456  -1.286  0.00  0.00    -0.030 A 
ATOM     17  C17 <0> d           6.822   3.828  -1.202  0.00  0.00     0.012 A 
ATOM     18  C16 <0> d           7.128   4.561  -2.331  0.00  0.00     0.037 A 
ATOM     19  C15 <0> d           7.284   3.921  -3.552  0.00  0.00     0.065 A 
ATOM     20  C14 <0> d           7.133   2.544  -3.634  0.00  0.00     0.037 A 
ATOM     21  C13 <0> d           6.832   1.814  -2.500  0.00  0.00     0.012 A 
BRANCH  19  22
ATOM     22  O4  <0> d           7.585   4.640  -4.665  0.00  0.00    -0.361 OA
ATOM     23  H10 <0> d           8.533   4.744  -4.822  0.00  0.00     0.217 HD
ENDBRANCH  19  22
ENDBRANCH  15  16
BRANCH  14  24
ATOM     24  C18 <0> d           8.511   0.206  -0.081  0.00  0.00     0.165 C 
BRANCH  24  25
ATOM     25  C19 <0> d           9.023   0.139   1.334  0.00  0.00    -0.037 A 
ATOM     26  C23 <0> d           9.125  -1.075   1.996  0.00  0.00     0.028 A 
ATOM     27  C22 <0> d           9.600  -1.098   3.293  0.00  0.00     0.116 A 
ATOM     28  N2  <0> d           9.953   0.018   3.902  0.00  0.00    -0.273 NA
ATOM     29  C21 <0> d           9.870   1.190   3.304  0.00  0.00     0.116 A 
ATOM     30  C20 <0> d           9.410   1.290   2.005  0.00  0.00     0.028 A 
ENDBRANCH  24  25
ENDBRANCH  14  24
TORSDOF 4
