REMARK  2 active torsions:
REMARK  status: ('A' for Active; 'I' for Inactive)
REMARK    1  A    between atoms: C2_3  and  N3_10 
REMARK    2  A    between atoms: C2_3  and  O5_14 
REMARK       I    between atoms: N3_10  and  C5_11 
REMARK       I    between atoms: C5_11  and  N4_13 
ROOT
ATOM      1  C1  <0> d          -2.529   0.327  -1.271  0.00  0.00     0.291 A 
ATOM      2  O1  <0> d          -2.482   0.877  -2.351  0.00  0.00    -0.267 OA
ATOM      3  C2  <0> d          -2.449   1.120   0.020  0.00  0.00     0.302 A 
ATOM      4  C3  <0> d          -2.516   0.313   1.303  0.00  0.00     0.291 A 
ATOM      5  O2  <0> d          -2.459   0.852   2.388  0.00  0.00    -0.267 OA
ATOM      6  N1  <0> d          -2.644  -1.023   1.198  0.00  0.00    -0.274 N 
ATOM      7  C4  <0> d          -2.706  -1.635   0.010  0.00  0.00     0.329 A 
ATOM      8  O3  <0> d          -2.819  -2.845   0.005  0.00  0.00    -0.247 OA
ATOM      9  N2  <0> d          -2.653  -1.013  -1.174  0.00  0.00    -0.274 N 
ATOM     10  H1  <0> d          -2.690  -1.557   2.006  0.00  0.00     0.173 HD
ATOM     11  H2  <0> d          -2.705  -1.542  -1.986  0.00  0.00     0.173 HD
ENDROOT
BRANCH   3  12
ATOM     12  N3  <0> d          -1.191   1.870   0.018  0.00  0.00    -0.295 N 
ATOM     13  C5  <0> d          -0.014   1.212   0.009  0.00  0.00     0.316 C 
ATOM     14  O4  <0> d           0.002  -0.004   0.002  0.00  0.00    -0.248 OA
ATOM     15  N4  <0> d           1.143   1.901   0.001  0.00  0.00    -0.352 N 
ATOM     16  H4  <0> d           1.990   1.428  -0.009  0.00  0.00     0.160 HD
ATOM     17  H5  <0> d           1.130   2.871   0.007  0.00  0.00     0.160 HD
ATOM     18  H3  <0> d          -1.204   2.840   0.023  0.00  0.00     0.168 HD
ENDBRANCH   3  12
BRANCH   3  19
ATOM     19  O5  <0> d          -3.524   2.062   0.030  0.00  0.00    -0.356 OA
ATOM     20  H6  <0> d          -3.525   2.649   0.798  0.00  0.00     0.213 HD
ENDBRANCH   3  19
TORSDOF 2
