REMARK  7 active torsions:
REMARK  status: ('A' for Active; 'I' for Inactive)
REMARK    1  A    between atoms: C2_2  and  C3_3 
REMARK    2  A    between atoms: C3_3  and  C4_4 
REMARK    3  A    between atoms: C4_4  and  N1_5 
REMARK    4  A    between atoms: C6_7  and  C9_11 
REMARK       I    between atoms: C9_11  and  N3_13 
REMARK    5  A    between atoms: N3_13  and  C10_14 
REMARK    6  A    between atoms: C10_14  and  C11_15 
REMARK    7  A    between atoms: C11_15  and  C12_16 
ROOT
ATOM      1  C9  <0> d           1.415  -3.382  -5.966  0.00  0.00     0.252 C 
ATOM      2  O1  <0> d           0.290  -3.217  -6.403  0.00  0.00    -0.268 OA
ATOM      3  N3  <0> d           2.394  -3.827  -6.777  0.00  0.00    -0.357 N 
ATOM      4  H15 <0> d           3.290  -3.958  -6.429  0.00  0.00     0.162 HD
ENDROOT
BRANCH   1   5
ATOM      5  C6  <0> d           1.692  -3.106  -4.609  0.00  0.00     0.068 A 
ATOM      6  C5  <0> d           0.822  -2.658  -3.678  0.00  0.00     0.129 A 
ATOM      7  N1  <0> d           1.425  -2.500  -2.470  0.00  0.00    -0.301 N 
ATOM      8 Cl1  <0> d          -0.854  -2.325  -3.985  0.00  0.00    -0.062 Cl
ATOM      9  N2  <0> d           2.748  -2.829  -2.519  0.00  0.00    -0.228 NA
ATOM     10  C7  <0> d           3.025  -3.254  -3.905  0.00  0.00     0.114 A 
ATOM     11  H11 <0> d           2.960  -3.570  -1.867  0.00  0.00     0.147 HD
ATOM     12  C8  <0> d           3.494  -4.710  -3.945  0.00  0.00     0.033 C 
BRANCH   7  13
ATOM     13  C4  <0> d           0.739  -2.027  -1.265  0.00  0.00     0.144 C 
BRANCH  13  14
ATOM     14  C3  <0> d           0.718  -0.497  -1.257  0.00  0.00     0.021 C 
BRANCH  14  15
ATOM     15  C2  <0> d           0.002  -0.004   0.002  0.00  0.00    -0.003 C 
ATOM     16  C1  <0> d          -0.019   1.526   0.010  0.00  0.00     0.005 C 
ENDBRANCH  14  15
ENDBRANCH  13  14
ENDBRANCH   7  13
ENDBRANCH   1   5
BRANCH   3  17
ATOM     17  C10 <0> d           2.106  -4.113  -8.185  0.00  0.00     0.127 C 
BRANCH  17  18
ATOM     18  C11 <0> d           3.381  -4.600  -8.878  0.00  0.00     0.056 C 
BRANCH  18  19
ATOM     19  C12 <0> d           3.084  -4.894 -10.326  0.00  0.00    -0.048 A 
ATOM     20  C19 <0> d           2.528  -6.179 -10.897  0.00  0.00     0.155 A 
ATOM     21  N4  <0> d           2.421  -5.963 -12.344  0.00  0.00    -0.385 N 
ATOM     22  C18 <0> d           2.847  -4.754 -12.619  0.00  0.00     0.038 A 
ATOM     23  H26 <0> d           2.092  -6.608 -12.990  0.00  0.00     0.160 HD
ATOM     24  C13 <0> d           3.268  -4.065 -11.378  0.00  0.00    -0.006 A 
ATOM     25  C17 <0> d           2.961  -4.046 -13.847  0.00  0.00     0.030 A 
ATOM     26  C14 <0> d           3.777  -2.693 -11.485  0.00  0.00     0.014 A 
ATOM     27  C15 <0> d           3.844  -2.111 -12.705  0.00  0.00     0.001 A 
ATOM     28  C16 <0> d           3.440  -2.785 -13.866  0.00  0.00     0.002 A 
ENDBRANCH  18  19
ENDBRANCH  17  18
ENDBRANCH   3  17
TORSDOF 7
