REMARK  6 active torsions:
REMARK  status: ('A' for Active; 'I' for Inactive)
REMARK    1  A    between atoms: N1_5  and  C5_7 
REMARK    2  A    between atoms: C12_22  and  C13_23 
REMARK    3  A    between atoms: C16_26  and  O3_34 
REMARK    4  A    between atoms: C17_27  and  O2_29 
REMARK    5  A    between atoms: O2_29  and  C19_30 
REMARK    6  A    between atoms: C19_30  and  C20_31 
ROOT
ATOM      1  C1  <0> d           0.183   1.498  -0.001  0.00  0.00     0.073 C 
ATOM      2  C2  <0> d           0.092  -0.006  -0.003  0.00  0.00     0.063 A 
ATOM      3  C3  <0> d          -0.076  -0.817  -1.147  0.00  0.00     0.032 A 
ATOM      4  C4  <0> d          -0.111  -2.104  -0.738  0.00  0.00     0.143 A 
ATOM      5  N1  <0> d           0.035  -2.096   0.633  0.00  0.00    -0.196 N 
ATOM      6  N2  <0> d           0.162  -0.770   1.049  0.00  0.00    -0.169 NA
ATOM      7  N7  <0> d          -0.260  -3.281  -1.429  0.00  0.00    -0.310 N 
ATOM      8  C10 <0> d          -0.367  -3.603  -2.684  0.00  0.00     0.232 C 
ATOM      9  O1  <0> d          -0.381  -4.795  -2.906  0.00  0.00    -0.272 OA
ATOM     10  C11 <0> d          -0.476  -2.745  -3.883  0.00  0.00     0.178 C 
ATOM     11  S1  <0> d           0.552  -1.273  -3.789  0.00  0.00    -0.145 SA
ATOM     12  C12 <0> d          -0.182  -0.236  -2.522  0.00  0.00     0.119 C 
ATOM     13  H8  <0> d          -0.293  -4.054  -0.844  0.00  0.00     0.170 HD
ENDROOT
BRANCH  12  14
ATOM     14  C13 <0> d           0.506   1.104  -2.535  0.00  0.00    -0.037 A 
ATOM     15  C18 <0> d          -0.209   2.243  -2.857  0.00  0.00     0.048 A 
ATOM     16  C17 <0> d           0.421   3.477  -2.865  0.00  0.00     0.102 A 
ATOM     17  C16 <0> d           1.776   3.565  -2.559  0.00  0.00     0.101 A 
ATOM     18  C15 <0> d           2.487   2.419  -2.242  0.00  0.00     0.040 A 
ATOM     19  C14 <0> d           1.852   1.192  -2.231  0.00  0.00     0.011 A 
BRANCH  16  20
ATOM     20  O2  <0> d          -0.281   4.599  -3.177  0.00  0.00    -0.348 OA
BRANCH  20  21
ATOM     21  C19 <0> d          -1.668   4.433  -3.480  0.00  0.00     0.179 C 
BRANCH  21  22
ATOM     22  C20 <0> d          -2.286   5.795  -3.803  0.00  0.00     0.002 C 
ATOM     23  C21 <0> d          -1.655   6.351  -5.082  0.00  0.00     0.011 C 
ATOM     24  C22 <0> d          -3.794   5.635  -4.006  0.00  0.00     0.011 C 
ENDBRANCH  21  22
ENDBRANCH  20  21
ENDBRANCH  16  20
BRANCH  17  25
ATOM     25  O3  <0> d           2.400   4.774  -2.570  0.00  0.00    -0.353 OA
ATOM     26  C23 <0> d           3.791   4.788  -2.244  0.00  0.00     0.210 C 
ENDBRANCH  17  25
ENDBRANCH  12  14
BRANCH   5  27
ATOM     27  C5  <0> d           0.056  -3.217   1.460  0.00  0.00     0.187 A 
ATOM     28  N6  <0> d           0.803  -4.271   1.154  0.00  0.00    -0.220 NA
ATOM     29  C9  <0> d           0.834  -5.337   1.934  0.00  0.00     0.237 A 
ATOM     30  N5  <0> d           0.127  -5.423   3.041  0.00  0.00    -0.222 NA
ATOM     31  C7  <0> d          -0.653  -4.420   3.425  0.00  0.00     0.162 A 
ATOM     32  C6  <0> d          -0.716  -3.260   2.631  0.00  0.00     0.151 A 
ATOM     33  N3  <0> d          -1.491  -4.195   4.488  0.00  0.00    -0.333 N 
ATOM     34  N4  <0> d          -1.572  -2.406   3.240  0.00  0.00    -0.236 NA
ATOM     35  C8  <0> d          -2.028  -2.952   4.330  0.00  0.00     0.209 A 
ATOM     36  H1  <0> d          -1.668  -4.808   5.219  0.00  0.00     0.168 HD
ENDBRANCH   5  27
TORSDOF 6
