REMARK  2 active torsions:
REMARK  status: ('A' for Active; 'I' for Inactive)
REMARK    1  A    between atoms: C3_3  and  N2_8 
REMARK    2  A    between atoms: C13_16  and  N3_17 
ROOT
ATOM      1  N2  <0> d           3.600   2.004  -0.022  0.00  0.00    -0.310 N 
ATOM      2  C6  <0> d           3.767   3.362  -0.010  0.00  0.00     0.099 A 
ATOM      3  C7  <0> d           5.092   3.625  -0.023  0.00  0.00     0.029 A 
ATOM      4  C8  <0> d           5.763   2.393  -0.044  0.00  0.00    -0.004 A 
ATOM      5  C9  <0> d           4.828   1.416  -0.036  0.00  0.00     0.026 A 
ATOM      6  C10 <0> d           5.147  -0.059  -0.045  0.00  0.00     0.058 C 
ATOM      7  C11 <0> d           6.616  -0.239   0.357  0.00  0.00     0.008 C 
ATOM      8  C12 <0> d           7.494   0.692  -0.485  0.00  0.00     0.038 C 
ATOM      9  C13 <0> d           7.250   2.146  -0.068  0.00  0.00     0.218 C 
ENDROOT
BRANCH   1  10
ATOM     10  C3  <0> d           2.374   1.332  -0.013  0.00  0.00     0.133 A 
ATOM     11  C2  <0> d           1.191   2.061   0.002  0.00  0.00     0.052 A 
ATOM     12  C1  <0> d          -0.017   1.384   0.010  0.00  0.00     0.024 A 
ATOM     13  C5  <0> d           0.002  -0.004   0.002  0.00  0.00     0.028 A 
ATOM     14  C4  <0> d           1.217  -0.663  -0.014  0.00  0.00     0.138 A 
ATOM     15 Br1  <0> d          -1.616  -0.982   0.013  0.00  0.00    -0.050 Br
ATOM     16  N1  <0> d           2.351   0.009  -0.021  0.00  0.00    -0.241 NA
ENDBRANCH   1  10
BRANCH   9  17
ATOM     17  N3  <0> d           7.888   3.059  -1.025  0.00  0.00    -0.071 N 
ATOM     18  H13 <0> d           7.711   4.014  -0.748  0.00  0.00     0.275 HD
ATOM     19  H14 <0> d           8.883   2.892  -1.038  0.00  0.00     0.275 HD
ATOM     20  H15 <0> d           7.508   2.901  -1.946  0.00  0.00     0.275 HD
ENDBRANCH   9  17
TORSDOF 2
