REMARK  6 active torsions:
REMARK  status: ('A' for Active; 'I' for Inactive)
REMARK    1  A    between atoms: C2_2  and  C3_3 
REMARK    2  A    between atoms: C2_2  and  N4_19 
REMARK    3  A    between atoms: C3_3  and  C4_4 
REMARK    4  A    between atoms: C3_3  and  S1_8 
REMARK    5  A    between atoms: S1_8  and  C5_9 
REMARK    6  A    between atoms: N3_15  and  C7_16 
ROOT
ATOM      1  C3  <0> d          -1.545  -0.506  -0.056  0.00  0.00     0.193 C 
ENDROOT
BRANCH   1   2
ATOM      2  C2  <0> d          -0.070  -0.100  -0.033  0.00  0.00     0.202 C 
ATOM      3  C1  <0> d           0.039   1.414   0.161  0.00  0.00     0.041 C 
BRANCH   2   4
ATOM      4  N4  <0> d           0.610  -0.785   1.075  0.00  0.00    -0.074 N 
ATOM      5  H12 <0> d           0.118  -0.601   1.936  0.00  0.00     0.274 HD
ATOM      6  H13 <0> d           0.620  -1.779   0.899  0.00  0.00     0.274 HD
ATOM      7  H14 <0> d           1.557  -0.447   1.149  0.00  0.00     0.274 HD
ENDBRANCH   2   4
ENDBRANCH   1   2
BRANCH   1   8
ATOM      8  C4  <0> d          -1.654  -2.020  -0.253  0.00  0.00     0.402 C 
ATOM      9  F1  <0> d          -1.125  -2.674   0.865  0.00  0.00    -0.170 F 
ATOM     10  F2  <0> d          -2.998  -2.374  -0.408  0.00  0.00    -0.170 F 
ATOM     11  F3  <0> d          -0.937  -2.394  -1.395  0.00  0.00    -0.170 F 
ENDBRANCH   1   8
BRANCH   1  12
ATOM     12  S1  <0> d          -2.385   0.343  -1.421  0.00  0.00    -0.074 SA
BRANCH  12  13
ATOM     13  C5  <0> d          -4.077  -0.106  -1.226  0.00  0.00     0.193 A 
ATOM     14  N3  <0> d          -5.114   0.300  -2.035  0.00  0.00    -0.271 N 
ATOM     15  C6  <0> d          -6.254  -0.250  -1.571  0.00  0.00     0.345 A 
ATOM     16  N2  <0> d          -5.940  -0.982  -0.483  0.00  0.00    -0.226 N 
ATOM     17  O1  <0> d          -7.367  -0.108  -2.046  0.00  0.00    -0.245 OA
ATOM     18  N1  <0> d          -4.556  -0.872  -0.288  0.00  0.00    -0.145 NA
ATOM     19  H3  <0> d          -6.558  -1.491   0.065  0.00  0.00     0.194 HD
BRANCH  14  20
ATOM     20  C7  <0> d          -4.998   1.177  -3.203  0.00  0.00     0.097 A 
ATOM     21  C9  <0> d          -5.442   0.615  -4.555  0.00  0.00     0.028 A 
ATOM     22  C8  <0> d          -6.295   1.670  -3.847  0.00  0.00     0.028 A 
ENDBRANCH  14  20
ENDBRANCH  12  13
ENDBRANCH   1  12
TORSDOF 6
