REMARK  5 active torsions:
REMARK  status: ('A' for Active; 'I' for Inactive)
REMARK    1  A    between atoms: C2_2  and  C7_12 
REMARK    2  A    between atoms: C3_4  and  N2_6 
REMARK    3  A    between atoms: C7_12  and  C8_13 
REMARK       I    between atoms: C8_13  and  N4_15 
REMARK    4  A    between atoms: N4_15  and  C9_16 
REMARK    5  A    between atoms: C9_16  and  C10_17 
ROOT
ATOM      1  C1  <0> d           0.567   0.707   4.879  0.00  0.00     0.081 A 
ATOM      2  C2  <0> d          -0.556   1.462   4.795  0.00  0.00     0.052 A 
ATOM      3  N1  <0> d          -1.016   1.774   3.599  0.00  0.00    -0.228 NA
ATOM      4  C3  <0> d          -0.410   1.358   2.504  0.00  0.00     0.177 A 
ATOM      5  S1  <0> d           0.930   0.459   3.147  0.00  0.00    -0.062 SA
ENDROOT
BRANCH   2   6
ATOM      6  C7  <0> d          -1.259   1.937   6.040  0.00  0.00     0.162 C 
BRANCH   6   7
ATOM      7  C8  <0> d          -1.403   3.437   5.994  0.00  0.00     0.223 C 
ATOM      8  O2  <0> d          -0.977   4.058   5.043  0.00  0.00    -0.273 OA
ATOM      9  N4  <0> d          -2.006   4.088   7.008  0.00  0.00    -0.352 N 
ATOM     10  H9  <0> d          -2.393   3.524   7.871  0.00  0.00     0.162 HD
BRANCH   9  11
ATOM     11  C9  <0> d          -2.146   5.545   6.963  0.00  0.00     0.239 C 
BRANCH  11  12
ATOM     12  C10 <0> d          -2.860   6.028   8.227  0.00  0.00     0.403 C 
ATOM     13  F1  <0> d          -2.112   5.667   9.352  0.00  0.00    -0.169 F 
ATOM     14  F2  <0> d          -2.994   7.420   8.184  0.00  0.00    -0.169 F 
ATOM     15  F3  <0> d          -4.127   5.440   8.301  0.00  0.00    -0.169 F 
ENDBRANCH  11  12
ENDBRANCH   9  11
ENDBRANCH   6   7
ENDBRANCH   2   6
BRANCH   4  16
ATOM     16  N2  <0> d          -0.752   1.586   1.177  0.00  0.00    -0.277 N 
ATOM     17  C6  <0> d          -1.811   2.295   0.753  0.00  0.00     0.324 A 
ATOM     18  N3  <0> d          -1.919   2.368  -0.580  0.00  0.00    -0.341 N 
ATOM     19  O1  <0> d          -2.599   2.825   1.512  0.00  0.00    -0.247 OA
ATOM     20  C5  <0> d          -0.811   1.623  -1.196  0.00  0.00     0.145 A 
ATOM     21  H6  <0> d          -2.665   2.869  -1.214  0.00  0.00     0.164 HD
ATOM     22  C4  <0> d          -0.013   1.086   0.008  0.00  0.00     0.155 A 
ENDBRANCH   4  16
TORSDOF 5
