REMARK  5 active torsions:
REMARK  status: ('A' for Active; 'I' for Inactive)
REMARK    1  A    between atoms: C2_2  and  C4_4 
REMARK    2  A    between atoms: C4_4  and  C5_5 
REMARK    3  A    between atoms: C5_5  and  C6_6 
REMARK    4  A    between atoms: C5_5  and  N2_10 
REMARK       I    between atoms: C6_6  and  N1_8 
REMARK       I    between atoms: N2_10  and  C8_11 
REMARK    5  A    between atoms: C8_11  and  C9_13 
ROOT
ATOM      1  N2  <0> d          -1.486  -0.796  -2.418  0.00  0.00    -0.346 N 
ATOM      2  C8  <0> d          -0.396  -0.244  -2.988  0.00  0.00     0.250 C 
ATOM      3  O2  <0> d           0.047   0.802  -2.563  0.00  0.00    -0.271 OA
ATOM      4  H16 <0> d          -1.840  -1.632  -2.758  0.00  0.00     0.163 HD
ENDROOT
BRANCH   1   5
ATOM      5  C5  <0> d          -2.135  -0.131  -1.286  0.00  0.00     0.177 C 
BRANCH   5   6
ATOM      6  C4  <0> d          -1.433  -0.534   0.013  0.00  0.00     0.038 C 
BRANCH   6   7
ATOM      7  C2  <0> d           0.002  -0.004   0.002  0.00  0.00    -0.020 C 
ATOM      8  C1  <0> d          -0.019   1.526   0.010  0.00  0.00     0.009 C 
ATOM      9  C3  <0> d           0.742  -0.511   1.242  0.00  0.00     0.009 C 
ENDBRANCH   6   7
ENDBRANCH   5   6
BRANCH   5  10
ATOM     10  C6  <0> d          -3.583  -0.545  -1.223  0.00  0.00     0.240 C 
ATOM     11  O1  <0> d          -4.028  -1.319  -2.044  0.00  0.00    -0.271 OA
ATOM     12  N1  <0> d          -4.383  -0.056  -0.256  0.00  0.00    -0.364 N 
ATOM     13  C7  <0> d          -5.790  -0.458  -0.195  0.00  0.00     0.149 C 
ATOM     14  H12 <0> d          -4.027   0.564   0.401  0.00  0.00     0.161 HD
ENDBRANCH   5  10
ENDBRANCH   1   5
BRANCH   2  15
ATOM     15  C9  <0> d           0.273  -0.928  -4.153  0.00  0.00     0.287 C 
ATOM     16  N3  <0> d           1.442  -0.148  -4.564  0.00  0.00    -0.053 N 
ATOM     17  C11 <0> d           1.825  -0.258  -5.987  0.00  0.00     0.307 C 
ATOM     18  H21 <0> d           1.259   0.823  -4.360  0.00  0.00     0.279 HD
ATOM     19  H22 <0> d           2.228  -0.442  -4.004  0.00  0.00     0.279 HD
ATOM     20  S1  <0> d           0.462  -1.264  -6.711  0.00  0.00    -0.139 SA
ATOM     21  C10 <0> d          -0.744  -1.055  -5.325  0.00  0.00     0.118 C 
ENDBRANCH   2  15
TORSDOF 5
