REMARK  6 active torsions:
REMARK  status: ('A' for Active; 'I' for Inactive)
REMARK    1  A    between atoms: C6_6  and  C7_7 
REMARK    2  A    between atoms: C7_7  and  N1_8 
REMARK    3  A    between atoms: C8_9  and  C9_13 
REMARK    4  A    between atoms: C9_13  and  N5_29 
REMARK    5  A    between atoms: C12_16  and  C15_19 
REMARK    6  A    between atoms: C12_16  and  O1_26 
ROOT
ATOM      1  C10 <0> d          -0.754   1.594  -1.231  0.00  0.00     0.238 C 
ATOM      2  C11 <0> d          -0.013   1.086   0.008  0.00  0.00     0.071 C 
ATOM      3  C12 <0> d          -0.731   1.580   1.267  0.00  0.00     0.088 C 
ATOM      4  C13 <0> d          -0.801   3.110   1.237  0.00  0.00     0.071 C 
ATOM      5  C14 <0> d          -1.520   3.559  -0.037  0.00  0.00     0.238 C 
ATOM      6  N5  <0> d          -0.765   3.072  -1.211  0.00  0.00    -0.064 N 
ATOM      7  H22 <0> d           0.202   3.411  -1.149  0.00  0.00     0.280 HD
ENDROOT
BRANCH   6   8
ATOM      8  C9  <0> d          -1.375   3.588  -2.454  0.00  0.00     0.316 C 
BRANCH   8   9
ATOM      9  C8  <0> d          -1.176   5.081  -2.508  0.00  0.00     0.174 A 
ATOM     10  N1  <0> d          -0.126   5.733  -3.040  0.00  0.00    -0.229 N 
ATOM     11  N4  <0> d          -0.343   6.995  -2.883  0.00  0.00    -0.044 NA
ATOM     12  N3  <0> d          -1.471   7.151  -2.282  0.00  0.00    -0.023 NA
ATOM     13  N2  <0> d          -1.995   5.997  -2.050  0.00  0.00    -0.112 NA
BRANCH  10  14
ATOM     14  C7  <0> d           1.044   5.124  -3.678  0.00  0.00     0.193 C 
BRANCH  14  15
ATOM     15  C6  <0> d           0.781   4.957  -5.153  0.00  0.00    -0.038 A 
ATOM     16  C1  <0> d           0.211   3.790  -5.625  0.00  0.00     0.012 A 
ATOM     17  C2  <0> d          -0.034   3.637  -6.977  0.00  0.00     0.043 A 
ATOM     18  C3  <0> d           0.302   4.650  -7.859  0.00  0.00     0.116 A 
ATOM     19  C4  <0> d           0.877   5.817  -7.386  0.00  0.00     0.043 A 
ATOM     20  F2  <0> d           0.067   4.501  -9.181  0.00  0.00    -0.206 F 
ATOM     21  C5  <0> d           1.117   5.969  -6.033  0.00  0.00     0.012 A 
ENDBRANCH  14  15
ENDBRANCH  10  14
ENDBRANCH   8   9
ENDBRANCH   6   8
BRANCH   3  22
ATOM     22  C15 <0> d           0.029   1.134   2.489  0.00  0.00    -0.024 A 
ATOM     23  C20 <0> d          -0.645   0.888   3.670  0.00  0.00     0.013 A 
ATOM     24  C19 <0> d           0.051   0.478   4.792  0.00  0.00     0.043 A 
ATOM     25  C18 <0> d           1.424   0.314   4.731  0.00  0.00     0.116 A 
ATOM     26  C17 <0> d           2.099   0.560   3.547  0.00  0.00     0.043 A 
ATOM     27  F1  <0> d           2.106  -0.087   5.827  0.00  0.00    -0.206 F 
ATOM     28  C16 <0> d           1.400   0.964   2.426  0.00  0.00     0.013 A 
ENDBRANCH   3  22
BRANCH   3  29
ATOM     29  O1  <0> d          -2.055   1.043   1.303  0.00  0.00    -0.385 OA
ATOM     30  H21 <0> d          -2.568   1.316   2.076  0.00  0.00     0.211 HD
ENDBRANCH   3  29
TORSDOF 6
