REMARK  5 active torsions:
REMARK  status: ('A' for Active; 'I' for Inactive)
REMARK    1  A    between atoms: C3_3  and  N1_9 
REMARK       I    between atoms: N1_9  and  C7_10 
REMARK    2  A    between atoms: C7_10  and  C8_12 
REMARK    3  A    between atoms: C11_15  and  C12_17 
REMARK    4  A    between atoms: C13_18  and  C14_19 
REMARK    5  A    between atoms: C14_19  and  N2_20 
ROOT
ATOM      1  C8  <0> d           4.825   4.213  -0.235  0.00  0.00     0.074 A 
ATOM      2  C9  <0> d           5.023   5.583  -0.337  0.00  0.00     0.026 A 
ATOM      3  C10 <0> d           6.300   6.056  -0.438  0.00  0.00     0.029 A 
ATOM      4  C11 <0> d           7.350   5.147  -0.435  0.00  0.00     0.059 A 
ATOM      5  S1  <0> d           6.496   3.587  -0.278  0.00  0.00    -0.076 SA
ENDROOT
BRANCH   1   6
ATOM      6  C7  <0> d           3.567   3.472  -0.116  0.00  0.00     0.263 C 
ATOM      7  N1  <0> d           3.584   2.128  -0.021  0.00  0.00    -0.321 N 
ATOM      8  H4  <0> d           4.429   1.657   0.049  0.00  0.00     0.169 HD
ATOM      9  O1  <0> d           2.507   4.070  -0.103  0.00  0.00    -0.267 OA
BRANCH   7  10
ATOM     10  C3  <0> d           2.382   1.411  -0.024  0.00  0.00     0.057 A 
ATOM     11  C2  <0> d           1.250   1.953  -0.619  0.00  0.00     0.034 A 
ATOM     12  C1  <0> d           0.065   1.244  -0.621  0.00  0.00     0.044 A 
ATOM     13  C6  <0> d           0.004  -0.007  -0.031  0.00  0.00     0.118 A 
ATOM     14  C5  <0> d           1.130  -0.551   0.563  0.00  0.00     0.068 A 
ATOM     15  F1  <0> d          -1.157  -0.698  -0.034  0.00  0.00    -0.206 F 
ATOM     16  C4  <0> d           2.318   0.155   0.568  0.00  0.00     0.063 A 
ATOM     17 Cl1  <0> d           3.731  -0.527   1.312  0.00  0.00    -0.082 Cl
ENDBRANCH   7  10
ENDBRANCH   1   6
BRANCH   4  18
ATOM     18  C12 <0> d           8.757   5.397  -0.529  0.00  0.00    -0.058 C 
ATOM     19  C13 <0> d           9.910   5.602  -0.605  0.00  0.00    -0.073 C 
BRANCH  19  20
ATOM     20  C14 <0> d          11.356   5.859  -0.702  0.00  0.00     0.323 C 
BRANCH  20  21
ATOM     21  N2  <0> d          12.084   4.584  -0.656  0.00  0.00    -0.069 N 
ATOM     22  H9  <0> d          11.884   4.113   0.213  0.00  0.00     0.275 HD
ATOM     23  H10 <0> d          11.794   4.004  -1.429  0.00  0.00     0.275 HD
ATOM     24  H11 <0> d          13.076   4.761  -0.722  0.00  0.00     0.275 HD
ENDBRANCH  20  21
ENDBRANCH  19  20
ENDBRANCH   4  18
TORSDOF 5
