REMARK  3 active torsions:
REMARK  status: ('A' for Active; 'I' for Inactive)
REMARK    1  A    between atoms: C3_4  and  C5_7 
REMARK    2  A    between atoms: C5_7  and  N2_8 
REMARK       I    between atoms: N2_8  and  C6_9 
REMARK    3  A    between atoms: C6_9  and  C7_11 
ROOT
ATOM      1  N2  <0> d          -2.447  -3.317   1.371  0.00  0.00    -0.351 N 
ATOM      2  C6  <0> d          -3.484  -4.141   1.617  0.00  0.00     0.254 C 
ATOM      3  O1  <0> d          -4.048  -4.700   0.696  0.00  0.00    -0.268 OA
ATOM      4  H8  <0> d          -1.997  -2.871   2.106  0.00  0.00     0.163 HD
ENDROOT
BRANCH   1   5
ATOM      5  C5  <0> d          -1.999  -3.093  -0.006  0.00  0.00     0.182 C 
BRANCH   5   6
ATOM      6  C3  <0> d          -0.834  -2.137  -0.006  0.00  0.00     0.059 A 
ATOM      7  N1  <0> d          -1.013  -0.832   0.002  0.00  0.00    -0.249 NA
ATOM      8  C2  <0> d           0.002  -0.004   0.002  0.00  0.00     0.071 A 
ATOM      9  C1  <0> d          -0.018   1.503   0.010  0.00  0.00     0.078 C 
ATOM     10  S1  <0> d           1.335  -1.032  -0.017  0.00  0.00    -0.085 SA
ATOM     11  C4  <0> d           0.449  -2.582  -0.014  0.00  0.00     0.080 A 
ENDBRANCH   5   6
ENDBRANCH   1   5
BRANCH   2  12
ATOM     12  C7  <0> d          -3.934  -4.366   3.003  0.00  0.00     0.068 A 
ATOM     13  C9  <0> d          -3.381  -3.791   4.168  0.00  0.00     0.157 A 
ATOM     14  N4  <0> d          -4.055  -4.231   5.195  0.00  0.00    -0.187 NA
ATOM     15  N3  <0> d          -5.051  -5.104   4.742  0.00  0.00    -0.289 N 
ATOM     16  C8  <0> d          -4.973  -5.183   3.404  0.00  0.00     0.127 A 
ATOM     17  H1  <0> d          -5.689  -5.574   5.301  0.00  0.00     0.188 HD
ENDBRANCH   2  12
TORSDOF 3
