REMARK  6 active torsions:
REMARK  status: ('A' for Active; 'I' for Inactive)
REMARK    1  A    between atoms: C7_7  and  O3_17 
REMARK    2  A    between atoms: C10_10  and  C11_11 
REMARK    3  A    between atoms: C17_20  and  O5_35 
REMARK    4  A    between atoms: C18_21  and  C23_27 
REMARK    5  A    between atoms: C21_24  and  O4_26 
REMARK    6  A    between atoms: N1_28  and  C24_29 
ROOT
ATOM      1  C1  <0> d          -0.064   1.424  -0.037  0.00  0.00     0.019 C 
ATOM      2  C2  <0> d          -0.067  -0.105   0.005  0.00  0.00    -0.005 C 
ATOM      3  C3  <0> d           0.515  -0.709  -1.276  0.00  0.00     0.013 C 
ATOM      4  C4  <0> d           2.025  -0.497  -1.336  0.00  0.00     0.007 C 
ATOM      5  C5  <0> d           2.669  -1.229  -0.154  0.00  0.00     0.009 C 
ATOM      6  C6  <0> d           2.164  -0.596   1.141  0.00  0.00     0.026 C 
ATOM      7  C7  <0> d           0.669  -0.646   1.243  0.00  0.00     0.070 C 
ATOM      8  C8  <0> d           0.142  -2.087   1.375  0.00  0.00     0.040 C 
ATOM      9  C9  <0> d          -1.358  -1.955   1.022  0.00  0.00     0.013 C 
ATOM     10  C10 <0> d          -1.499  -0.679   0.171  0.00  0.00     0.028 C 
ATOM     11  C15 <0> d           2.811  -1.294   2.339  0.00  0.00     0.011 C 
ATOM     12  C16 <0> d           4.331  -1.144   2.257  0.00  0.00     0.039 C 
ATOM     13  C17 <0> d           4.838  -1.778   0.960  0.00  0.00     0.073 C 
ATOM     14  C18 <0> d           4.191  -1.095  -0.246  0.00  0.00     0.026 C 
ATOM     15  C19 <0> d           4.683  -1.740  -1.543  0.00  0.00     0.021 C 
ATOM     16  C20 <0> d           4.306  -3.223  -1.551  0.00  0.00     0.033 C 
ATOM     17  C21 <0> d           4.956  -3.921  -0.355  0.00  0.00     0.121 C 
ATOM     18  C22 <0> d           4.475  -3.264   0.942  0.00  0.00     0.070 C 
ENDROOT
BRANCH  14  19
ATOM     19  C23 <0> d           4.567   0.364  -0.240  0.00  0.00     0.069 C 
ATOM     20  N1  <0> d           5.116   0.888  -1.270  0.00  0.00    -0.397 N 
ATOM     21  H44 <0> d           5.221   0.367  -2.081  0.00  0.00     0.159 HD
BRANCH  20  22
ATOM     22  C24 <0> d           5.585   2.275  -1.224  0.00  0.00     0.080 C 
ATOM     23  C29 <0> d           7.091   2.313  -1.496  0.00  0.00     0.025 C 
ATOM     24  C28 <0> d           7.581   3.762  -1.448  0.00  0.00     0.002 C 
ATOM     25  C27 <0> d           6.850   4.583  -2.512  0.00  0.00     0.000 C 
ATOM     26  C26 <0> d           5.345   4.545  -2.240  0.00  0.00     0.002 C 
ATOM     27  C25 <0> d           4.854   3.097  -2.288  0.00  0.00     0.025 C 
ENDBRANCH  20  22
ENDBRANCH  14  19
BRANCH  13  28
ATOM     28  O5  <0> d           6.257  -1.635   0.882  0.00  0.00    -0.389 OA
ATOM     29  H43 <0> d           6.736  -2.054   1.611  0.00  0.00     0.210 HD
ENDBRANCH  13  28
BRANCH   7  30
ATOM     30  O3  <0> d           0.255   0.094   2.393  0.00  0.00    -0.389 OA
ATOM     31  H19 <0> d           0.677  -0.189   3.216  0.00  0.00     0.210 HD
ENDBRANCH   7  30
BRANCH  17  32
ATOM     32  O4  <0> d           4.604  -5.306  -0.362  0.00  0.00    -0.395 OA
ATOM     33  H30 <0> d           4.886  -5.779  -1.157  0.00  0.00     0.210 HD
ENDBRANCH  17  32
BRANCH  10  34
ATOM     34  C11 <0> d          -2.081  -1.018  -1.177  0.00  0.00    -0.045 A 
ATOM     35  C14 <0> d          -2.642  -0.044  -2.186  0.00  0.00     0.213 A 
ATOM     36  O2  <0> d          -3.071  -0.826  -3.306  0.00  0.00    -0.314 OA
ATOM     37  C13 <0> d          -2.821  -2.119  -3.030  0.00  0.00     0.283 A 
ATOM     38  C12 <0> d          -2.205  -2.234  -1.705  0.00  0.00     0.087 A 
ATOM     39  O1  <0> d          -3.068  -3.052  -3.769  0.00  0.00    -0.260 OA
ENDBRANCH  10  34
TORSDOF 6
