REMARK  5 active torsions:
REMARK  status: ('A' for Active; 'I' for Inactive)
REMARK    1  A    between atoms: C2_2  and  O1_3 
REMARK    2  A    between atoms: O1_3  and  C3_4 
REMARK    3  A    between atoms: C8_9  and  N1_10 
REMARK       I    between atoms: N1_10  and  C9_11 
REMARK    4  A    between atoms: C9_11  and  C10_13 
REMARK       I    between atoms: C10_13  and  N2_15 
REMARK    5  A    between atoms: N2_15  and  C11_16 
ROOT
ATOM      1  C10 <0> d           3.235  -0.611   5.849  0.00  0.00     0.310 C 
ATOM      2  O3  <0> d           3.245   0.597   5.728  0.00  0.00    -0.262 OA
ATOM      3  N2  <0> d           3.781  -1.183   6.941  0.00  0.00    -0.348 N 
ATOM      4  H11 <0> d           3.773  -2.148   7.037  0.00  0.00     0.163 HD
ENDROOT
BRANCH   1   5
ATOM      5  C9  <0> d           2.617  -1.462   4.790  0.00  0.00     0.314 C 
ATOM      6  N1  <0> d           2.071  -0.890   3.699  0.00  0.00    -0.317 N 
ATOM      7  H10 <0> d           2.132   0.070   3.572  0.00  0.00     0.169 HD
ATOM      8  O2  <0> d           2.607  -2.670   4.911  0.00  0.00    -0.262 OA
BRANCH   6   9
ATOM      9  C8  <0> d           1.415  -1.680   2.749  0.00  0.00     0.068 A 
ATOM     10  C3  <0> d           0.398  -1.133   1.967  0.00  0.00     0.095 A 
ATOM     11  C4  <0> d          -0.244  -1.920   1.024  0.00  0.00     0.039 A 
ATOM     12  C5  <0> d           0.120  -3.244   0.864  0.00  0.00     0.003 A 
ATOM     13  C6  <0> d           1.125  -3.788   1.642  0.00  0.00     0.002 A 
ATOM     14  C7  <0> d           1.771  -3.011   2.585  0.00  0.00     0.032 A 
BRANCH  10  15
ATOM     15  O1  <0> d           0.042   0.169   2.126  0.00  0.00    -0.349 OA
BRANCH  15  16
ATOM     16  C2  <0> d          -1.009   0.660   1.291  0.00  0.00     0.171 C 
ATOM     17  C1  <0> d          -1.268   2.134   1.611  0.00  0.00     0.034 C 
ENDBRANCH  15  16
ENDBRANCH  10  15
ENDBRANCH   6   9
ENDBRANCH   1   5
BRANCH   3  18
ATOM     18  C11 <0> d           4.389  -0.345   7.983  0.00  0.00     0.089 C 
ATOM     19  C15 <0> d           4.360  -1.097   9.313  0.00  0.00     0.063 C 
ATOM     20  C14 <0> d           5.041  -0.283  10.409  0.00  0.00     0.121 C 
ATOM     21  N3  <0> d           6.355   0.207  10.026  0.00  0.00    -0.059 N 
ATOM     22  C16 <0> d           4.122   0.854  10.863  0.00  0.00     0.046 C 
ATOM     23  C17 <0> d           5.231  -1.221  11.625  0.00  0.00     0.046 C 
ATOM     24  C13 <0> d           6.499   0.791   8.701  0.00  0.00     0.121 C 
ATOM     25  H15 <0> d           7.023  -0.563  10.111  0.00  0.00     0.279 HD
ATOM     26  H30 <0> d           6.655   0.900  10.716  0.00  0.00     0.279 HD
ATOM     27  C12 <0> d           5.849  -0.070   7.618  0.00  0.00     0.063 C 
ATOM     28  C18 <0> d           5.956   2.218   8.638  0.00  0.00     0.046 C 
ATOM     29  C19 <0> d           8.011   0.861   8.383  0.00  0.00     0.046 C 
ENDBRANCH   3  18
TORSDOF 5
