REMARK  5 active torsions:
REMARK  status: ('A' for Active; 'I' for Inactive)
REMARK    1  A    between atoms: C7_7  and  C8_11 
REMARK       I    between atoms: C8_11  and  N3_13 
REMARK    2  A    between atoms: N3_13  and  C9_14 
REMARK    3  A    between atoms: C9_14  and  C10_15 
REMARK    4  A    between atoms: C10_15  and  C11_16 
REMARK    5  A    between atoms: C10_15  and  N4_21 
ROOT
ATOM      1  C8  <0> d          -4.237   3.839  -0.705  0.00  0.00     0.273 C 
ATOM      2  O1  <0> d          -3.763   4.937  -0.923  0.00  0.00    -0.266 OA
ATOM      3  N3  <0> d          -5.539   3.719  -0.379  0.00  0.00    -0.353 N 
ATOM      4  H8  <0> d          -5.917   2.843  -0.205  0.00  0.00     0.162 HD
ENDROOT
BRANCH   3   5
ATOM      5  C9  <0> d          -6.384   4.912  -0.288  0.00  0.00     0.160 C 
BRANCH   5   6
ATOM      6  C10 <0> d          -7.832   4.493  -0.024  0.00  0.00     0.255 C 
BRANCH   6   7
ATOM      7  C11 <0> d          -8.729   5.732  -0.022  0.00  0.00     0.090 C 
ATOM      8  S1  <0> d         -10.459   5.312   0.453  0.00  0.00    -0.134 SA
ATOM      9  C14 <0> d         -10.792   6.714   1.506  0.00  0.00     0.041 C 
ATOM     10  C13 <0> d          -9.622   7.277   1.739  0.00  0.00    -0.019 C 
ATOM     11  C12 <0> d          -8.382   6.684   1.153  0.00  0.00     0.045 C 
ENDBRANCH   6   7
BRANCH   6  12
ATOM     12  N4  <0> d          -8.274   3.570  -1.078  0.00  0.00     0.100 N 
ATOM     13  C18 <0> d          -9.469   2.824  -0.658  0.00  0.00     0.299 C 
ATOM     14  C17 <0> d          -9.860   1.834  -1.758  0.00  0.00     0.198 C 
ATOM     15  O2  <0> d         -10.068   2.546  -2.981  0.00  0.00    -0.388 OA
ATOM     16  C16 <0> d          -8.924   3.283  -3.420  0.00  0.00     0.198 C 
ATOM     17  C15 <0> d          -8.524   4.288  -2.336  0.00  0.00     0.299 C 
ENDBRANCH   6  12
ENDBRANCH   5   6
ENDBRANCH   3   5
BRANCH   1  18
ATOM     18  C7  <0> d          -3.386   2.638  -0.796  0.00  0.00     0.157 A 
ATOM     19  C5  <0> d          -1.958   2.595  -1.137  0.00  0.00     0.028 A 
ATOM     20  C4  <0> d          -1.628   1.226  -1.086  0.00  0.00     0.062 A 
ATOM     21  C6  <0> d          -0.985   3.537  -1.456  0.00  0.00     0.016 A 
ATOM     22  C3  <0> d          -0.324   0.831  -1.364  0.00  0.00     0.032 A 
ATOM     23  N2  <0> d          -2.782   0.571  -0.745  0.00  0.00    -0.277 N 
ATOM     24  C2  <0> d           0.623   1.779  -1.683  0.00  0.00     0.002 A 
ATOM     25  C1  <0> d           0.290   3.127  -1.731  0.00  0.00     0.001 A 
ATOM     26  N1  <0> d          -3.756   1.393  -0.589  0.00  0.00    -0.168 NA
ATOM     27  H1  <0> d          -2.854  -0.391  -0.637  0.00  0.00     0.189 HD
ENDBRANCH   1  18
TORSDOF 5
