REMARK  7 active torsions:
REMARK  status: ('A' for Active; 'I' for Inactive)
REMARK    1  A    between atoms: N2_4  and  C4_6 
REMARK    2  A    between atoms: C7_9  and  N3_12 
REMARK    3  A    between atoms: N3_12  and  C10_13 
REMARK    4  A    between atoms: N4_15  and  C11_16 
REMARK    5  A    between atoms: C11_16  and  C12_17 
REMARK    6  A    between atoms: C18_23  and  C19_24 
REMARK    7  A    between atoms: C19_24  and  N6_34 
ROOT
ATOM      1  C11 <0> d          -1.711  -4.133  -0.121  0.00  0.00     0.155 C 
ENDROOT
BRANCH   1   2
ATOM      2  N4  <0> d          -1.524  -2.696   0.089  0.00  0.00    -0.365 N 
ATOM      3  C10 <0> d          -0.293  -2.205   0.333  0.00  0.00     0.172 C 
ATOM      4  S1  <0> d           1.053  -3.261   0.396  0.00  0.00    -0.041 SA
ATOM      5  H12 <0> d          -2.287  -2.097   0.054  0.00  0.00     0.161 HD
BRANCH   3   6
ATOM      6  N3  <0> d          -0.121  -0.882   0.527  0.00  0.00    -0.333 N 
ATOM      7  H11 <0> d          -0.892  -0.294   0.572  0.00  0.00     0.168 HD
BRANCH   6   8
ATOM      8  C7  <0> d           1.169  -0.356   0.662  0.00  0.00     0.034 A 
ATOM      9  C6  <0> d           1.424   0.620   1.617  0.00  0.00     0.032 A 
ATOM     10  C5  <0> d           2.697   1.138   1.750  0.00  0.00     0.034 A 
ATOM     11  C4  <0> d           3.721   0.684   0.930  0.00  0.00     0.058 A 
ATOM     12  C9  <0> d           3.466  -0.292  -0.024  0.00  0.00     0.034 A 
ATOM     13  C8  <0> d           2.193  -0.811  -0.158  0.00  0.00     0.032 A 
BRANCH  11  14
ATOM     14  N2  <0> d           5.014   1.211   1.066  0.00  0.00    -0.245 N 
ATOM     15  N1  <0> d           6.137   0.843   0.314  0.00  0.00    -0.180 NA
ATOM     16  C2  <0> d           7.156   1.554   0.726  0.00  0.00     0.140 A 
ATOM     17  C1  <0> d           6.718   2.389   1.759  0.00  0.00     0.040 A 
ATOM     18  C3  <0> d           5.398   2.160   1.949  0.00  0.00     0.120 A 
ENDBRANCH  11  14
ENDBRANCH   6   8
ENDBRANCH   3   6
ENDBRANCH   1   2
BRANCH   1  19
ATOM     19  C12 <0> d          -3.192  -4.424  -0.376  0.00  0.00     0.206 C 
ATOM     20  C13 <0> d          -3.407  -5.937  -0.469  0.00  0.00     0.040 C 
ATOM     21  C14 <0> d          -4.389  -6.366   0.628  0.00  0.00    -0.004 C 
ATOM     22  C18 <0> d          -3.801  -5.976   1.990  0.00  0.00     0.041 C 
ATOM     23  C15 <0> d          -5.707  -5.608   0.429  0.00  0.00     0.032 C 
ATOM     24  C17 <0> d          -3.575  -4.462   2.016  0.00  0.00     0.242 C 
ATOM     25  N5  <0> d          -3.990  -3.856   0.732  0.00  0.00    -0.065 N 
ATOM     26  C16 <0> d          -5.428  -4.104   0.498  0.00  0.00     0.236 C 
ATOM     27  H35 <0> d          -3.828  -2.843   0.774  0.00  0.00     0.280 HD
BRANCH  22  28
ATOM     28  C19 <0> d          -2.469  -6.699   2.200  0.00  0.00     0.241 C 
BRANCH  28  29
ATOM     29  N6  <0> d          -1.938  -6.335   3.530  0.00  0.00    -0.071 N 
ATOM     30  C20 <0> d          -0.492  -6.634   3.595  0.00  0.00     0.235 C 
ATOM     31  C21 <0> d           0.058  -6.140   4.935  0.00  0.00     0.028 C 
ATOM     32  C22 <0> d          -0.670  -6.858   6.075  0.00  0.00     0.003 C 
ATOM     33  C23 <0> d          -2.175  -6.600   5.952  0.00  0.00     0.028 C 
ATOM     34  C24 <0> d          -2.659  -7.080   4.583  0.00  0.00     0.235 C 
ATOM     35  H36 <0> d          -2.077  -5.328   3.680  0.00  0.00     0.279 HD
ENDBRANCH  28  29
ENDBRANCH  22  28
ENDBRANCH   1  19
TORSDOF 7
