REMARK  6 active torsions:
REMARK  status: ('A' for Active; 'I' for Inactive)
REMARK    1  A    between atoms: C5_5  and  N1_9 
REMARK    2  A    between atoms: N1_9  and  C8_10 
REMARK    3  A    between atoms: C8_10  and  C9_11 
REMARK       I    between atoms: C9_11  and  N2_13 
REMARK    4  A    between atoms: N2_13  and  N3_14 
REMARK    5  A    between atoms: C10_15  and  C11_16 
REMARK    6  A    between atoms: C14_19  and  O2_22 
ROOT
ATOM      1  C9  <0> d           5.600  -1.236  -1.319  0.00  0.00     0.250 C 
ATOM      2  O1  <0> d           5.857  -1.978  -0.394  0.00  0.00    -0.270 OA
ATOM      3  N2  <0> d           6.432  -1.166  -2.378  0.00  0.00    -0.246 N 
ATOM      4  H9  <0> d           6.227  -0.573  -3.117  0.00  0.00     0.192 HD
ENDROOT
BRANCH   1   5
ATOM      5  C8  <0> d           4.352  -0.393  -1.285  0.00  0.00     0.197 C 
BRANCH   5   6
ATOM      6  N1  <0> d           3.622  -0.650  -0.037  0.00  0.00    -0.282 NA
ATOM      7  H6  <0> d           4.180  -0.402   0.766  0.00  0.00     0.128 HD
BRANCH   6   8
ATOM      8  C5  <0> d           2.398   0.026  -0.024  0.00  0.00     0.043 A 
ATOM      9  C4  <0> d           2.334   1.343   0.413  0.00  0.00     0.034 A 
ATOM     10  C3  <0> d           1.123   2.008   0.424  0.00  0.00     0.027 A 
ATOM     11 Br2  <0> d           3.904   2.225   0.992  0.00  0.00    -0.049 Br
ATOM     12  C2  <0> d          -0.025   1.363   0.002  0.00  0.00    -0.059 A 
ATOM     13  C1  <0> d          -1.343   2.094   0.009  0.00  0.00     0.048 C 
ATOM     14  C7  <0> d           0.034   0.052  -0.433  0.00  0.00     0.027 A 
ATOM     15  C6  <0> d           1.242  -0.619  -0.448  0.00  0.00     0.034 A 
ATOM     16 Br1  <0> d           1.323  -2.412  -1.044  0.00  0.00    -0.049 Br
ENDBRANCH   6   8
ENDBRANCH   5   6
ENDBRANCH   1   5
BRANCH   3  17
ATOM     17  N3  <0> d           7.593  -1.950  -2.409  0.00  0.00    -0.184 NA
ATOM     18  C10 <0> d           8.394  -1.883  -3.428  0.00  0.00     0.150 C 
BRANCH  18  19
ATOM     19  C11 <0> d           9.615  -2.708  -3.462  0.00  0.00    -0.017 A 
ATOM     20  C16 <0> d          10.479  -2.637  -4.558  0.00  0.00     0.015 A 
ATOM     21  C15 <0> d          11.620  -3.409  -4.585  0.00  0.00     0.037 A 
ATOM     22  C14 <0> d          11.912  -4.257  -3.524  0.00  0.00     0.065 A 
ATOM     23  C13 <0> d          11.056  -4.330  -2.432  0.00  0.00     0.037 A 
ATOM     24  C12 <0> d           9.916  -3.558  -2.395  0.00  0.00     0.015 A 
BRANCH  22  25
ATOM     25  O2  <0> d          13.038  -5.016  -3.554  0.00  0.00    -0.361 OA
ATOM     26  H15 <0> d          13.813  -4.586  -3.167  0.00  0.00     0.217 HD
ENDBRANCH  22  25
ENDBRANCH  18  19
ENDBRANCH   3  17
TORSDOF 6
