REMARK  4 active torsions:
REMARK  status: ('A' for Active; 'I' for Inactive)
REMARK    1  A    between atoms: C2_2  and  C3_3 
REMARK    2  A    between atoms: C2_2  and  N3_13 
REMARK       I    between atoms: C3_3  and  N1_5 
REMARK    3  A    between atoms: N1_5  and  C4_6 
REMARK    4  A    between atoms: C4_6  and  C7_10 
ROOT
ATOM      1  C4  <0> d          -3.649  -0.924  -0.690  0.00  0.00     0.121 C 
ATOM      2  C5  <0> d          -3.519  -2.442  -0.829  0.00  0.00     0.055 C 
ATOM      3  C6  <0> d          -4.246  -0.599   0.616  0.00  0.00     0.091 C 
ATOM      4  N2  <0> d          -4.707  -0.349   1.623  0.00  0.00    -0.195 NA
ENDROOT
BRANCH   1   5
ATOM      5  N1  <0> d          -2.323  -0.309  -0.786  0.00  0.00    -0.337 N 
ATOM      6  C3  <0> d          -1.362  -0.636   0.101  0.00  0.00     0.249 C 
ATOM      7  O1  <0> d          -1.596  -1.439   0.979  0.00  0.00    -0.271 OA
ATOM      8  H5  <0> d          -2.135   0.333  -1.489  0.00  0.00     0.164 HD
BRANCH   6   9
ATOM      9  C2  <0> d           0.002  -0.004   0.002  0.00  0.00     0.275 C 
ATOM     10  C1  <0> d           0.011   1.315   0.777  0.00  0.00     0.050 C 
BRANCH   9  11
ATOM     11  N3  <0> d           1.005  -0.913   0.572  0.00  0.00    -0.058 N 
ATOM     12  C14 <0> d           1.017  -2.167  -0.192  0.00  0.00     0.241 C 
ATOM     13  C13 <0> d           2.000  -3.149   0.449  0.00  0.00     0.096 C 
ATOM     14  C12 <0> d           3.400  -2.532   0.454  0.00  0.00     0.167 C 
ATOM     15  C11 <0> d           3.363  -1.186   1.182  0.00  0.00     0.096 C 
ATOM     16  O3  <0> d           3.846  -2.339  -0.894  0.00  0.00    -0.353 OA
ATOM     17  O2  <0> d           4.312  -3.415   1.125  0.00  0.00    -0.353 OA
ATOM     18  C10 <0> d           2.328  -0.279   0.512  0.00  0.00     0.241 C 
ATOM     19  C16 <0> d           5.043  -3.124  -1.064  0.00  0.00     0.197 C 
ATOM     20  C15 <0> d           4.933  -4.181   0.064  0.00  0.00     0.197 C 
ATOM     21  H28 <0> d           0.772  -1.109   1.534  0.00  0.00     0.280 HD
ENDBRANCH   9  11
ENDBRANCH   6   9
ENDBRANCH   1   5
BRANCH   1  22
ATOM     22  C7  <0> d          -4.543  -0.384  -1.808  0.00  0.00     0.020 C 
ATOM     23  C8  <0> d          -5.887  -1.116  -1.785  0.00  0.00     0.013 C 
ATOM     24  C9  <0> d          -4.775   1.114  -1.598  0.00  0.00     0.013 C 
ENDBRANCH   1  22
TORSDOF 4
