REMARK  4 active torsions:
REMARK  status: ('A' for Active; 'I' for Inactive)
REMARK    1  A    between atoms: N1_2  and  C2_3 
REMARK    2  A    between atoms: N1_2  and  S1_22 
REMARK    3  A    between atoms: C6_7  and  N2_9 
REMARK       I    between atoms: N2_9  and  C8_10 
REMARK    4  A    between atoms: C8_10  and  C9_12 
ROOT
ATOM      1  N2  <0> d          -5.051   0.619  -0.648  0.00  0.00    -0.325 N 
ATOM      2  C8  <0> d          -6.294   0.237  -0.296  0.00  0.00     0.254 C 
ATOM      3  O1  <0> d          -6.749   0.566   0.779  0.00  0.00    -0.270 OA
ATOM      4  H9  <0> d          -4.712   0.413  -1.533  0.00  0.00     0.169 HD
ENDROOT
BRANCH   1   5
ATOM      5  C6  <0> d          -4.248   1.312   0.265  0.00  0.00     0.036 A 
ATOM      6  C5  <0> d          -4.822   2.216   1.149  0.00  0.00     0.029 A 
ATOM      7  C4  <0> d          -4.030   2.902   2.050  0.00  0.00     0.004 A 
ATOM      8  C3  <0> d          -2.666   2.687   2.079  0.00  0.00     0.030 A 
ATOM      9  C2  <0> d          -2.084   1.787   1.193  0.00  0.00     0.046 A 
ATOM     10  C7  <0> d          -2.877   1.097   0.287  0.00  0.00     0.059 A 
BRANCH   9  11
ATOM     11  N1  <0> d          -0.704   1.574   1.218  0.00  0.00    -0.281 N 
ATOM     12  C1  <0> d          -0.015   1.094   0.018  0.00  0.00     0.169 C 
BRANCH  11  13
ATOM     13  S1  <0> d           0.153   1.865   2.605  0.00  0.00     0.228 S 
ATOM     14  O4  <0> d          -0.790   1.701   3.655  0.00  0.00    -0.206 OA
ATOM     15  O5  <0> d           1.289   1.016   2.514  0.00  0.00    -0.206 OA
ATOM     16  C17 <0> d           0.660   3.602   2.485  0.00  0.00     0.186 C 
ENDBRANCH  11  13
ENDBRANCH   9  11
ENDBRANCH   1   5
BRANCH   2  17
ATOM     17  C9  <0> d          -7.120  -0.599  -1.239  0.00  0.00     0.245 C 
ATOM     18  O3  <0> d          -8.435  -0.779  -0.701  0.00  0.00    -0.331 OA
ATOM     19  C16 <0> d          -9.204  -1.744  -1.273  0.00  0.00     0.103 A 
ATOM     20  C11 <0> d          -8.633  -2.732  -2.067  0.00  0.00     0.102 A 
ATOM     21  C15 <0> d         -10.575  -1.739  -1.059  0.00  0.00     0.040 A 
ATOM     22  O2  <0> d          -7.291  -2.753  -2.294  0.00  0.00    -0.345 OA
ATOM     23  C12 <0> d          -9.436  -3.709  -2.637  0.00  0.00     0.039 A 
ATOM     24  C10 <0> d          -6.476  -1.982  -1.405  0.00  0.00     0.218 C 
ATOM     25  C13 <0> d         -10.800  -3.699  -2.418  0.00  0.00     0.003 A 
ATOM     26  C14 <0> d         -11.369  -2.715  -1.630  0.00  0.00     0.003 A 
ENDBRANCH   2  17
TORSDOF 4
