REMARK  3 active torsions:
REMARK  status: ('A' for Active; 'I' for Inactive)
REMARK    1  A    between atoms: C6_8  and  N2_13 
REMARK    2  A    between atoms: N2_13  and  S1_14 
REMARK    3  A    between atoms: S1_14  and  C10_17 
ROOT
ATOM      1  C1  <0> d           0.044   1.589   0.216  0.00  0.00     0.057 C 
ATOM      2  C2  <0> d           0.030   0.060   0.166  0.00  0.00     0.141 C 
ATOM      3  C3  <0> d          -1.395  -0.430   0.225  0.00  0.00     0.256 C 
ATOM      4  O1  <0> d          -2.294   0.259  -0.208  0.00  0.00    -0.270 OA
ATOM      5  N1  <0> d          -1.665  -1.640   0.761  0.00  0.00    -0.322 N 
ATOM      6  C4  <0> d          -0.611  -2.402   1.287  0.00  0.00     0.070 A 
ATOM      7  C5  <0> d          -0.777  -3.751   1.549  0.00  0.00     0.062 A 
ATOM      8  C6  <0> d           0.278  -4.488   2.070  0.00  0.00     0.045 A 
ATOM      9  C7  <0> d           1.496  -3.871   2.326  0.00  0.00     0.033 A 
ATOM     10  C8  <0> d           1.662  -2.523   2.064  0.00  0.00     0.041 A 
ATOM     11  C9  <0> d           0.613  -1.786   1.544  0.00  0.00     0.097 A 
ATOM     12  O2  <0> d           0.763  -0.460   1.278  0.00  0.00    -0.329 OA
ATOM     13  C14 <0> d           0.677  -0.413  -1.137  0.00  0.00     0.057 C 
ATOM     14  H4  <0> d          -2.574  -1.977   0.783  0.00  0.00     0.169 HD
ENDROOT
BRANCH   8  15
ATOM     15  N2  <0> d           0.115  -5.851   2.336  0.00  0.00    -0.280 N 
ATOM     16  H8  <0> d          -0.676  -6.163   2.803  0.00  0.00     0.179 HD
BRANCH  15  17
ATOM     17  S1  <0> d           1.273  -6.934   1.856  0.00  0.00     0.269 S 
ATOM     18  O3  <0> d           2.512  -6.451   2.357  0.00  0.00    -0.200 OA
ATOM     19  O4  <0> d           0.775  -8.227   2.171  0.00  0.00    -0.200 OA
BRANCH  17  20
ATOM     20  C10 <0> d           1.371  -6.845   0.099  0.00  0.00     0.120 A 
ATOM     21  S2  <0> d           0.385  -7.691  -1.126  0.00  0.00    -0.088 SA
ATOM     22  C13 <0> d           1.163  -7.017  -2.585  0.00  0.00     0.051 A 
ATOM     23  C12 <0> d           2.112  -6.211  -2.049  0.00  0.00     0.009 A 
ATOM     24  C11 <0> d           2.219  -6.123  -0.673  0.00  0.00     0.033 A 
ENDBRANCH  17  20
ENDBRANCH  15  17
ENDBRANCH   8  15
TORSDOF 3
