REMARK  6 active torsions:
REMARK  status: ('A' for Active; 'I' for Inactive)
REMARK    1  A    between atoms: C2_2  and  C3_3 
REMARK    2  A    between atoms: C2_2  and  C15_21 
REMARK    3  A    between atoms: C2_2  and  O4_25 
REMARK       I    between atoms: C3_3  and  N1_5 
REMARK    4  A    between atoms: N1_5  and  C4_6 
REMARK    5  A    between atoms: C7_9  and  S1_12 
REMARK    6  A    between atoms: S1_12  and  C10_15 
ROOT
ATOM      1  C4  <0> d          -1.747   3.058   3.992  0.00  0.00     0.034 A 
ATOM      2  C5  <0> d          -0.376   2.881   3.858  0.00  0.00     0.031 A 
ATOM      3  C6  <0> d           0.153   2.492   2.643  0.00  0.00     0.026 A 
ATOM      4  C7  <0> d          -0.681   2.279   1.560  0.00  0.00     0.064 A 
ATOM      5  C8  <0> d          -2.046   2.460   1.689  0.00  0.00     0.026 A 
ATOM      6  C9  <0> d          -2.582   2.844   2.903  0.00  0.00     0.031 A 
ENDROOT
BRANCH   1   7
ATOM      7  N1  <0> d          -2.287   3.451   5.222  0.00  0.00    -0.324 N 
ATOM      8  C3  <0> d          -1.736   3.011   6.371  0.00  0.00     0.265 C 
ATOM      9  O1  <0> d          -0.724   2.344   6.341  0.00  0.00    -0.269 OA
ATOM     10  H4  <0> d          -3.057   4.040   5.247  0.00  0.00     0.169 HD
BRANCH   8  11
ATOM     11  C2  <0> d          -2.378   3.349   7.692  0.00  0.00     0.233 C 
ATOM     12  C1  <0> d          -1.894   4.723   8.158  0.00  0.00     0.066 C 
BRANCH  11  13
ATOM     13  C15 <0> d          -1.993   2.293   8.730  0.00  0.00     0.427 C 
ATOM     14  F1  <0> d          -0.602   2.272   8.880  0.00  0.00    -0.167 F 
ATOM     15  F2  <0> d          -2.589   2.607   9.957  0.00  0.00    -0.167 F 
ATOM     16  F3  <0> d          -2.436   1.037   8.304  0.00  0.00    -0.167 F 
ENDBRANCH  11  13
BRANCH  11  17
ATOM     17  O4  <0> d          -3.799   3.371   7.539  0.00  0.00    -0.373 OA
ATOM     18  H13 <0> d          -4.176   2.530   7.245  0.00  0.00     0.211 HD
ENDBRANCH  11  17
ENDBRANCH   8  11
ENDBRANCH   1   7
BRANCH   4  19
ATOM     19  S1  <0> d          -0.002   1.784   0.012  0.00  0.00     0.206 S 
ATOM     20  O2  <0> d           1.351   2.218   0.004  0.00  0.00    -0.217 OA
ATOM     21  O3  <0> d          -0.934   2.179  -0.985  0.00  0.00    -0.217 OA
BRANCH  19  22
ATOM     22  C10 <0> d           0.034   0.022  -0.001  0.00  0.00     0.067 A 
ATOM     23  C14 <0> d          -1.044  -0.706  -0.480  0.00  0.00     0.043 A 
ATOM     24  C13 <0> d          -0.980  -2.087  -0.475  0.00  0.00     0.117 A 
ATOM     25  N2  <0> d           0.090  -2.711  -0.023  0.00  0.00    -0.273 NA
ATOM     26  C12 <0> d           1.134  -2.050   0.440  0.00  0.00     0.117 A 
ATOM     27  C11 <0> d           1.144  -0.669   0.462  0.00  0.00     0.043 A 
ENDBRANCH  19  22
ENDBRANCH   4  19
TORSDOF 6
