REMARK  7 active torsions:
REMARK  status: ('A' for Active; 'I' for Inactive)
REMARK    1  A    between atoms: C2_2  and  O1_3 
REMARK    2  A    between atoms: O1_3  and  C3_4 
REMARK    3  A    between atoms: C3_4  and  C4_6 
REMARK    4  A    between atoms: C4_6  and  C5_7 
REMARK    5  A    between atoms: C5_7  and  N1_8 
REMARK       I    between atoms: N1_8  and  C6_9 
REMARK    6  A    between atoms: C6_9  and  C7_11 
REMARK       I    between atoms: N2_13  and  C15_21 
REMARK    7  A    between atoms: C15_21  and  C16_23 
ROOT
ATOM      1  C7  <0> d           3.804  -6.145  -5.362  0.00  0.00     0.106 C 
ATOM      2  C8  <0> d           2.591  -6.019  -6.310  0.00  0.00     0.140 C 
ATOM      3  N2  <0> d           2.664  -7.222  -7.173  0.00  0.00    -0.350 N 
ATOM      4  C9  <0> d           3.086  -8.308  -6.257  0.00  0.00     0.136 C 
ATOM      5  C10 <0> d           4.126  -7.649  -5.329  0.00  0.00    -0.007 C 
ATOM      6  C11 <0> d           5.536  -7.899  -5.855  0.00  0.00     0.039 C 
ATOM      7  C12 <0> d           5.854  -9.394  -5.759  0.00  0.00     0.233 C 
ATOM      8  N3  <0> d           5.746  -9.830  -4.362  0.00  0.00    -0.075 N 
ATOM      9  C13 <0> d           4.364  -9.672  -3.893  0.00  0.00     0.233 C 
ATOM     10  C14 <0> d           3.983  -8.189  -3.910  0.00  0.00     0.039 C 
ATOM     11  C15 <0> d           2.405  -7.308  -8.493  0.00  0.00     0.224 C 
ATOM     12  O4  <0> d           2.145  -6.307  -9.127  0.00  0.00    -0.273 OA
ATOM     13  H21 <0> d           6.014 -10.801  -4.293  0.00  0.00     0.277 HD
ATOM     14  H34 <0> d           6.360  -9.272  -3.788  0.00  0.00     0.277 HD
ENDROOT
BRANCH   1  15
ATOM     15  C6  <0> d           3.445  -5.655  -3.983  0.00  0.00     0.224 C 
ATOM     16  N1  <0> d           4.400  -5.149  -3.177  0.00  0.00    -0.360 N 
ATOM     17  H12 <0> d           5.319  -5.100  -3.486  0.00  0.00     0.162 HD
ATOM     18  O3  <0> d           2.297  -5.716  -3.597  0.00  0.00    -0.273 OA
BRANCH  16  19
ATOM     19  C5  <0> d           4.051  -4.673  -1.837  0.00  0.00     0.132 C 
BRANCH  19  20
ATOM     20  C4  <0> d           5.308  -4.153  -1.137  0.00  0.00     0.130 C 
BRANCH  20  21
ATOM     21  C3  <0> d           4.949  -3.663   0.242  0.00  0.00     0.260 C 
ATOM     22  O2  <0> d           3.805  -3.724   0.626  0.00  0.00    -0.265 OA
BRANCH  21  23
ATOM     23  O1  <0> d           5.900  -3.159   1.044  0.00  0.00    -0.322 OA
BRANCH  23  24
ATOM     24  C2  <0> d           5.489  -2.713   2.338  0.00  0.00     0.174 C 
ATOM     25  C1  <0> d           6.700  -2.176   3.102  0.00  0.00     0.034 C 
ENDBRANCH  23  24
ENDBRANCH  21  23
ENDBRANCH  20  21
ENDBRANCH  19  20
ENDBRANCH  16  19
ENDBRANCH   1  15
BRANCH  11  26
ATOM     26  C16 <0> d           2.439  -8.649  -9.181  0.00  0.00     0.082 C 
ATOM     27  C21 <0> d           1.078  -9.334  -9.039  0.00  0.00     0.041 C 
ATOM     28  C20 <0> d           1.009 -10.534  -9.939  0.00  0.00    -0.030 C 
ATOM     29  C19 <0> d           1.817 -10.749 -10.927  0.00  0.00    -0.031 C 
ATOM     30  C18 <0> d           2.941  -9.831 -11.309  0.00  0.00     0.027 C 
ATOM     31  C17 <0> d           2.736  -8.454 -10.674  0.00  0.00     0.018 C 
ENDBRANCH  11  26
TORSDOF 7
