REMARK  4 active torsions:
REMARK  status: ('A' for Active; 'I' for Inactive)
REMARK    1  A    between atoms: C7_7  and  N1_8 
REMARK    2  A    between atoms: N2_11  and  C12_14 
REMARK    3  A    between atoms: C12_14  and  C13_15 
REMARK    4  A    between atoms: C16_21  and  S1_23 
ROOT
ATOM      1  N1  <0> d           0.025  -0.016   2.415  0.00  0.00    -0.377 N 
ATOM      2  C8  <0> d          -1.235   0.335   3.088  0.00  0.00     0.150 C 
ATOM      3  C9  <0> d          -1.150  -0.123   4.548  0.00  0.00     0.255 C 
ATOM      4  N2  <0> d           0.049   0.450   5.171  0.00  0.00    -0.063 N 
ATOM      5  C10 <0> d           1.254  -0.081   4.519  0.00  0.00     0.255 C 
ATOM      6  C11 <0> d           1.288   0.374   3.061  0.00  0.00     0.150 C 
ATOM      7  H23 <0> d           0.030   1.454   5.073  0.00  0.00     0.280 HD
ENDROOT
BRANCH   4   8
ATOM      8  C12 <0> d           0.072   0.101   6.598  0.00  0.00     0.294 C 
BRANCH   8   9
ATOM      9  C13 <0> d           1.235   0.790   7.264  0.00  0.00     0.068 A 
ATOM     10  N4  <0> d           2.481   0.471   6.921  0.00  0.00    -0.227 NA
ATOM     11  C16 <0> d           3.519   1.060   7.483  0.00  0.00     0.169 A 
ATOM     12  N3  <0> d           3.354   2.010   8.445  0.00  0.00    -0.302 N 
ATOM     13  C15 <0> d           2.110   2.363   8.831  0.00  0.00     0.249 A 
ATOM     14  H1  <0> d           4.128   2.430   8.852  0.00  0.00     0.171 HD
ATOM     15  C14 <0> d           1.009   1.735   8.223  0.00  0.00     0.103 A 
ATOM     16  O1  <0> d           1.943   3.212   9.692  0.00  0.00    -0.268 OA
BRANCH  11  17
ATOM     17  S1  <0> d           5.147   0.605   6.986  0.00  0.00    -0.096 SA
ATOM     18  C17 <0> d           4.879  -0.661   5.715  0.00  0.00     0.099 C 
ENDBRANCH  11  17
ENDBRANCH   8   9
ENDBRANCH   4   8
BRANCH   1  19
ATOM     19  C7  <0> d           0.023  -0.706   1.200  0.00  0.00     0.036 A 
ATOM     20  C2  <0> d           0.002  -0.004   0.002  0.00  0.00    -0.035 A 
ATOM     21  C1  <0> d          -0.018   1.503   0.010  0.00  0.00     0.050 C 
ATOM     22  C3  <0> d           0.006  -0.689  -1.198  0.00  0.00     0.009 A 
ATOM     23  C4  <0> d           0.024  -2.071  -1.206  0.00  0.00     0.001 A 
ATOM     24  C5  <0> d           0.039  -2.773  -0.014  0.00  0.00     0.002 A 
ATOM     25  C6  <0> d           0.036  -2.095   1.188  0.00  0.00     0.030 A 
ENDBRANCH   1  19
TORSDOF 4
