REMARK  7 active torsions:
REMARK  status: ('A' for Active; 'I' for Inactive)
REMARK    1  A    between atoms: C3_3  and  C5_6 
REMARK    2  A    between atoms: C5_6  and  C6_7 
REMARK    3  A    between atoms: C6_7  and  O1_8 
REMARK    4  A    between atoms: O1_8  and  C7_9 
REMARK    5  A    between atoms: C10_12  and  C14_18 
REMARK    6  A    between atoms: C12_14  and  C13_15 
REMARK    7  A    between atoms: C13_15  and  N1_16 
ROOT
ATOM      1  C7  <0> d           6.409   2.600   2.877  0.00  0.00     0.082 A 
ATOM      2  C8  <0> d           5.904   2.282   4.128  0.00  0.00     0.038 A 
ATOM      3  C9  <0> d           6.676   2.474   5.256  0.00  0.00     0.019 A 
ATOM      4  C10 <0> d           7.959   2.985   5.148  0.00  0.00     0.049 A 
ATOM      5  C11 <0> d           8.477   3.308   3.912  0.00  0.00     0.034 A 
ATOM      6  C12 <0> d           7.708   3.112   2.762  0.00  0.00     0.041 A 
ENDROOT
BRANCH   1   7
ATOM      7  O1  <0> d           5.651   2.412   1.767  0.00  0.00    -0.350 OA
BRANCH   7   8
ATOM      8  C6  <0> d           4.336   1.887   1.962  0.00  0.00     0.181 C 
BRANCH   8   9
ATOM      9  C5  <0> d           3.639   1.746   0.608  0.00  0.00     0.073 C 
BRANCH   9  10
ATOM     10  C3  <0> d           2.252   1.192   0.812  0.00  0.00    -0.016 A 
ATOM     11  C2  <0> d           1.089   1.857   1.020  0.00  0.00     0.015 A 
ATOM     12  C1  <0> d          -0.077   1.133   1.184  0.00  0.00     0.008 A 
ATOM     13  C4  <0> d          -0.023  -0.221   1.131  0.00  0.00     0.050 A 
ATOM     14  S1  <0> d           1.715  -0.510   0.844  0.00  0.00    -0.106 SA
ENDBRANCH   9  10
ENDBRANCH   8   9
ENDBRANCH   7   8
ENDBRANCH   1   7
BRANCH   6  15
ATOM     15  C13 <0> d           8.260   3.449   1.434  0.00  0.00     0.105 C 
ATOM     16  N2  <0> d           8.304   2.523   0.477  0.00  0.00    -0.385 N 
ATOM     17  H12 <0> d           7.974   1.627   0.653  0.00  0.00     0.157 HD
ATOM     18  H13 <0> d           8.666   2.744  -0.395  0.00  0.00     0.157 HD
BRANCH  15  19
ATOM     19  N1  <0> d           8.713   4.678   1.193  0.00  0.00    -0.385 N 
ATOM     20  H11 <0> d           9.143   4.880   0.347  0.00  0.00     0.157 HD
ATOM     21  H14 <0> d           8.612   5.372   1.863  0.00  0.00     0.157 HD
ENDBRANCH  15  19
ENDBRANCH   6  15
BRANCH   4  22
ATOM     22  C14 <0> d           8.792   3.191   6.387  0.00  0.00     0.417 C 
ATOM     23  F1  <0> d           8.060   2.796   7.511  0.00  0.00    -0.166 F 
ATOM     24  F2  <0> d           9.959   2.424   6.296  0.00  0.00    -0.166 F 
ATOM     25  F3  <0> d           9.131   4.543   6.502  0.00  0.00    -0.166 F 
ENDBRANCH   4  22
TORSDOF 7
