REMARK  8 active torsions:
REMARK  status: ('A' for Active; 'I' for Inactive)
REMARK    1  A    between atoms: C5_5  and  C9_9 
REMARK       I    between atoms: C9_9  and  N1_11 
REMARK    2  A    between atoms: C11_13  and  C18_21 
REMARK       I    between atoms: C18_21  and  N3_23 
REMARK    3  A    between atoms: N3_23  and  C19_24 
REMARK    4  A    between atoms: C19_24  and  C21_26 
REMARK    5  A    between atoms: C21_26  and  C22_27 
REMARK    6  A    between atoms: C22_27  and  C23_28 
REMARK    7  A    between atoms: C23_28  and  C24_29 
REMARK    8  A    between atoms: C24_29  and  O3_32 
ROOT
ATOM      1  C9  <0> d           0.132  -4.106  -0.020  0.00  0.00     0.254 C 
ATOM      2  O1  <0> d           0.237  -4.683   1.045  0.00  0.00    -0.267 OA
ATOM      3  N1  <0> d           0.083  -4.813  -1.167  0.00  0.00    -0.346 N 
ATOM      4  C10 <0> d           0.065  -4.292  -2.554  0.00  0.00     0.141 C 
ATOM      5  C11 <0> d           0.964  -5.266  -3.348  0.00  0.00     0.106 C 
ATOM      6  C12 <0> d           0.939  -6.573  -2.538  0.00  0.00    -0.007 C 
ATOM      7  C13 <0> d           0.041  -6.286  -1.325  0.00  0.00     0.136 C 
ATOM      8  C14 <0> d           2.346  -6.933  -2.071  0.00  0.00     0.039 C 
ATOM      9  C15 <0> d           2.303  -8.265  -1.317  0.00  0.00     0.233 C 
ATOM     10  N2  <0> d           1.776  -9.312  -2.199  0.00  0.00    -0.075 N 
ATOM     11  C16 <0> d           0.389  -9.005  -2.568  0.00  0.00     0.233 C 
ATOM     12  C17 <0> d           0.350  -7.704  -3.376  0.00  0.00     0.039 C 
ATOM     13  H20 <0> d           2.341  -9.364  -3.033  0.00  0.00     0.277 HD
ATOM     14  H42 <0> d           1.806 -10.200  -1.720  0.00  0.00     0.277 HD
ENDROOT
BRANCH   5  15
ATOM     15  C18 <0> d           2.369  -4.729  -3.437  0.00  0.00     0.224 C 
ATOM     16  O2  <0> d           2.788  -3.982  -2.579  0.00  0.00    -0.273 OA
ATOM     17  N3  <0> d           3.159  -5.078  -4.471  0.00  0.00    -0.356 N 
ATOM     18  H25 <0> d           2.824  -5.676  -5.158  0.00  0.00     0.162 HD
BRANCH  17  19
ATOM     19  C19 <0> d           4.525  -4.556  -4.558  0.00  0.00     0.080 C 
ATOM     20  C20 <0> d           4.504  -3.181  -5.230  0.00  0.00     0.032 C 
BRANCH  19  21
ATOM     21  C21 <0> d           5.386  -5.513  -5.385  0.00  0.00     0.025 C 
BRANCH  21  22
ATOM     22  C22 <0> d           5.510  -6.850  -4.650  0.00  0.00     0.005 C 
BRANCH  22  23
ATOM     23  C23 <0> d           6.371  -7.808  -5.476  0.00  0.00     0.037 C 
BRANCH  23  24
ATOM     24  C24 <0> d           6.495  -9.144  -4.742  0.00  0.00     0.051 C 
ATOM     25  C25 <0> d           7.456 -10.058  -5.505  0.00  0.00     0.045 C 
ATOM     26  C26 <0> d           7.034  -8.903  -3.331  0.00  0.00     0.045 C 
BRANCH  24  27
ATOM     27  O3  <0> d           5.210  -9.765  -4.662  0.00  0.00    -0.391 OA
ATOM     28  H41 <0> d           4.807  -9.948  -5.521  0.00  0.00     0.210 HD
ENDBRANCH  24  27
ENDBRANCH  23  24
ENDBRANCH  22  23
ENDBRANCH  21  22
ENDBRANCH  19  21
ENDBRANCH  17  19
ENDBRANCH   5  15
BRANCH   1  29
ATOM     29  C5  <0> d           0.059  -2.630  -0.057  0.00  0.00     0.038 A 
ATOM     30  C4  <0> d          -0.913  -1.996  -0.833  0.00  0.00     0.018 A 
ATOM     31  C3  <0> d          -0.977  -0.619  -0.863  0.00  0.00     0.008 A 
ATOM     32  C2  <0> d          -0.080   0.135  -0.127  0.00  0.00    -0.061 A 
ATOM     33  C1  <0> d          -0.154   1.639  -0.165  0.00  0.00     0.048 C 
ATOM     34  C7  <0> d           0.889  -0.487   0.640  0.00  0.00     0.014 A 
ATOM     35  C6  <0> d           0.960  -1.865   0.683  0.00  0.00    -0.046 A 
ATOM     36  C8  <0> d           2.013  -2.541   1.523  0.00  0.00     0.049 C 
ENDBRANCH   1  29
TORSDOF 8
