REMARK  5 active torsions:
REMARK  status: ('A' for Active; 'I' for Inactive)
REMARK    1  A    between atoms: C7_7  and  C10_11 
REMARK    2  A    between atoms: C7_7  and  S2_14 
REMARK    3  A    between atoms: S2_14  and  C11_15 
REMARK    4  A    between atoms: C11_15  and  C12_16 
REMARK    5  A    between atoms: C12_16  and  N1_17 
ROOT
ATOM      1  C1  <0> d           0.268   1.455   0.082  0.00  0.00     0.001 A 
ATOM      2  C2  <0> d           1.507   2.070   0.055  0.00  0.00     0.001 A 
ATOM      3  C3  <0> d           2.647   1.298  -0.005  0.00  0.00     0.019 A 
ATOM      4  C4  <0> d           2.559  -0.094  -0.033  0.00  0.00     0.009 A 
ATOM      5  C5  <0> d           1.324  -0.712   0.008  0.00  0.00    -0.012 A 
ATOM      6  C6  <0> d           0.179   0.081   0.057  0.00  0.00     0.011 A 
ATOM      7  C7  <0> d           1.113  -2.197   0.027  0.00  0.00     0.125 C 
ATOM      8  C8  <0> d           2.265  -2.985  -0.574  0.00  0.00     0.047 C 
ATOM      9  C9  <0> d           3.538  -2.714   0.242  0.00  0.00     0.082 C 
ATOM     10  S1  <0> d           4.062  -1.015  -0.131  0.00  0.00    -0.129 SA
ENDROOT
BRANCH   7  11
ATOM     11  C10 <0> d           0.921  -2.638   1.455  0.00  0.00     0.197 C 
ATOM     12  O1  <0> d           0.466  -3.743   1.696  0.00  0.00    -0.647 OA
ATOM     13  O2  <0> d           1.222  -1.890   2.369  0.00  0.00    -0.647 OA
ENDBRANCH   7  11
BRANCH   7  14
ATOM     14  S2  <0> d          -0.398  -2.581  -0.901  0.00  0.00    -0.141 SA
BRANCH  14  15
ATOM     15  C11 <0> d          -0.003  -2.092  -2.603  0.00  0.00     0.102 C 
BRANCH  15  16
ATOM     16  C12 <0> d          -1.248  -2.245  -3.479  0.00  0.00     0.239 C 
BRANCH  16  17
ATOM     17  N1  <0> d          -0.929  -1.850  -4.857  0.00  0.00    -0.079 N 
ATOM     18  H13 <0> d          -0.625  -0.887  -4.869  0.00  0.00     0.274 HD
ATOM     19  H14 <0> d          -0.192  -2.439  -5.214  0.00  0.00     0.274 HD
ATOM     20  H15 <0> d          -1.750  -1.950  -5.435  0.00  0.00     0.274 HD
ENDBRANCH  16  17
ENDBRANCH  15  16
ENDBRANCH  14  15
ENDBRANCH   7  14
TORSDOF 5
