REMARK  6 active torsions:
REMARK  status: ('A' for Active; 'I' for Inactive)
REMARK    1  A    between atoms: N1_2  and  C2_3 
REMARK       I    between atoms: N1_2  and  C5_8 
REMARK    2  A    between atoms: C2_3  and  C3_4 
REMARK    3  A    between atoms: C3_4  and  C4_5 
REMARK    4  A    between atoms: C5_8  and  C6_10 
REMARK    5  A    between atoms: C6_10  and  O2_11 
REMARK    6  A    between atoms: O2_11  and  C7_12 
ROOT
ATOM      1  C1  <0> d          -0.018   1.461   0.010  0.00  0.00     0.152 C 
ATOM      2  N1  <0> d           0.002  -0.004   0.002  0.00  0.00    -0.354 N 
ATOM      3  C5  <0> d           0.000  -0.672  -1.169  0.00  0.00     0.243 C 
ATOM      4  O1  <0> d           0.017  -1.884  -1.175  0.00  0.00    -0.271 OA
ENDROOT
BRANCH   3   5
ATOM      5  C6  <0> d          -0.023   0.089  -2.470  0.00  0.00     0.278 C 
BRANCH   5   6
ATOM      6  O2  <0> d          -0.020  -0.834  -3.561  0.00  0.00    -0.342 OA
BRANCH   6   7
ATOM      7  C7  <0> d          -0.039  -0.308  -4.814  0.00  0.00     0.072 A 
ATOM      8  C12 <0> d          -0.038  -1.146  -5.919  0.00  0.00     0.060 A 
ATOM      9  C11 <0> d          -0.065  -0.609  -7.193  0.00  0.00     0.038 A 
ATOM     10  C10 <0> d          -0.079   0.764  -7.366  0.00  0.00     0.048 A 
ATOM     11 Cl1  <0> d          -0.072  -1.657  -8.576  0.00  0.00    -0.084 Cl
ATOM     12  C9  <0> d          -0.073   1.602  -6.264  0.00  0.00     0.038 A 
ATOM     13  C8  <0> d          -0.054   1.068  -4.989  0.00  0.00     0.060 A 
ATOM     14 Cl2  <0> d          -0.092   3.324  -6.484  0.00  0.00    -0.084 Cl
ENDBRANCH   6   7
ENDBRANCH   5   6
ENDBRANCH   3   5
BRANCH   2  15
ATOM     15  C2  <0> d           0.024  -0.743   1.267  0.00  0.00     0.132 C 
BRANCH  15  16
ATOM     16  C3  <0> d          -1.411  -1.020   1.720  0.00  0.00     0.089 C 
BRANCH  16  17
ATOM     17  C4  <0> d          -1.388  -1.781   3.021  0.00  0.00     0.072 C 
ATOM     18  S1  <0> d           0.009  -2.165   3.699  0.00  0.00    -0.066 SA
ATOM     19  N2  <0> d          -2.545  -2.137   3.614  0.00  0.00    -0.393 N 
ATOM     20  H8  <0> d          -3.392  -1.903   3.204  0.00  0.00     0.156 HD
ATOM     21  H9  <0> d          -2.530  -2.626   4.452  0.00  0.00     0.156 HD
ENDBRANCH  16  17
ENDBRANCH  15  16
ENDBRANCH   2  15
TORSDOF 6
