REMARK  3 active torsions:
REMARK  status: ('A' for Active; 'I' for Inactive)
REMARK    1  A    between atoms: N1_2  and  C3_4 
REMARK    2  A    between atoms: N4_13  and  C9_16 
REMARK    3  A    between atoms: C9_16  and  C10_17 
ROOT
ATOM      1  C3  <0> d          -1.182  -0.638   0.224  0.00  0.00     0.707 C 
ATOM      2  N2  <0> d          -1.064  -1.949   0.520  0.00  0.00    -0.156 N 
ATOM      3  C4  <0> d          -1.817  -2.580   1.440  0.00  0.00     0.263 C 
ATOM      4  O1  <0> d          -1.586  -3.732   1.738  0.00  0.00    -0.270 OA
ATOM      5  C5  <0> d          -2.936  -1.843   2.085  0.00  0.00     0.233 C 
ATOM      6  C6  <0> d          -3.955  -1.389   1.018  0.00  0.00     0.214 C 
ATOM      7  C7  <0> d          -3.475  -0.166   0.336  0.00  0.00     0.285 C 
ATOM      8  O2  <0> d          -4.306   0.642  -0.029  0.00  0.00    -0.268 OA
ATOM      9  N3  <0> d          -2.222   0.123   0.120  0.00  0.00    -0.026 NA
ATOM     10  N4  <0> d          -5.137  -1.225   1.881  0.00  0.00    -0.354 N 
ATOM     11  C8  <0> d          -5.017  -2.242   2.811  0.00  0.00     0.201 C 
ATOM     12  N5  <0> d          -3.784  -2.638   2.976  0.00  0.00    -0.268 NA
ATOM     13  H18 <0> d          -0.398  -2.467   0.041  0.00  0.00     0.187 HD
ENDROOT
BRANCH  10  14
ATOM     14  C9  <0> d          -6.197  -0.218   1.777  0.00  0.00     0.183 C 
BRANCH  14  15
ATOM     15  C10 <0> d          -7.299  -0.738   0.891  0.00  0.00     0.053 A 
ATOM     16  N6  <0> d          -7.197  -0.592  -0.407  0.00  0.00    -0.251 NA
ATOM     17  C18 <0> d          -8.146  -1.041  -1.234  0.00  0.00     0.067 A 
ATOM     18  C13 <0> d          -9.296  -1.680  -0.707  0.00  0.00    -0.007 A 
ATOM     19  C17 <0> d          -8.029  -0.886  -2.627  0.00  0.00     0.032 A 
ATOM     20  C12 <0> d          -9.412  -1.834   0.688  0.00  0.00     0.016 A 
ATOM     21  C14 <0> d         -10.293  -2.145  -1.579  0.00  0.00     0.014 A 
ATOM     22  C11 <0> d          -8.403  -1.357   1.475  0.00  0.00     0.030 A 
ATOM     23  C15 <0> d         -10.144  -1.976  -2.922  0.00  0.00     0.001 A 
ATOM     24  C16 <0> d          -9.015  -1.348  -3.443  0.00  0.00     0.002 A 
ENDBRANCH  14  15
ENDBRANCH  10  14
BRANCH   1  25
ATOM     25  N1  <0> d           0.002  -0.004   0.002  0.00  0.00    -0.224 N 
ATOM     26  C1  <0> d           0.029   1.446  -0.205  0.00  0.00     0.168 C 
ATOM     27  C2  <0> d           1.249  -0.772  -0.030  0.00  0.00     0.168 C 
ENDBRANCH   1  25
TORSDOF 3
