REMARK  4 active torsions:
REMARK  status: ('A' for Active; 'I' for Inactive)
REMARK    1  A    between atoms: C3_3  and  N2_22 
REMARK    2  A    between atoms: C6_6  and  N1_7 
REMARK    3  A    between atoms: N1_7  and  S1_8 
REMARK    4  A    between atoms: S1_8  and  C7_11 
ROOT
ATOM      1  N1  <0> d           7.758   1.006  -0.770  0.00  0.00    -0.281 N 
ATOM      2  H5  <0> d           8.201   1.762  -1.187  0.00  0.00     0.179 HD
ENDROOT
BRANCH   1   3
ATOM      3  C6  <0> d           6.362   0.967  -0.697  0.00  0.00     0.042 A 
ATOM      4  C1  <0> d           5.656   2.090  -0.282  0.00  0.00     0.032 A 
ATOM      5  C2  <0> d           4.278   2.051  -0.210  0.00  0.00     0.032 A 
ATOM      6  C3  <0> d           3.597   0.890  -0.552  0.00  0.00     0.037 A 
ATOM      7  C4  <0> d           4.302  -0.234  -0.961  0.00  0.00     0.032 A 
ATOM      8  C5  <0> d           5.680  -0.194  -1.038  0.00  0.00     0.032 A 
BRANCH   6   9
ATOM      9  N2  <0> d           2.198   0.852  -0.479  0.00  0.00    -0.318 N 
ATOM     10  C19 <0> d           1.445  -0.182  -0.894  0.00  0.00     0.224 C 
ATOM     11  C18 <0> d          -0.021   0.121  -0.674  0.00  0.00     0.105 C 
ATOM     12  O5  <0> d           1.878  -1.208  -1.375  0.00  0.00    -0.273 OA
ATOM     13  C17 <0> d          -0.063   1.651  -0.451  0.00  0.00     0.029 C 
ATOM     14  C16 <0> d           1.367   1.934   0.062  0.00  0.00     0.133 C 
ENDBRANCH   6   9
ENDBRANCH   1   3
BRANCH   1  15
ATOM     15  S1  <0> d           8.655  -0.238  -0.144  0.00  0.00     0.263 S 
ATOM     16  O1  <0> d           8.140  -1.435  -0.711  0.00  0.00    -0.200 OA
ATOM     17  O2  <0> d          10.018   0.140  -0.272  0.00  0.00    -0.200 OA
BRANCH  15  18
ATOM     18  C7  <0> d           8.312  -0.310   1.583  0.00  0.00     0.082 A 
ATOM     19  C12 <0> d           7.214  -1.018   2.038  0.00  0.00     0.065 A 
ATOM     20  C11 <0> d           6.947  -1.072   3.396  0.00  0.00     0.103 A 
ATOM     21  C10 <0> d           7.780  -0.420   4.294  0.00  0.00     0.102 A 
ATOM     22  O3  <0> d           5.867  -1.766   3.859  0.00  0.00    -0.348 OA
ATOM     23  C9  <0> d           8.878   0.287   3.835  0.00  0.00     0.041 A 
ATOM     24  O4  <0> d           7.508  -0.479   5.630  0.00  0.00    -0.348 OA
ATOM     25  C8  <0> d           9.144   0.336   2.478  0.00  0.00     0.028 A 
ATOM     26  C15 <0> d           7.673  -1.758   6.245  0.00  0.00     0.178 C 
ATOM     27  C14 <0> d           6.424  -2.607   6.068  0.00  0.00     0.053 C 
ATOM     28  C13 <0> d           6.157  -2.946   4.610  0.00  0.00     0.178 C 
ENDBRANCH  15  18
ENDBRANCH   1  15
TORSDOF 4
