REMARK  2 active torsions:
REMARK  status: ('A' for Active; 'I' for Inactive)
REMARK    1  A    between atoms: C5_5  and  N1_9 
REMARK       I    between atoms: N1_9  and  C8_10 
REMARK    2  A    between atoms: C8_10  and  C9_12 
ROOT
ATOM      1  N1  <0> d           0.059  -4.170  -0.023  0.00  0.00    -0.319 N 
ATOM      2  C8  <0> d          -0.128  -4.854   1.123  0.00  0.00     0.283 C 
ATOM      3  O1  <0> d          -0.404  -4.259   2.147  0.00  0.00    -0.265 OA
ATOM      4  H6  <0> d           0.207  -4.648  -0.854  0.00  0.00     0.169 HD
ENDROOT
BRANCH   1   5
ATOM      5  C5  <0> d           0.041  -2.771  -0.015  0.00  0.00     0.063 A 
ATOM      6  C4  <0> d          -1.138  -2.090  -0.289  0.00  0.00    -0.033 A 
ATOM      7  C3  <0> d          -1.153  -0.709  -0.279  0.00  0.00     0.015 A 
ATOM      8  C13 <0> d          -2.398  -2.856  -0.597  0.00  0.00     0.050 C 
ATOM      9  C2  <0> d           0.003  -0.004   0.003  0.00  0.00    -0.060 A 
ATOM     10  C1  <0> d          -0.018   1.503   0.012  0.00  0.00     0.048 C 
ATOM     11  C7  <0> d           1.180  -0.679   0.272  0.00  0.00     0.033 A 
ATOM     12  C6  <0> d           1.201  -2.061   0.269  0.00  0.00     0.061 A 
ATOM     13 Cl1  <0> d           2.677  -2.908   0.613  0.00  0.00    -0.082 Cl
ENDBRANCH   1   5
BRANCH   2  14
ATOM     14  C9  <0> d           0.001  -6.325   1.135  0.00  0.00     0.189 A 
ATOM     15  S1  <0> d          -0.194  -7.456   2.503  0.00  0.00    -0.021 SA
ATOM     16  C11 <0> d           0.131  -8.960   1.617  0.00  0.00     0.218 A 
ATOM     17  N3  <0> d           0.374  -8.504   0.341  0.00  0.00    -0.191 N 
ATOM     18  N5  <0> d           0.244 -10.253   1.629  0.00  0.00    -0.120 NA
ATOM     19  N2  <0> d           0.294  -7.132   0.148  0.00  0.00    -0.151 NA
ATOM     20  C10 <0> d           0.636  -9.659  -0.372  0.00  0.00     0.148 A 
ATOM     21  N4  <0> d           0.545 -10.667   0.447  0.00  0.00    -0.133 NA
ATOM     22  C12 <0> d           0.970  -9.737  -1.840  0.00  0.00     0.095 C 
ENDBRANCH   2  14
TORSDOF 2
