REMARK  5 active torsions:
REMARK  status: ('A' for Active; 'I' for Inactive)
REMARK    1  A    between atoms: C2_2  and  C4_4 
REMARK    2  A    between atoms: C4_4  and  C5_5 
REMARK    3  A    between atoms: C6_7  and  C7_10 
REMARK    4  A    between atoms: C7_10  and  N3_11 
REMARK    5  A    between atoms: C12_16  and  C13_17 
ROOT
ATOM      1  N3  <0> d           6.298  -1.342  -1.422  0.00  0.00    -0.050 N 
ATOM      2  C8  <0> d           5.522  -2.556  -1.704  0.00  0.00     0.236 C 
ATOM      3  C9  <0> d           6.154  -3.310  -2.876  0.00  0.00     0.028 C 
ATOM      4  C10 <0> d           7.591  -3.694  -2.513  0.00  0.00     0.004 C 
ATOM      5  C11 <0> d           8.371  -2.427  -2.149  0.00  0.00     0.044 C 
ATOM      6  C12 <0> d           7.657  -1.706  -1.004  0.00  0.00     0.288 C 
ATOM      7  H21 <0> d           6.344  -0.774  -2.255  0.00  0.00     0.281 HD
ENDROOT
BRANCH   1   8
ATOM      8  C7  <0> d           5.644  -0.582  -0.349  0.00  0.00     0.318 C 
BRANCH   8   9
ATOM      9  C6  <0> d           4.296  -0.103  -0.822  0.00  0.00     0.181 A 
ATOM     10  N1  <0> d           3.144  -0.772  -0.695  0.00  0.00    -0.207 NA
ATOM     11  C5  <0> d           2.165  -0.079  -1.208  0.00  0.00     0.173 A 
ATOM     12  O1  <0> d           2.668   1.065  -1.689  0.00  0.00    -0.196 OA
ATOM     13  N2  <0> d           4.062   1.030  -1.420  0.00  0.00    -0.109 NA
BRANCH  11  14
ATOM     14  C4  <0> d           0.718  -0.497  -1.257  0.00  0.00     0.092 C 
BRANCH  14  15
ATOM     15  C2  <0> d           0.002  -0.004   0.002  0.00  0.00    -0.015 C 
ATOM     16  C1  <0> d          -0.019   1.526   0.010  0.00  0.00     0.010 C 
ATOM     17  C3  <0> d          -1.433  -0.534   0.013  0.00  0.00     0.010 C 
ENDBRANCH  14  15
ENDBRANCH  11  14
ENDBRANCH   8   9
ENDBRANCH   1   8
BRANCH   6  18
ATOM     18  C13 <0> d           8.421  -0.458  -0.643  0.00  0.00     0.205 C 
ATOM     19  O2  <0> d           9.508  -0.546  -0.097  0.00  0.00    -0.646 OA
ATOM     20  O3  <0> d           7.953   0.638  -0.896  0.00  0.00    -0.646 OA
ENDBRANCH   6  18
TORSDOF 5
