REMARK  6 active torsions:
REMARK  status: ('A' for Active; 'I' for Inactive)
REMARK    1  A    between atoms: N1_6  and  C7_8 
REMARK    2  A    between atoms: C7_8  and  C8_9 
REMARK    3  A    between atoms: C8_9  and  N2_11 
REMARK       I    between atoms: N2_11  and  C10_12 
REMARK       I    between atoms: C10_12  and  N3_14 
REMARK    4  A    between atoms: N3_14  and  N4_15 
REMARK       I    between atoms: N4_15  and  C11_16 
REMARK    5  A    between atoms: C11_16  and  C12_18 
REMARK    6  A    between atoms: C12_18  and  C13_19 
ROOT
ATOM      1  N2  <0> d           0.199  -4.504   2.224  0.00  0.00    -0.336 N 
ATOM      2  C10 <0> d          -0.001  -5.764   1.791  0.00  0.00     0.335 C 
ATOM      3  O1  <0> d           0.951  -6.475   1.530  0.00  0.00    -0.246 OA
ATOM      4  N3  <0> d          -1.254  -6.237   1.646  0.00  0.00    -0.249 N 
ATOM      5  H19 <0> d          -0.560  -3.937   2.433  0.00  0.00     0.164 HD
ATOM      6  H20 <0> d          -1.398  -7.144   1.334  0.00  0.00     0.192 HD
ENDROOT
BRANCH   1   7
ATOM      7  C8  <0> d           1.562  -3.991   2.382  0.00  0.00     0.108 C 
ATOM      8  C9  <0> d           2.089  -4.359   3.771  0.00  0.00     0.034 C 
BRANCH   7   9
ATOM      9  C7  <0> d           1.555  -2.469   2.225  0.00  0.00     0.259 C 
BRANCH   9  10
ATOM     10  N1  <0> d           0.955  -2.112   0.933  0.00  0.00    -0.069 N 
ATOM     11  C5  <0> d           0.818  -0.653   0.845  0.00  0.00     0.235 C 
ATOM     12  C4  <0> d           0.119  -0.281  -0.464  0.00  0.00     0.028 C 
ATOM     13  C3  <0> d           0.953  -0.789  -1.644  0.00  0.00     0.007 C 
ATOM     14  C2  <0> d           1.152  -2.301  -1.502  0.00  0.00     0.007 C 
ATOM     15  C1  <0> d           2.049  -2.806  -2.633  0.00  0.00     0.011 C 
ATOM     16  C6  <0> d           1.812  -2.599  -0.154  0.00  0.00     0.239 C 
ATOM     17  H35 <0> d           0.044  -2.539   0.859  0.00  0.00     0.280 HD
ENDBRANCH   9  10
ENDBRANCH   7   9
ENDBRANCH   1   7
BRANCH   4  18
ATOM     18  N4  <0> d          -2.350  -5.417   1.946  0.00  0.00    -0.266 N 
ATOM     19  C11 <0> d          -3.604  -5.889   1.802  0.00  0.00     0.236 C 
ATOM     20  O2  <0> d          -3.784  -7.024   1.411  0.00  0.00    -0.272 OA
ATOM     21  H21 <0> d          -2.207  -4.510   2.259  0.00  0.00     0.190 HD
BRANCH  19  22
ATOM     22  C12 <0> d          -4.784  -5.008   2.125  0.00  0.00     0.109 C 
BRANCH  22  23
ATOM     23  C13 <0> d          -6.081  -5.780   1.877  0.00  0.00    -0.006 C 
ATOM     24  C18 <0> d          -7.273  -4.931   2.322  0.00  0.00     0.005 C 
ATOM     25  C17 <0> d          -8.570  -5.704   2.074  0.00  0.00     0.000 C 
ATOM     26  C16 <0> d          -8.698  -6.020   0.583  0.00  0.00     0.000 C 
ATOM     27  C15 <0> d          -7.506  -6.869   0.137  0.00  0.00     0.000 C 
ATOM     28  C14 <0> d          -6.209  -6.097   0.385  0.00  0.00     0.005 C 
ENDBRANCH  22  23
ENDBRANCH  19  22
ENDBRANCH   4  18
TORSDOF 6
