REMARK  6 active torsions:
REMARK  status: ('A' for Active; 'I' for Inactive)
REMARK    1  A    between atoms: C5_6  and  O3_20 
REMARK    2  A    between atoms: C6_7  and  C10_13 
REMARK    3  A    between atoms: N1_8  and  C7_9 
REMARK    4  A    between atoms: C7_9  and  C8_10 
REMARK    5  A    between atoms: C8_10  and  O2_12 
REMARK    6  A    between atoms: C10_13  and  N2_14 
ROOT
ATOM      1  C1  <0> d           0.770   1.462   0.552  0.00  0.00     0.068 C 
ATOM      2  C2  <0> d           0.331   0.022   0.481  0.00  0.00     0.012 A 
ATOM      3  C3  <0> d          -0.310  -0.427  -0.621  0.00  0.00     0.082 A 
ATOM      4  C4  <0> d          -0.719  -1.778  -0.681  0.00  0.00     0.208 A 
ATOM      5  O1  <0> d          -1.300  -2.210  -1.667  0.00  0.00    -0.285 OA
ATOM      6  C5  <0> d          -0.443  -2.622   0.424  0.00  0.00     0.140 A 
ATOM      7  C6  <0> d           0.203  -2.110   1.500  0.00  0.00     0.075 A 
ATOM      8  N1  <0> d           0.587  -0.807   1.521  0.00  0.00    -0.348 N 
ENDROOT
BRANCH   7   9
ATOM      9  C10 <0> d           0.502  -2.997   2.681  0.00  0.00     0.294 C 
BRANCH   9  10
ATOM     10  N2  <0> d           1.745  -3.739   2.433  0.00  0.00    -0.066 N 
ATOM     11  C15 <0> d           1.983  -4.675   3.539  0.00  0.00     0.235 C 
ATOM     12  C14 <0> d           3.233  -5.508   3.248  0.00  0.00     0.028 C 
ATOM     13  C13 <0> d           4.438  -4.575   3.098  0.00  0.00     0.003 C 
ATOM     14  C12 <0> d           4.149  -3.556   1.992  0.00  0.00     0.028 C 
ATOM     15  C11 <0> d           2.865  -2.795   2.330  0.00  0.00     0.235 C 
ATOM     16  H25 <0> d           1.662  -4.255   1.570  0.00  0.00     0.280 HD
ENDBRANCH   9  10
ENDBRANCH   7   9
BRANCH   6  17
ATOM     17  O3  <0> d          -0.821  -3.929   0.405  0.00  0.00    -0.355 OA
ATOM     18  H24 <0> d          -1.275  -4.195  -0.407  0.00  0.00     0.218 HD
ENDBRANCH   6  17
BRANCH   8  19
ATOM     19  C7  <0> d           1.288  -0.287   2.697  0.00  0.00     0.160 C 
BRANCH  19  20
ATOM     20  C8  <0> d           0.288   0.413   3.619  0.00  0.00     0.132 C 
ATOM     21  C9  <0> d           1.010   0.906   4.875  0.00  0.00     0.041 C 
BRANCH  20  22
ATOM     22  O2  <0> d          -0.741  -0.506   3.991  0.00  0.00    -0.394 OA
ATOM     23  H11 <0> d          -0.421  -1.282   4.471  0.00  0.00     0.210 HD
ENDBRANCH  20  22
ENDBRANCH  19  20
ENDBRANCH   8  19
TORSDOF 6
