REMARK  3 active torsions:
REMARK  status: ('A' for Active; 'I' for Inactive)
REMARK    1  A    between atoms: C3_3  and  C5_6 
REMARK    2  A    between atoms: C7_8  and  C14_21 
REMARK    3  A    between atoms: N2_14  and  N4_17 
ROOT
ATOM      1  C5  <0> d           3.737   1.824  -0.024  0.00  0.00     0.076 A 
ATOM      2  C6  <0> d           4.803   0.917  -0.045  0.00  0.00     0.050 A 
ATOM      3  C7  <0> d           6.088   1.365  -0.054  0.00  0.00     0.065 A 
ATOM      4  C8  <0> d           6.340   2.760  -0.043  0.00  0.00     0.045 A 
ATOM      5  C9  <0> d           7.633   3.443  -0.050  0.00  0.00     0.093 A 
ATOM      6  C10 <0> d           7.588   4.842  -0.033  0.00  0.00     0.082 A 
ATOM      7  C11 <0> d           8.796   5.653  -0.029  0.00  0.00     0.136 C 
ATOM      8  N1  <0> d           8.822   6.928  -0.344  0.00  0.00    -0.383 N 
ATOM      9  N2  <0> d           9.928   4.918   0.349  0.00  0.00    -0.256 N 
ATOM     10  C12 <0> d           9.938   3.578   0.095  0.00  0.00     0.229 C 
ATOM     11  N3  <0> d           8.872   2.848  -0.077  0.00  0.00    -0.240 NA
ATOM     12  S2  <0> d           5.878   5.247  -0.016  0.00  0.00    -0.063 SA
ATOM     13  C13 <0> d           5.204   3.600  -0.024  0.00  0.00     0.112 A 
ATOM     14  N5  <0> d           3.976   3.132  -0.020  0.00  0.00    -0.239 NA
ATOM     15  H5  <0> d           8.003   7.383  -0.597  0.00  0.00     0.157 HD
ATOM     16  H9  <0> d           9.660   7.416  -0.322  0.00  0.00     0.157 HD
ENDROOT
BRANCH   1  17
ATOM     17  C3  <0> d           2.347   1.329  -0.013  0.00  0.00     0.033 A 
ATOM     18  C2  <0> d           1.176   2.042   0.002  0.00  0.00     0.021 A 
ATOM     19  C1  <0> d          -0.016   1.355   0.009  0.00  0.00     0.008 A 
ATOM     20  C4  <0> d           0.002  -0.004   0.002  0.00  0.00     0.050 A 
ATOM     21  S1  <0> d           1.752  -0.354  -0.017  0.00  0.00    -0.100 SA
ENDBRANCH   1  17
BRANCH   3  22
ATOM     22  C14 <0> d           7.234   0.386  -0.075  0.00  0.00     0.418 C 
ATOM     23  F1  <0> d           6.732  -0.920  -0.083  0.00  0.00    -0.166 F 
ATOM     24  F2  <0> d           8.005   0.595  -1.224  0.00  0.00    -0.166 F 
ATOM     25  F3  <0> d           8.029   0.573   1.060  0.00  0.00    -0.166 F 
ENDBRANCH   3  22
BRANCH   9  26
ATOM     26  N4  <0> d          10.991   5.526   0.954  0.00  0.00    -0.240 NA
ATOM     27  H7  <0> d          11.720   4.859   1.160  0.00  0.00     0.143 HD
ATOM     28  H8  <0> d          11.343   6.284   0.390  0.00  0.00     0.143 HD
ENDBRANCH   9  26
TORSDOF 3
