REMARK  5 active torsions:
REMARK  status: ('A' for Active; 'I' for Inactive)
REMARK    1  A    between atoms: C3_3  and  C6_8 
REMARK    2  A    between atoms: C6_8  and  N3_10 
REMARK       I    between atoms: N3_10  and  C8_11 
REMARK       I    between atoms: C8_11  and  N4_13 
REMARK    3  A    between atoms: N4_13  and  C9_14 
REMARK    4  A    between atoms: C9_14  and  C10_15 
REMARK    5  A    between atoms: C13_19  and  N6_21 
ROOT
ATOM      1  N3  <0> d           0.463  -1.332  -3.446  0.00  0.00    -0.335 N 
ATOM      2  C8  <0> d           1.028  -1.054  -4.637  0.00  0.00     0.316 C 
ATOM      3  O1  <0> d           1.140   0.101  -5.002  0.00  0.00    -0.247 OA
ATOM      4  N4  <0> d           1.470  -2.055  -5.424  0.00  0.00    -0.339 N 
ATOM      5  H12 <0> d           0.374  -2.253  -3.155  0.00  0.00     0.165 HD
ATOM      6  H13 <0> d           1.381  -2.976  -5.133  0.00  0.00     0.164 HD
ENDROOT
BRANCH   1   7
ATOM      7  C6  <0> d          -0.017  -0.243  -2.591  0.00  0.00     0.119 C 
ATOM      8  C7  <0> d          -1.436   0.145  -3.008  0.00  0.00     0.037 C 
BRANCH   7   9
ATOM      9  C3  <0> d          -0.022  -0.699  -1.154  0.00  0.00     0.007 A 
ATOM     10  C2  <0> d          -0.030   0.104  -0.065  0.00  0.00     0.036 A 
ATOM     11  C1  <0> d          -0.033   1.611  -0.071  0.00  0.00     0.070 C 
ATOM     12  N2  <0> d          -0.028  -0.687   1.029  0.00  0.00    -0.278 N 
ATOM     13  N1  <0> d          -0.028  -2.020   0.597  0.00  0.00    -0.184 NA
ATOM     14  C5  <0> d          -0.029  -0.232   2.422  0.00  0.00     0.179 C 
ATOM     15  C4  <0> d          -0.021  -2.025  -0.711  0.00  0.00     0.150 A 
ENDBRANCH   7   9
ENDBRANCH   1   7
BRANCH   4  16
ATOM     16  C9  <0> d           2.084  -1.752  -6.719  0.00  0.00     0.163 C 
BRANCH  16  17
ATOM     17  C10 <0> d           2.488  -3.037  -7.396  0.00  0.00    -0.035 A 
ATOM     18  C14 <0> d           1.611  -3.701  -8.234  0.00  0.00     0.057 A 
ATOM     19  C13 <0> d           2.021  -4.881  -8.845  0.00  0.00     0.102 A 
ATOM     20  N5  <0> d           3.231  -5.371  -8.620  0.00  0.00    -0.352 N 
ATOM     21  C12 <0> d           4.087  -4.762  -7.822  0.00  0.00     0.090 A 
ATOM     22  H25 <0> d           3.494  -6.198  -9.054  0.00  0.00     0.166 HD
ATOM     23  C11 <0> d           3.748  -3.584  -7.188  0.00  0.00     0.026 A 
BRANCH  19  24
ATOM     24  N6  <0> d           1.152  -5.556  -9.694  0.00  0.00    -0.376 N 
ATOM     25  C15 <0> d           1.618  -6.728 -10.439  0.00  0.00     0.150 C 
ATOM     26  C16 <0> d          -0.231  -5.095  -9.843  0.00  0.00     0.150 C 
ENDBRANCH  19  24
ENDBRANCH  16  17
ENDBRANCH   4  16
TORSDOF 5
