REMARK  8 active torsions:
REMARK  status: ('A' for Active; 'I' for Inactive)
REMARK    1  A    between atoms: C4_4  and  O4_29 
REMARK    2  A    between atoms: C5_5  and  C7_7 
REMARK       I    between atoms: C7_7  and  N1_9 
REMARK    3  A    between atoms: N1_9  and  N2_10 
REMARK       I    between atoms: N2_10  and  C8_11 
REMARK    4  A    between atoms: C8_11  and  C9_13 
REMARK    5  A    between atoms: C9_13  and  C10_14 
REMARK    6  A    between atoms: C10_14  and  C11_15 
REMARK    7  A    between atoms: C11_15  and  N3_16 
REMARK    8  A    between atoms: C14_20  and  C15_21 
ROOT
ATOM      1  N2  <0> d          -0.676  -0.546  -0.103  0.00  0.00    -0.267 N 
ATOM      2  C8  <0> d          -1.712   0.314  -0.075  0.00  0.00     0.236 C 
ATOM      3  O2  <0> d          -1.508   1.510  -0.049  0.00  0.00    -0.272 OA
ATOM      4  H6  <0> d          -0.840  -1.502  -0.124  0.00  0.00     0.190 HD
ENDROOT
BRANCH   2   5
ATOM      5  C9  <0> d          -3.126  -0.208  -0.075  0.00  0.00     0.106 C 
BRANCH   5   6
ATOM      6  C10 <0> d          -4.104   0.968  -0.040  0.00  0.00     0.029 C 
BRANCH   6   7
ATOM      7  C11 <0> d          -5.539   0.438  -0.040  0.00  0.00     0.134 C 
BRANCH   7   8
ATOM      8  N3  <0> d          -6.476   1.563  -0.006  0.00  0.00    -0.298 N 
ATOM      9  C19 <0> d          -6.896   2.045   1.185  0.00  0.00     0.148 A 
ATOM     10  S2  <0> d          -7.989   3.372   0.699  0.00  0.00    -0.055 SA
ATOM     11  S3  <0> d          -6.484   1.517   2.761  0.00  0.00    -0.052 SA
ATOM     12  C13 <0> d          -7.815   3.186  -1.071  0.00  0.00     0.077 A 
ATOM     13  C12 <0> d          -6.902   2.090  -1.141  0.00  0.00     0.266 A 
ATOM     14  C14 <0> d          -8.395   3.897  -2.079  0.00  0.00     0.043 C 
ATOM     15  O3  <0> d          -6.528   1.654  -2.215  0.00  0.00    -0.266 OA
BRANCH  14  16
ATOM     16  C15 <0> d          -7.982   3.696  -3.416  0.00  0.00     0.006 A 
ATOM     17  S1  <0> d          -6.363   3.282  -4.042  0.00  0.00    -0.102 SA
ATOM     18  C18 <0> d          -6.744   3.229  -5.733  0.00  0.00     0.050 A 
ATOM     19  C17 <0> d          -8.070   3.523  -5.764  0.00  0.00     0.008 A 
ATOM     20  C16 <0> d          -8.732   3.761  -4.585  0.00  0.00     0.019 A 
ENDBRANCH  14  16
ENDBRANCH   7   8
ENDBRANCH   6   7
ENDBRANCH   5   6
ENDBRANCH   2   5
BRANCH   1  21
ATOM     21  N1  <0> d           0.638  -0.061  -0.109  0.00  0.00    -0.263 N 
ATOM     22  C7  <0> d           1.675  -0.921  -0.143  0.00  0.00     0.272 C 
ATOM     23  O1  <0> d           1.469  -2.120  -0.169  0.00  0.00    -0.266 OA
ATOM     24  H5  <0> d           0.802   0.895  -0.089  0.00  0.00     0.190 HD
BRANCH  22  25
ATOM     25  C5  <0> d           3.059  -0.410  -0.149  0.00  0.00     0.066 A 
ATOM     26  C4  <0> d           4.139  -1.301  -0.185  0.00  0.00     0.081 A 
ATOM     27  C3  <0> d           5.436  -0.809  -0.190  0.00  0.00     0.037 A 
ATOM     28  C2  <0> d           5.660   0.553  -0.161  0.00  0.00     0.003 A 
ATOM     29  C1  <0> d           4.594   1.437  -0.127  0.00  0.00     0.001 A 
ATOM     30  C6  <0> d           3.299   0.966  -0.126  0.00  0.00     0.020 A 
BRANCH  26  31
ATOM     31  O4  <0> d           3.918  -2.639  -0.214  0.00  0.00    -0.360 OA
ATOM     32  H17 <0> d           3.843  -3.006  -1.106  0.00  0.00     0.217 HD
ENDBRANCH  26  31
ENDBRANCH  22  25
ENDBRANCH   1  21
TORSDOF 8
