REMARK  6 active torsions:
REMARK  status: ('A' for Active; 'I' for Inactive)
REMARK    1  A    between atoms: N1_2  and  S1_4 
REMARK    2  A    between atoms: S1_4  and  C3_7 
REMARK    3  A    between atoms: C7_11  and  N2_13 
REMARK    4  A    between atoms: N2_13  and  C9_14 
REMARK    5  A    between atoms: N3_16  and  N4_17 
REMARK    6  A    between atoms: N4_17  and  C10_18 
ROOT
ATOM      1  C9  <0> d          -3.738   7.293   0.464  0.00  0.00     0.191 C 
ATOM      2  S2  <0> d          -5.145   8.137   0.951  0.00  0.00    -0.039 SA
ATOM      3  N3  <0> d          -3.723   5.945   0.475  0.00  0.00    -0.276 N 
ATOM      4  H12 <0> d          -4.510   5.454   0.759  0.00  0.00     0.189 HD
ENDROOT
BRANCH   1   5
ATOM      5  N2  <0> d          -2.644   7.975   0.070  0.00  0.00    -0.332 N 
ATOM      6  H11 <0> d          -1.827   7.499  -0.146  0.00  0.00     0.168 HD
BRANCH   5   7
ATOM      7  C7  <0> d          -2.688   9.370  -0.028  0.00  0.00     0.035 A 
ATOM      8  C6  <0> d          -2.157  10.007  -1.142  0.00  0.00     0.029 A 
ATOM      9  C5  <0> d          -2.207  11.384  -1.237  0.00  0.00     0.004 A 
ATOM     10  C4  <0> d          -2.774  12.129  -0.220  0.00  0.00     0.025 A 
ATOM     11  C3  <0> d          -3.299  11.498   0.893  0.00  0.00     0.081 A 
ATOM     12  C8  <0> d          -3.258  10.121   0.993  0.00  0.00     0.054 A 
BRANCH  11  13
ATOM     13  S1  <0> d          -4.020  12.453   2.187  0.00  0.00     0.260 S 
ATOM     14  O1  <0> d          -4.426  13.684   1.605  0.00  0.00    -0.200 OA
ATOM     15  O2  <0> d          -4.928  11.596   2.866  0.00  0.00    -0.200 OA
BRANCH  13  16
ATOM     16  N1  <0> d          -2.813  12.811   3.262  0.00  0.00    -0.315 N 
ATOM     17  C1  <0> d          -2.023  14.034   3.096  0.00  0.00     0.162 C 
ATOM     18  C2  <0> d          -2.535  11.906   4.380  0.00  0.00     0.162 C 
ENDBRANCH  13  16
ENDBRANCH  11  13
ENDBRANCH   5   7
ENDBRANCH   1   5
BRANCH   3  19
ATOM     19  N4  <0> d          -2.571   5.254   0.077  0.00  0.00    -0.298 N 
ATOM     20  H13 <0> d          -1.785   5.745  -0.206  0.00  0.00     0.187 HD
BRANCH  19  21
ATOM     21  C10 <0> d          -2.556   3.867   0.089  0.00  0.00     0.062 A 
ATOM     22  C14 <0> d          -1.405   3.147  -0.308  0.00  0.00     0.021 A 
ATOM     23  C13 <0> d          -1.441   1.732  -0.284  0.00  0.00     0.070 A 
ATOM     24  C15 <0> d          -0.241   3.805  -0.728  0.00  0.00     0.018 A 
ATOM     25  N5  <0> d          -2.552   1.098   0.109  0.00  0.00    -0.260 NA
ATOM     26  C18 <0> d          -0.298   1.013  -0.673  0.00  0.00     0.056 A 
ATOM     27  C12 <0> d          -3.628   1.756   0.475  0.00  0.00     0.119 A 
ATOM     28  C11 <0> d          -3.674   3.143   0.473  0.00  0.00     0.051 A 
ATOM     29  C17 <0> d           0.818   1.683  -1.076  0.00  0.00     0.036 A 
ATOM     30  C16 <0> d           0.847   3.077  -1.104  0.00  0.00     0.025 A 
ATOM     31 Cl1  <0> d           2.224   0.789  -1.562  0.00  0.00    -0.084 Cl
ENDBRANCH  19  21
ENDBRANCH   3  19
TORSDOF 6
