REMARK  5 active torsions:
REMARK  status: ('A' for Active; 'I' for Inactive)
REMARK    1  A    between atoms: C6_6  and  S1_8 
REMARK    2  A    between atoms: S1_8  and  N1_11 
REMARK    3  A    between atoms: N2_14  and  C12_17 
REMARK    4  A    between atoms: C12_17  and  C14_19 
REMARK       I    between atoms: C14_19  and  N3_21 
REMARK    5  A    between atoms: N3_21  and  C15_22 
ROOT
ATOM      1  C15 <0> d           0.295   3.946  -5.756  0.00  0.00     0.216 C 
ATOM      2  C16 <0> d          -0.219   4.605  -6.968  0.00  0.00    -0.098 C 
ATOM      3  C17 <0> d          -0.629   5.131  -7.934  0.00  0.00     0.014 C 
ENDROOT
BRANCH   1   4
ATOM      4  N3  <0> d          -0.701   4.043  -4.687  0.00  0.00    -0.349 N 
ATOM      5  C14 <0> d          -0.447   3.506  -3.477  0.00  0.00     0.249 C 
ATOM      6  O3  <0> d           0.608   2.943  -3.274  0.00  0.00    -0.271 OA
ATOM      7  H19 <0> d          -1.658   4.554  -4.871  0.00  0.00     0.163 HD
BRANCH   5   8
ATOM      8  C12 <0> d          -1.472   3.606  -2.377  0.00  0.00     0.275 C 
ATOM      9  C13 <0> d          -1.287   4.926  -1.626  0.00  0.00     0.050 C 
BRANCH   8  10
ATOM     10  N2  <0> d          -1.300   2.484  -1.444  0.00  0.00    -0.056 N 
ATOM     11  C9  <0> d          -1.546   1.200  -2.115  0.00  0.00     0.256 C 
ATOM     12  C8  <0> d          -1.183   0.054  -1.164  0.00  0.00     0.163 C 
ATOM     13  N1  <0> d          -1.908   0.244   0.101  0.00  0.00    -0.303 N 
ATOM     14  C11 <0> d          -1.824   1.557   0.761  0.00  0.00     0.163 C 
ATOM     15  C10 <0> d          -2.162   2.643  -0.265  0.00  0.00     0.256 C 
ATOM     16  H26 <0> d          -0.256   2.487  -1.099  0.00  0.00     0.281 HD
BRANCH  13  17
ATOM     17  S1  <0> d          -2.799  -0.985   0.762  0.00  0.00     0.261 S 
ATOM     18  O1  <0> d          -3.775  -0.376   1.597  0.00  0.00    -0.200 OA
ATOM     19  O2  <0> d          -3.146  -1.855  -0.306  0.00  0.00    -0.200 OA
BRANCH  17  20
ATOM     20  C6  <0> d          -1.726  -1.894   1.824  0.00  0.00     0.086 A 
ATOM     21  C5  <0> d          -0.651  -2.583   1.295  0.00  0.00    -0.039 A 
ATOM     22  C4  <0> d           0.191  -3.296   2.127  0.00  0.00     0.009 A 
ATOM     23  C18 <0> d          -0.397  -2.557  -0.191  0.00  0.00     0.050 C 
ATOM     24  C3  <0> d          -0.042  -3.320   3.490  0.00  0.00     0.007 A 
ATOM     25  C2  <0> d          -1.117  -2.630   4.019  0.00  0.00    -0.060 A 
ATOM     26  C1  <0> d          -1.370  -2.655   5.505  0.00  0.00     0.048 C 
ATOM     27  C7  <0> d          -1.956  -1.914   3.187  0.00  0.00     0.032 A 
ENDBRANCH  17  20
ENDBRANCH  13  17
ENDBRANCH   8  10
ENDBRANCH   5   8
ENDBRANCH   1   4
TORSDOF 5
