REMARK  5 active torsions:
REMARK  status: ('A' for Active; 'I' for Inactive)
REMARK    1  A    between atoms: C2_3  and  C14_20 
REMARK    2  A    between atoms: C4_5  and  C7_12 
REMARK    3  A    between atoms: C10_15  and  O2_18 
REMARK    4  A    between atoms: C17_23  and  O4_28 
REMARK    5  A    between atoms: C18_24  and  O3_26 
ROOT
ATOM      1  C1  <0> d          -0.018   1.461   0.010  0.00  0.00     0.154 C 
ATOM      2  N1  <0> d           0.002  -0.004   0.002  0.00  0.00    -0.338 N 
ATOM      3  C2  <0> d          -1.181  -0.873   0.003  0.00  0.00     0.158 A 
ATOM      4  C3  <0> d          -0.668  -2.287  -0.007  0.00  0.00     0.034 A 
ATOM      5  C4  <0> d          -0.959  -3.613  -0.013  0.00  0.00     0.071 A 
ATOM      6  N2  <0> d           0.235  -4.276  -0.023  0.00  0.00    -0.276 N 
ATOM      7  H2  <0> d           0.336  -5.241  -0.029  0.00  0.00     0.189 HD
ATOM      8  N3  <0> d           1.205  -3.433  -0.022  0.00  0.00    -0.168 NA
ATOM      9  C5  <0> d           0.743  -2.198  -0.013  0.00  0.00     0.155 A 
ATOM     10  C6  <0> d           1.107  -0.770  -0.013  0.00  0.00     0.275 A 
ATOM     11  O1  <0> d           2.245  -0.344  -0.022  0.00  0.00    -0.266 OA
ENDROOT
BRANCH   3  12
ATOM     12  C14 <0> d          -2.002  -0.628   1.243  0.00  0.00    -0.028 A 
ATOM     13  C19 <0> d          -3.382  -0.635   1.168  0.00  0.00     0.049 A 
ATOM     14  C18 <0> d          -4.139  -0.414   2.308  0.00  0.00     0.101 A 
ATOM     15  C17 <0> d          -3.506  -0.176   3.524  0.00  0.00     0.099 A 
ATOM     16  C16 <0> d          -2.122  -0.165   3.591  0.00  0.00     0.040 A 
ATOM     17  C15 <0> d          -1.373  -0.391   2.451  0.00  0.00     0.012 A 
BRANCH  14  18
ATOM     18  O3  <0> d          -5.497  -0.426   2.238  0.00  0.00    -0.353 OA
ATOM     19  C20 <0> d          -6.078  -0.677   0.957  0.00  0.00     0.210 C 
ENDBRANCH  14  18
BRANCH  15  20
ATOM     20  O4  <0> d          -4.243   0.045   4.645  0.00  0.00    -0.358 OA
ATOM     21  H19 <0> d          -4.456   0.976   4.799  0.00  0.00     0.217 HD
ENDBRANCH  15  20
ENDBRANCH   3  12
BRANCH   5  22
ATOM     22  C7  <0> d          -2.308  -4.222  -0.011  0.00  0.00    -0.007 A 
ATOM     23  C12 <0> d          -2.599  -5.282  -0.869  0.00  0.00     0.016 A 
ATOM     24  C11 <0> d          -3.855  -5.850  -0.860  0.00  0.00     0.037 A 
ATOM     25  C10 <0> d          -4.834  -5.361  -0.006  0.00  0.00     0.068 A 
ATOM     26  C9  <0> d          -4.550  -4.301   0.846  0.00  0.00     0.037 A 
ATOM     27  C8  <0> d          -3.294  -3.732   0.846  0.00  0.00     0.016 A 
BRANCH  25  28
ATOM     28  O2  <0> d          -6.072  -5.919  -0.003  0.00  0.00    -0.356 OA
ATOM     29  C13 <0> d          -6.296  -7.006  -0.904  0.00  0.00     0.210 C 
ENDBRANCH  25  28
ENDBRANCH   5  22
TORSDOF 5
