REMARK  6 active torsions:
REMARK  status: ('A' for Active; 'I' for Inactive)
REMARK    1  A    between atoms: S1_2  and  C2_3 
REMARK    2  A    between atoms: C2_3  and  C3_4 
REMARK    3  A    between atoms: C3_4  and  C4_5 
REMARK    4  A    between atoms: N1_10  and  C9_13 
REMARK    5  A    between atoms: C9_13  and  C10_14 
REMARK    6  A    between atoms: C10_14  and  C11_15 
ROOT
ATOM      1  C4  <0> d           1.701  -2.297  -2.963  0.00  0.00     0.237 C 
ATOM      2  C5  <0> d           1.730  -3.827  -3.164  0.00  0.00     0.128 A 
ATOM      3  C6  <0> d           3.125  -4.121  -3.782  0.00  0.00     0.147 A 
ATOM      4  C7  <0> d           2.794  -4.614  -5.172  0.00  0.00     0.234 A 
ATOM      5  O1  <0> d           3.606  -4.952  -6.007  0.00  0.00    -0.272 OA
ATOM      6  N1  <0> d           1.467  -4.620  -5.338  0.00  0.00    -0.287 N 
ATOM      7  C8  <0> d           0.760  -4.201  -4.262  0.00  0.00     0.233 A 
ATOM      8  O2  <0> d          -0.448  -4.131  -4.183  0.00  0.00    -0.272 OA
ATOM      9  C17 <0> d           3.814  -2.753  -3.852  0.00  0.00     0.279 A 
ATOM     10  N2  <0> d           3.130  -1.895  -2.873  0.00  0.00     0.113 N 
ATOM     11  C18 <0> d           5.287  -2.863  -3.574  0.00  0.00     0.017 A 
ATOM     12  C19 <0> d           6.017  -3.322  -2.501  0.00  0.00     0.012 A 
ATOM     13  C20 <0> d           7.399  -3.295  -2.542  0.00  0.00     0.001 A 
ATOM     14  C21 <0> d           8.045  -2.804  -3.662  0.00  0.00     0.002 A 
ATOM     15  C22 <0> d           7.318  -2.343  -4.739  0.00  0.00     0.030 A 
ATOM     16  C23 <0> d           5.925  -2.368  -4.707  0.00  0.00     0.044 A 
ATOM     17  N3  <0> d           4.983  -1.964  -5.655  0.00  0.00    -0.324 N 
ATOM     18  C24 <0> d           3.719  -2.158  -5.230  0.00  0.00     0.267 A 
ATOM     19  O3  <0> d           2.703  -1.901  -5.840  0.00  0.00    -0.270 OA
ATOM     20  H20 <0> d           3.245  -0.918  -3.096  0.00  0.00     0.318 HD
ATOM     21  H25 <0> d           5.211  -1.588  -6.519  0.00  0.00     0.169 HD
ENDROOT
BRANCH   1  22
ATOM     22  C3  <0> d           0.966  -1.944  -1.668  0.00  0.00     0.046 C 
BRANCH  22  23
ATOM     23  C2  <0> d           0.873  -0.423  -1.533  0.00  0.00     0.075 C 
BRANCH  23  24
ATOM     24  S1  <0> d           0.002  -0.004   0.002  0.00  0.00    -0.173 SA
ATOM     25  C1  <0> d          -0.022   1.810   0.012  0.00  0.00     0.089 C 
ENDBRANCH  23  24
ENDBRANCH  22  23
ENDBRANCH   1  22
BRANCH   6  26
ATOM     26  C9  <0> d           0.825  -5.051  -6.582  0.00  0.00     0.139 C 
BRANCH  26  27
ATOM     27  C10 <0> d           0.546  -6.554  -6.517  0.00  0.00     0.059 C 
BRANCH  27  28
ATOM     28  C11 <0> d          -0.114  -6.998  -7.797  0.00  0.00    -0.057 A 
ATOM     29  C16 <0> d           0.659  -7.423  -8.862  0.00  0.00     0.007 A 
ATOM     30  C15 <0> d           0.053  -7.834 -10.035  0.00  0.00     0.001 A 
ATOM     31  C14 <0> d          -1.324  -7.813 -10.146  0.00  0.00     0.000 A 
ATOM     32  C13 <0> d          -2.097  -7.383  -9.083  0.00  0.00     0.001 A 
ATOM     33  C12 <0> d          -1.492  -6.976  -7.909  0.00  0.00     0.007 A 
ENDBRANCH  27  28
ENDBRANCH  26  27
ENDBRANCH   6  26
TORSDOF 6
