REMARK  6 active torsions:
REMARK  status: ('A' for Active; 'I' for Inactive)
REMARK    1  A    between atoms: C4_5  and  C5_6 
REMARK    2  A    between atoms: C5_6  and  C6_7 
REMARK    3  A    between atoms: C5_6  and  N2_9 
REMARK    4  A    between atoms: C6_7  and  N1_8 
REMARK    5  A    between atoms: N3_12  and  C11_15 
REMARK    6  A    between atoms: C11_15  and  C12_16 
ROOT
ATOM      1  C5  <0> d          -1.156  -0.969   0.008  0.00  0.00     0.288 C 
ENDROOT
BRANCH   1   2
ATOM      2  C4  <0> d          -0.243   0.172   0.380  0.00  0.00     0.018 A 
ATOM      3  C1  <0> d          -0.563   1.446   0.714  0.00  0.00     0.036 A 
ATOM      4  C2  <0> d           0.452   2.333   1.023  0.00  0.00     0.018 A 
ATOM      5  C3  <0> d           1.737   1.901   0.982  0.00  0.00     0.069 A 
ATOM      6 Br1  <0> d           0.055   4.120   1.494  0.00  0.00    -0.051 Br
ATOM      7  S1  <0> d           1.538   0.195   0.496  0.00  0.00    -0.103 SA
ENDBRANCH   1   2
BRANCH   1   8
ATOM      8  C6  <0> d          -1.005  -1.277  -1.483  0.00  0.00     0.270 C 
BRANCH   8   9
ATOM      9  N1  <0> d          -1.802  -2.463  -1.821  0.00  0.00    -0.077 N 
ATOM     10  H6  <0> d          -1.703  -2.667  -2.804  0.00  0.00     0.274 HD
ATOM     11  H7  <0> d          -1.479  -3.252  -1.280  0.00  0.00     0.274 HD
ATOM     12  H23 <0> d          -2.773  -2.287  -1.610  0.00  0.00     0.274 HD
ENDBRANCH   8   9
ENDBRANCH   1   8
BRANCH   1  13
ATOM     13  N2  <0> d          -0.798  -2.158   0.793  0.00  0.00     0.102 N 
ATOM     14  C10 <0> d          -0.825  -1.867   2.233  0.00  0.00     0.301 C 
ATOM     15  C9  <0> d          -0.506  -3.143   3.015  0.00  0.00     0.265 C 
ATOM     16  N3  <0> d           0.820  -3.638   2.623  0.00  0.00    -0.067 N 
ATOM     17  C8  <0> d           0.825  -3.948   1.187  0.00  0.00     0.265 C 
ATOM     18  H24 <0> d           1.514  -2.931   2.817  0.00  0.00     0.280 HD
ATOM     19  C7  <0> d           0.517  -2.679   0.391  0.00  0.00     0.301 C 
BRANCH  16  20
ATOM     20  C11 <0> d           1.134  -4.853   3.387  0.00  0.00     0.239 C 
BRANCH  20  21
ATOM     21  C12 <0> d           1.252  -4.506   4.872  0.00  0.00     0.011 A 
ATOM     22  C14 <0> d           1.461  -5.661   5.854  0.00  0.00     0.007 A 
ATOM     23  C13 <0> d           2.615  -4.707   5.539  0.00  0.00     0.007 A 
ENDBRANCH  20  21
ENDBRANCH  16  20
ENDBRANCH   1  13
TORSDOF 6
