REMARK  4 active torsions:
REMARK  status: ('A' for Active; 'I' for Inactive)
REMARK    1  A    between atoms: C7_9  and  S1_10 
REMARK    2  A    between atoms: S1_10  and  C8_11 
REMARK    3  A    between atoms: C8_11  and  C9_12 
REMARK       I    between atoms: C9_12  and  N3_14 
REMARK    4  A    between atoms: N3_14  and  C10_15 
ROOT
ATOM      1  C9  <0> d           7.479  -1.854  -0.082  0.00  0.00     0.228 C 
ATOM      2  O1  <0> d           7.939  -0.732  -0.081  0.00  0.00    -0.273 OA
ATOM      3  N3  <0> d           8.303  -2.921  -0.096  0.00  0.00    -0.347 N 
ATOM      4  H9  <0> d           7.934  -3.818  -0.097  0.00  0.00     0.163 HD
ENDROOT
BRANCH   1   5
ATOM      5  C8  <0> d           5.985  -2.056  -0.068  0.00  0.00     0.185 C 
BRANCH   5   6
ATOM      6  S1  <0> d           5.158  -0.442  -0.052  0.00  0.00    -0.082 SA
BRANCH   6   7
ATOM      7  C7  <0> d           3.442  -0.843  -0.036  0.00  0.00     0.173 A 
ATOM      8  N1  <0> d           2.422   0.056  -0.021  0.00  0.00    -0.300 N 
ATOM      9  C3  <0> d           2.377   1.430  -0.013  0.00  0.00     0.099 A 
ATOM     10  C4  <0> d           1.243  -0.676  -0.013  0.00  0.00     0.058 A 
ATOM     11  C2  <0> d           1.196   2.074   0.002  0.00  0.00     0.018 A 
ATOM     12  C1  <0> d          -0.016   1.354   0.009  0.00  0.00     0.004 A 
ATOM     13  C5  <0> d           0.002  -0.004   0.002  0.00  0.00     0.031 A 
ATOM     14  C6  <0> d           1.606  -2.003  -0.024  0.00  0.00     0.149 A 
ATOM     15  N2  <0> d           2.943  -2.059  -0.038  0.00  0.00    -0.234 NA
ENDBRANCH   6   7
ENDBRANCH   5   6
ENDBRANCH   1   5
BRANCH   3  16
ATOM     16  C10 <0> d           9.754  -2.725  -0.110  0.00  0.00     0.176 C 
ATOM     17  C15 <0> d          10.229  -2.536  -1.536  0.00  0.00     0.240 C 
ATOM     18  N4  <0> d          11.475  -2.132  -1.781  0.00  0.00    -0.359 N 
ATOM     19  O2  <0> d           9.474  -2.759  -2.458  0.00  0.00    -0.271 OA
ATOM     20  C14 <0> d          12.399  -1.849  -0.671  0.00  0.00     0.122 C 
ATOM     21  H18 <0> d          11.774  -2.021  -2.697  0.00  0.00     0.162 HD
ATOM     22  C13 <0> d          12.812  -3.175  -0.027  0.00  0.00     0.020 C 
ATOM     23  C12 <0> d          11.811  -3.596   1.033  0.00  0.00     0.004 C 
ATOM     24  C11 <0> d          10.445  -3.958   0.477  0.00  0.00     0.035 C 
ENDBRANCH   3  16
TORSDOF 4
