REMARK  5 active torsions:
REMARK  status: ('A' for Active; 'I' for Inactive)
REMARK    1  A    between atoms: O1_2  and  C2_3 
REMARK    2  A    between atoms: C5_6  and  C8_9 
REMARK    3  A    between atoms: C9_10  and  C17_20 
REMARK    4  A    between atoms: N1_12  and  C11_14 
REMARK    5  A    between atoms: C18_22  and  N7_33 
ROOT
ATOM      1  C8  <0> d           2.422  -2.550  -4.381  0.00  0.00     0.099 A 
ATOM      2  C9  <0> d           3.307  -3.644  -4.312  0.00  0.00     0.034 A 
ATOM      3  C10 <0> d           3.781  -3.874  -5.555  0.00  0.00     0.132 A 
ATOM      4  N1  <0> d           3.222  -2.960  -6.390  0.00  0.00    -0.244 N 
ATOM      5  N2  <0> d           2.370  -2.145  -5.633  0.00  0.00    -0.167 NA
ENDROOT
BRANCH   2   6
ATOM      6  C17 <0> d           3.660  -4.421  -3.070  0.00  0.00     0.263 C 
ATOM      7  N5  <0> d           4.322  -5.680  -3.436  0.00  0.00    -0.150 N 
ATOM      8  C19 <0> d           5.705  -5.792  -3.458  0.00  0.00     0.747 A 
ATOM      9  C20 <0> d           3.805  -6.886  -3.800  0.00  0.00     0.083 A 
ATOM     10  N4  <0> d           6.503  -4.751  -3.127  0.00  0.00     0.128 NA
ATOM     11  N6  <0> d           6.038  -6.998  -3.850  0.00  0.00    -0.060 NA
ATOM     12  C18 <0> d           5.954  -3.690  -2.560  0.00  0.00     0.711 C 
ATOM     13  N3  <0> d           4.620  -3.658  -2.253  0.00  0.00    -0.198 N 
ATOM     14  H21 <0> d           4.308  -3.132  -1.500  0.00  0.00     0.180 HD
ATOM     15  C25 <0> d           4.917  -7.726  -4.066  0.00  0.00     0.103 A 
ATOM     16  C24 <0> d           4.734  -9.053  -4.472  0.00  0.00     0.034 A 
ATOM     17  C23 <0> d           3.429  -9.497  -4.596  0.00  0.00     0.002 A 
ATOM     18  C22 <0> d           2.347  -8.675  -4.335  0.00  0.00     0.002 A 
ATOM     19  C21 <0> d           2.505  -7.358  -3.933  0.00  0.00     0.033 A 
BRANCH  12  20
ATOM     20  N7  <0> d           6.735  -2.603  -2.274  0.00  0.00    -0.233 N 
ATOM     21  H19 <0> d           6.342  -1.820  -1.859  0.00  0.00     0.174 HD
ATOM     22  H20 <0> d           7.681  -2.616  -2.487  0.00  0.00     0.174 HD
ENDBRANCH  12  20
ENDBRANCH   2   6
BRANCH   1  23
ATOM     23  C5  <0> d           1.675  -1.959  -3.243  0.00  0.00    -0.005 A 
ATOM     24  C4  <0> d           1.585  -0.575  -3.110  0.00  0.00     0.016 A 
ATOM     25  C3  <0> d           0.890  -0.029  -2.051  0.00  0.00     0.037 A 
ATOM     26  C2  <0> d           0.280  -0.857  -1.119  0.00  0.00     0.068 A 
ATOM     27  C7  <0> d           0.373  -2.236  -1.246  0.00  0.00     0.037 A 
ATOM     28  C6  <0> d           1.062  -2.788  -2.305  0.00  0.00     0.016 A 
BRANCH  26  29
ATOM     29  O1  <0> d          -0.405  -0.316  -0.078  0.00  0.00    -0.356 OA
ATOM     30  C1  <0> d          -0.461   1.110  -0.008  0.00  0.00     0.210 C 
ENDBRANCH  26  29
ENDBRANCH   1  23
BRANCH   4  31
ATOM     31  C11 <0> d           3.453  -2.854  -7.768  0.00  0.00     0.058 A 
ATOM     32  C16 <0> d           2.812  -1.868  -8.507  0.00  0.00     0.031 A 
ATOM     33  C15 <0> d           3.046  -1.762  -9.864  0.00  0.00     0.002 A 
ATOM     34  C14 <0> d           3.908  -2.644 -10.489  0.00  0.00     0.000 A 
ATOM     35  C13 <0> d           4.543  -3.631  -9.757  0.00  0.00     0.002 A 
ATOM     36  C12 <0> d           4.318  -3.738  -8.399  0.00  0.00     0.031 A 
ENDBRANCH   4  31
TORSDOF 5
