REMARK  4 active torsions:
REMARK  status: ('A' for Active; 'I' for Inactive)
REMARK    1  A    between atoms: C3_4  and  S1_9 
REMARK    2  A    between atoms: C4_5  and  C5_7 
REMARK    3  A    between atoms: C5_7  and  N3_8 
REMARK    4  A    between atoms: S1_9  and  C6_10 
ROOT
ATOM      1  C1  <0> d          -0.016   1.318   0.009  0.00  0.00     0.136 A 
ATOM      2  C2  <0> d           1.169   2.030   0.002  0.00  0.00     0.137 A 
ATOM      3  N1  <0> d           2.326   1.390  -0.013  0.00  0.00    -0.250 NA
ATOM      4  C3  <0> d           2.349   0.063  -0.020  0.00  0.00     0.126 A 
ATOM      5  C4  <0> d           1.152  -0.650  -0.013  0.00  0.00     0.095 A 
ATOM      6  N2  <0> d           0.002  -0.004   0.002  0.00  0.00    -0.259 NA
ENDROOT
BRANCH   4   7
ATOM      7  S1  <0> d           3.888  -0.794  -0.040  0.00  0.00    -0.041 SA
BRANCH   7   8
ATOM      8  C6  <0> d           5.093   0.492  -0.045  0.00  0.00     0.140 A 
ATOM      9  S2  <0> d           6.770   0.355  -0.062  0.00  0.00    -0.073 SA
ATOM     10  C8  <0> d           7.161   2.097  -0.059  0.00  0.00     0.071 A 
ATOM     11  C7  <0> d           5.917   2.635  -0.037  0.00  0.00     0.126 A 
ATOM     12  N4  <0> d           4.899   1.794  -0.030  0.00  0.00    -0.246 NA
ENDBRANCH   7   8
ENDBRANCH   4   7
BRANCH   5  13
ATOM     13  C5  <0> d           1.172  -2.157  -0.021  0.00  0.00     0.291 C 
BRANCH  13  14
ATOM     14  N3  <0> d           1.192  -2.654   1.361  0.00  0.00    -0.074 N 
ATOM     15  H5  <0> d           2.016  -2.310   1.830  0.00  0.00     0.274 HD
ATOM     16  H6  <0> d           0.368  -2.331   1.846  0.00  0.00     0.274 HD
ATOM     17  H9  <0> d           1.205  -3.663   1.355  0.00  0.00     0.274 HD
ENDBRANCH  13  14
ENDBRANCH   5  13
TORSDOF 4
