REMARK  5 active torsions:
REMARK  status: ('A' for Active; 'I' for Inactive)
REMARK    1  A    between atoms: N1_2  and  C2_3 
REMARK    2  A    between atoms: N1_2  and  C9_11 
REMARK    3  A    between atoms: C2_3  and  C3_4 
REMARK    4  A    between atoms: C14_16  and  C15_17 
REMARK    5  A    between atoms: C15_17  and  N2_18 
ROOT
ATOM      1  C9  <0> d          -0.107  -0.848  -1.083  0.00  0.00     0.044 A 
ATOM      2  C10 <0> d           1.049  -1.268  -1.729  0.00  0.00     0.030 A 
ATOM      3  C11 <0> d           0.974  -1.819  -2.992  0.00  0.00     0.002 A 
ATOM      4  C12 <0> d          -0.251  -1.956  -3.625  0.00  0.00     0.001 A 
ATOM      5  C13 <0> d          -1.408  -1.545  -2.999  0.00  0.00     0.017 A 
ATOM      6  C14 <0> d          -1.349  -0.992  -1.718  0.00  0.00     0.034 A 
ENDROOT
BRANCH   1   7
ATOM      7  N1  <0> d          -0.034  -0.293   0.189  0.00  0.00    -0.380 N 
ATOM      8  C1  <0> d           0.015   1.162   0.352  0.00  0.00     0.150 C 
BRANCH   7   9
ATOM      9  C2  <0> d          -0.005  -1.163   1.367  0.00  0.00     0.161 C 
BRANCH   9  10
ATOM     10  C3  <0> d          -1.415  -1.515   1.767  0.00  0.00    -0.039 A 
ATOM     11  C8  <0> d          -2.023  -2.638   1.238  0.00  0.00     0.027 A 
ATOM     12  C7  <0> d          -3.315  -2.964   1.609  0.00  0.00     0.011 A 
ATOM     13  C6  <0> d          -4.002  -2.159   2.501  0.00  0.00     0.019 A 
ATOM     14 Br1  <0> d          -4.145  -4.505   0.893  0.00  0.00    -0.051 Br
ATOM     15  C5  <0> d          -3.395  -1.033   3.024  0.00  0.00     0.002 A 
ATOM     16  C4  <0> d          -2.102  -0.711   2.657  0.00  0.00     0.009 A 
ENDBRANCH   9  10
ENDBRANCH   7   9
ENDBRANCH   1   7
BRANCH   6  17
ATOM     17  C15 <0> d          -2.585  -0.554  -1.041  0.00  0.00     0.104 C 
ATOM     18  N3  <0> d          -3.581  -1.419  -0.849  0.00  0.00    -0.385 N 
ATOM     19  H15 <0> d          -3.494  -2.335  -1.154  0.00  0.00     0.157 HD
ATOM     20  H16 <0> d          -4.394  -1.132  -0.403  0.00  0.00     0.157 HD
BRANCH  17  21
ATOM     21  N2  <0> d          -2.705   0.705  -0.621  0.00  0.00    -0.385 N 
ATOM     22  H14 <0> d          -3.476   0.969  -0.095  0.00  0.00     0.157 HD
ATOM     23  H17 <0> d          -2.022   1.357  -0.841  0.00  0.00     0.157 HD
ENDBRANCH  17  21
ENDBRANCH   6  17
TORSDOF 5
