REMARK  3 active torsions:
REMARK  status: ('A' for Active; 'I' for Inactive)
REMARK    1  A    between atoms: N1_7  and  C7_8 
REMARK    2  A    between atoms: C7_8  and  C11_15 
REMARK    3  A    between atoms: C11_15  and  N2_16 
ROOT
ATOM      1  C7  <0> d           1.496   0.408   1.065  0.00  0.00     0.199 C 
ATOM      2  C8  <0> d           2.257   0.298  -0.256  0.00  0.00     0.059 C 
ATOM      3  C9  <0> d           3.672  -0.297  -0.015  0.00  0.00     0.143 C 
ATOM      4  S1  <0> d           3.257  -1.574   1.254  0.00  0.00     0.147 S 
ATOM      5  O1  <0> d           4.345  -1.705   2.158  0.00  0.00    -0.228 OA
ATOM      6  O2  <0> d           2.739  -2.727   0.604  0.00  0.00    -0.228 OA
ATOM      7  C10 <0> d           1.881  -0.678   2.088  0.00  0.00     0.183 C 
ENDROOT
BRANCH   1   8
ATOM      8  N1  <0> d           0.057   0.305   0.789  0.00  0.00     0.105 N 
ATOM      9  C2  <0> d          -0.734   0.678   1.969  0.00  0.00     0.220 C 
ATOM     10  C1  <0> d          -0.285  -0.160   3.168  0.00  0.00     0.043 C 
ATOM     11  C3  <0> d          -2.217   0.421   1.693  0.00  0.00     0.035 C 
ATOM     12  C4  <0> d          -2.656   1.246   0.481  0.00  0.00     0.004 C 
ATOM     13  C5  <0> d          -1.786   0.874  -0.723  0.00  0.00     0.030 C 
ATOM     14  C6  <0> d          -0.315   1.118  -0.377  0.00  0.00     0.274 C 
ENDBRANCH   1   8
BRANCH   1  15
ATOM     15  C11 <0> d           1.779   1.781   1.677  0.00  0.00     0.309 C 
BRANCH  15  16
ATOM     16  N2  <0> d           1.116   1.881   2.984  0.00  0.00     0.080 N 
ATOM     17  H21 <0> d           1.621   1.363   3.687  0.00  0.00     0.312 HD
ATOM     18  H22 <0> d           1.001   2.845   3.258  0.00  0.00     0.312 HD
ENDBRANCH  15  16
ENDBRANCH   1  15
TORSDOF 3
