REMARK  5 active torsions:
REMARK  status: ('A' for Active; 'I' for Inactive)
REMARK    1  A    between atoms: N1_7  and  C7_8 
REMARK    2  A    between atoms: C7_8  and  C9_10 
REMARK    3  A    between atoms: C9_10  and  N2_11 
REMARK       I    between atoms: N2_11  and  C10_12 
REMARK    4  A    between atoms: C10_12  and  C11_14 
REMARK    5  A    between atoms: N4_23  and  C18_27 
ROOT
ATOM      1  C11 <0> d          -0.163   4.102   0.065  0.00  0.00     0.050 A 
ATOM      2  C12 <0> d          -0.231   5.498  -0.017  0.00  0.00     0.039 A 
ATOM      3  C13 <0> d          -1.062   6.051  -0.985  0.00  0.00     0.079 A 
ATOM      4  C14 <0> d          -1.200   7.508  -1.150  0.00  0.00     0.263 A 
ATOM      5  O2  <0> d          -0.586   8.279  -0.437  0.00  0.00    -0.267 OA
ATOM      6  N3  <0> d          -2.028   7.965  -2.115  0.00  0.00    -0.274 N 
ATOM      7  H1  <0> d          -2.134   8.921  -2.241  0.00  0.00     0.173 HD
ATOM      8  C15 <0> d          -2.707   7.116  -2.904  0.00  0.00     0.331 A 
ATOM      9  O3  <0> d          -3.439   7.577  -3.757  0.00  0.00    -0.246 OA
ATOM     10  N4  <0> d          -2.614   5.781  -2.792  0.00  0.00    -0.278 N 
ATOM     11  C16 <0> d          -1.797   5.205  -1.839  0.00  0.00     0.149 A 
ATOM     12  N5  <0> d          -1.700   3.889  -1.722  0.00  0.00    -0.241 NA
ATOM     13  C17 <0> d          -0.919   3.330  -0.822  0.00  0.00     0.136 A 
ENDROOT
BRANCH   1  14
ATOM     14  C10 <0> d           0.700   3.453   1.072  0.00  0.00     0.253 C 
ATOM     15  N2  <0> d           0.849   2.113   1.070  0.00  0.00    -0.355 N 
ATOM     16  H20 <0> d           0.453   1.583   0.361  0.00  0.00     0.162 HD
ATOM     17  O1  <0> d           1.278   4.127   1.903  0.00  0.00    -0.268 OA
BRANCH  15  18
ATOM     18  C9  <0> d           1.607   1.459   2.138  0.00  0.00     0.155 C 
BRANCH  18  19
ATOM     19  C7  <0> d           1.512  -0.060   1.975  0.00  0.00     0.202 C 
ATOM     20  C8  <0> d           2.224  -0.744   3.144  0.00  0.00     0.042 C 
BRANCH  19  21
ATOM     21  N1  <0> d           0.100  -0.463   1.958  0.00  0.00    -0.062 N 
ATOM     22  C2  <0> d           0.009  -1.913   1.749  0.00  0.00     0.184 C 
ATOM     23  C1  <0> d           0.733  -2.287   0.454  0.00  0.00     0.040 C 
ATOM     24  C3  <0> d          -1.461  -2.326   1.649  0.00  0.00     0.033 C 
ATOM     25  C4  <0> d          -2.181  -1.950   2.947  0.00  0.00     0.004 C 
ATOM     26  C5  <0> d          -2.016  -0.447   3.193  0.00  0.00     0.028 C 
ATOM     27  C6  <0> d          -0.526  -0.103   3.236  0.00  0.00     0.236 C 
ATOM     28  H28 <0> d          -0.375   0.015   1.206  0.00  0.00     0.280 HD
ENDBRANCH  19  21
ENDBRANCH  18  19
ENDBRANCH  15  18
ENDBRANCH   1  14
BRANCH  10  29
ATOM     29  C18 <0> d          -3.389   4.925  -3.693  0.00  0.00     0.096 A 
ATOM     30  C20 <0> d          -3.069   4.999  -5.188  0.00  0.00     0.028 A 
ATOM     31  C19 <0> d          -2.653   3.770  -4.377  0.00  0.00     0.028 A 
ENDBRANCH  10  29
TORSDOF 5
