REMARK  5 active torsions:
REMARK  status: ('A' for Active; 'I' for Inactive)
REMARK    1  A    between atoms: C3_3  and  C13_17 
REMARK    2  A    between atoms: C7_7  and  O2_14 
REMARK    3  A    between atoms: C9_9  and  O1_12 
REMARK    4  A    between atoms: C13_17  and  N2_18 
REMARK    5  A    between atoms: N2_18  and  C15_20 
ROOT
ATOM      1  C1  <0> d          -0.018   1.503   0.010  0.00  0.00     0.069 C 
ATOM      2  C2  <0> d           0.002  -0.004   0.002  0.00  0.00     0.018 A 
ATOM      3  C3  <0> d          -1.173  -0.669   0.004  0.00  0.00     0.043 A 
ATOM      4  C4  <0> d          -1.187  -2.083  -0.004  0.00  0.00     0.194 A 
ATOM      5  C5  <0> d           0.110  -2.784  -0.014  0.00  0.00     0.047 A 
ATOM      6  C6  <0> d           0.183  -4.177  -0.022  0.00  0.00     0.054 A 
ATOM      7  C7  <0> d           1.417  -4.796  -0.033  0.00  0.00     0.071 A 
ATOM      8  C8  <0> d           2.585  -4.037  -0.034  0.00  0.00     0.075 A 
ATOM      9  C9  <0> d           2.526  -2.658  -0.026  0.00  0.00     0.098 A 
ATOM     10  C10 <0> d           1.285  -2.015  -0.016  0.00  0.00     0.080 A 
ATOM     11  N1  <0> d           1.198  -0.639  -0.013  0.00  0.00    -0.356 N 
ATOM     12  O3  <0> d          -2.238  -2.703  -0.001  0.00  0.00    -0.287 OA
ATOM     13  H30 <0> d           2.013  -0.113  -0.017  0.00  0.00     0.166 HD
ENDROOT
BRANCH   3  14
ATOM     14  C13 <0> d          -2.471   0.096   0.015  0.00  0.00     0.317 C 
BRANCH  14  15
ATOM     15  N2  <0> d          -2.961   0.249  -1.361  0.00  0.00     0.093 N 
ATOM     16  C14 <0> d          -3.327  -1.052  -1.937  0.00  0.00     0.310 C 
BRANCH  15  17
ATOM     17  C15 <0> d          -4.090   1.186  -1.417  0.00  0.00     0.226 C 
ATOM     18  C19 <0> d          -4.494   1.416  -2.876  0.00  0.00     0.063 C 
ATOM     19  C18 <0> d          -5.720   2.330  -2.923  0.00  0.00     0.236 C 
ATOM     20  N3  <0> d          -6.832   1.700  -2.200  0.00  0.00    -0.075 N 
ATOM     21  C17 <0> d          -6.479   1.542  -0.784  0.00  0.00     0.236 C 
ATOM     22  C20 <0> d          -8.029   2.544  -2.314  0.00  0.00     0.269 C 
ATOM     23  H29 <0> d          -7.022   0.794  -2.602  0.00  0.00     0.279 HD
ATOM     24  C16 <0> d          -5.282   0.598  -0.655  0.00  0.00     0.063 C 
ENDBRANCH  15  17
ENDBRANCH  14  15
ENDBRANCH   3  14
BRANCH   9  25
ATOM     25  O1  <0> d           3.672  -1.927  -0.027  0.00  0.00    -0.354 OA
ATOM     26  C11 <0> d           4.904  -2.651  -0.038  0.00  0.00     0.210 C 
ENDBRANCH   9  25
BRANCH   7  27
ATOM     27  O2  <0> d           1.494  -6.154  -0.041  0.00  0.00    -0.356 OA
ATOM     28  C12 <0> d           2.801  -6.730  -0.051  0.00  0.00     0.210 C 
ENDBRANCH   7  27
TORSDOF 5
