REMARK  5 active torsions:
REMARK  status: ('A' for Active; 'I' for Inactive)
REMARK    1  A    between atoms: N1_2  and  S1_4 
REMARK    2  A    between atoms: S1_4  and  C3_7 
REMARK    3  A    between atoms: C7_11  and  N2_13 
REMARK    4  A    between atoms: N2_13  and  C9_14 
REMARK    5  A    between atoms: N3_16  and  N4_17 
ROOT
ATOM      1  C9  <0> d          -3.936   5.578  -1.015  0.00  0.00     0.191 C 
ATOM      2  S2  <0> d          -4.639   7.135  -0.909  0.00  0.00    -0.039 SA
ATOM      3  N3  <0> d          -3.482   4.966   0.097  0.00  0.00    -0.266 N 
ATOM      4  H12 <0> d          -3.554   5.408   0.957  0.00  0.00     0.190 HD
ENDROOT
BRANCH   1   5
ATOM      5  N2  <0> d          -3.836   4.963  -2.210  0.00  0.00    -0.332 N 
ATOM      6  H11 <0> d          -3.366   4.118  -2.284  0.00  0.00     0.168 HD
BRANCH   5   7
ATOM      7  C7  <0> d          -4.410   5.545  -3.346  0.00  0.00     0.035 A 
ATOM      8  C6  <0> d          -5.669   6.126  -3.269  0.00  0.00     0.029 A 
ATOM      9  C5  <0> d          -6.231   6.704  -4.391  0.00  0.00     0.004 A 
ATOM     10  C4  <0> d          -5.545   6.695  -5.592  0.00  0.00     0.025 A 
ATOM     11  C3  <0> d          -4.293   6.114  -5.673  0.00  0.00     0.081 A 
ATOM     12  C8  <0> d          -3.724   5.539  -4.553  0.00  0.00     0.054 A 
BRANCH  11  13
ATOM     13  S1  <0> d          -3.423   6.105  -7.205  0.00  0.00     0.260 S 
ATOM     14  O1  <0> d          -3.937   7.187  -7.970  0.00  0.00    -0.200 OA
ATOM     15  O2  <0> d          -2.043   5.984  -6.889  0.00  0.00    -0.200 OA
BRANCH  13  16
ATOM     16  N1  <0> d          -3.850   4.718  -8.002  0.00  0.00    -0.315 N 
ATOM     17  C1  <0> d          -5.003   4.717  -8.906  0.00  0.00     0.162 C 
ATOM     18  C2  <0> d          -3.074   3.491  -7.804  0.00  0.00     0.162 C 
ENDBRANCH  13  16
ENDBRANCH  11  13
ENDBRANCH   5   7
ENDBRANCH   1   5
BRANCH   3  19
ATOM     19  N4  <0> d          -2.907   3.692   0.010  0.00  0.00    -0.211 N 
ATOM     20  C13 <0> d          -1.561   3.583   0.116  0.00  0.00     0.281 A 
ATOM     21  C12 <0> d          -1.035   2.251   0.018  0.00  0.00     0.077 A 
ATOM     22  O3  <0> d          -0.843   4.553   0.283  0.00  0.00    -0.265 OA
ATOM     23  C11 <0> d          -1.966   1.205  -0.165  0.00  0.00     0.115 A 
ATOM     24  C14 <0> d           0.361   1.859   0.097  0.00  0.00    -0.026 A 
ATOM     25  N5  <0> d          -3.280   1.390  -0.254  0.00  0.00    -0.234 NA
ATOM     26  S3  <0> d          -0.955  -0.239  -0.237  0.00  0.00    -0.073 SA
ATOM     27  C10 <0> d          -3.723   2.626  -0.175  0.00  0.00     0.237 A 
ATOM     28  C15 <0> d           0.628   0.537  -0.024  0.00  0.00    -0.008 A 
ATOM     29  C16 <0> d           1.970  -0.125   0.015  0.00  0.00     0.047 C 
ATOM     30  C17 <0> d           3.049   0.953  -0.159  0.00  0.00     0.005 C 
ATOM     31  C18 <0> d           2.735   2.116   0.786  0.00  0.00     0.005 C 
ATOM     32  C19 <0> d           1.493   2.862   0.298  0.00  0.00     0.041 C 
ENDBRANCH   3  19
TORSDOF 5
