REMARK  4 active torsions:
REMARK  status: ('A' for Active; 'I' for Inactive)
REMARK    1  A    between atoms: C3_3  and  C9_14 
REMARK    2  A    between atoms: C9_14  and  C10_15 
REMARK       I    between atoms: C10_15  and  N4_17 
REMARK    3  A    between atoms: N4_17  and  C11_18 
REMARK    4  A    between atoms: N4_17  and  N5_25 
ROOT
ATOM      1  C9  <0> d          -2.728  -0.354   0.344  0.00  0.00     0.147 C 
ENDROOT
BRANCH   1   2
ATOM      2  C3  <0> d          -1.560  -1.294   0.498  0.00  0.00    -0.001 A 
ATOM      3  C2  <0> d          -0.249  -0.808   0.440  0.00  0.00     0.042 A 
ATOM      4  C1  <0> d          -0.003   0.663   0.221  0.00  0.00     0.071 C 
ATOM      5  N2  <0> d           0.769  -1.631   0.570  0.00  0.00    -0.234 NA
ATOM      6  C5  <0> d           0.572  -2.939   0.770  0.00  0.00     0.154 A 
ATOM      7  N1  <0> d          -0.700  -3.450   0.832  0.00  0.00    -0.239 N 
ATOM      8  C6  <0> d           1.457  -4.001   0.940  0.00  0.00     0.128 A 
ATOM      9  C4  <0> d          -1.770  -2.623   0.696  0.00  0.00     0.041 A 
ATOM     10  N3  <0> d          -0.602  -4.831   1.041  0.00  0.00    -0.258 N 
ATOM     11  C8  <0> d          -3.172  -3.171   0.763  0.00  0.00     0.071 C 
ATOM     12  C7  <0> d           0.702  -5.161   1.106  0.00  0.00     0.263 A 
ATOM     13  H1  <0> d          -1.347  -5.447   1.126  0.00  0.00     0.191 HD
ATOM     14  O1  <0> d           1.147  -6.284   1.280  0.00  0.00    -0.267 OA
ENDBRANCH   1   2
BRANCH   1  15
ATOM     15  C10 <0> d          -3.054   0.264   1.679  0.00  0.00     0.238 C 
ATOM     16  O2  <0> d          -2.403  -0.029   2.659  0.00  0.00    -0.272 OA
ATOM     17  N4  <0> d          -4.070   1.144   1.783  0.00  0.00    -0.275 N 
BRANCH  17  18
ATOM     18  C11 <0> d          -4.388   1.745   3.081  0.00  0.00     0.121 C 
ATOM     19  C14 <0> d          -4.739   0.629   4.106  0.00  0.00     0.167 C 
ATOM     20  S1  <0> d          -4.485   1.533   5.690  0.00  0.00     0.146 S 
ATOM     21  C13 <0> d          -3.375   2.875   5.101  0.00  0.00     0.142 C 
ATOM     22  O3  <0> d          -3.766   0.700   6.589  0.00  0.00    -0.228 OA
ATOM     23  O4  <0> d          -5.721   2.103   6.101  0.00  0.00    -0.228 OA
ATOM     24  C12 <0> d          -3.166   2.513   3.611  0.00  0.00     0.042 C 
ENDBRANCH  17  18
BRANCH  17  25
ATOM     25  N5  <0> d          -4.804   1.474   0.679  0.00  0.00    -0.234 NA
ATOM     26  C15 <0> d          -6.214   1.103   0.854  0.00  0.00     0.136 C 
ATOM     27  C16 <0> d          -4.670   2.904   0.368  0.00  0.00     0.136 C 
ENDBRANCH  17  25
ENDBRANCH   1  15
TORSDOF 4
