REMARK  3 active torsions:
REMARK  status: ('A' for Active; 'I' for Inactive)
REMARK    1  A    between atoms: C7_7  and  N1_8 
REMARK    2  A    between atoms: N2_11  and  S1_14 
REMARK    3  A    between atoms: S1_14  and  C12_17 
ROOT
ATOM      1  S1  <0> d           0.057   0.976   6.583  0.00  0.00     0.262 S 
ATOM      2  O1  <0> d           1.291   1.677   6.650  0.00  0.00    -0.200 OA
ATOM      3  O2  <0> d          -1.199   1.633   6.679  0.00  0.00    -0.200 OA
ENDROOT
BRANCH   1   4
ATOM      4  N2  <0> d           0.054   0.159   5.143  0.00  0.00    -0.304 N 
ATOM      5  C9  <0> d          -1.212  -0.233   4.507  0.00  0.00     0.155 C 
ATOM      6  C8  <0> d          -1.238   0.330   3.081  0.00  0.00     0.143 C 
ATOM      7  N1  <0> d           0.025  -0.016   2.415  0.00  0.00    -0.377 N 
ATOM      8  C11 <0> d           1.291   0.370   3.054  0.00  0.00     0.143 C 
ATOM      9  C10 <0> d           1.318  -0.188   4.477  0.00  0.00     0.155 C 
BRANCH   7  10
ATOM     10  C7  <0> d           0.023  -0.706   1.200  0.00  0.00     0.036 A 
ATOM     11  C2  <0> d           0.002  -0.004   0.002  0.00  0.00    -0.035 A 
ATOM     12  C1  <0> d          -0.018   1.503   0.010  0.00  0.00     0.050 C 
ATOM     13  C3  <0> d           0.006  -0.689  -1.198  0.00  0.00     0.009 A 
ATOM     14  C4  <0> d           0.024  -2.071  -1.206  0.00  0.00     0.001 A 
ATOM     15  C5  <0> d           0.039  -2.773  -0.014  0.00  0.00     0.002 A 
ATOM     16  C6  <0> d           0.036  -2.095   1.188  0.00  0.00     0.030 A 
ENDBRANCH   7  10
ENDBRANCH   1   4
BRANCH   1  17
ATOM     17  C12 <0> d           0.093  -0.231   7.867  0.00  0.00     0.097 A 
ATOM     18  C15 <0> d           1.206  -0.758   8.436  0.00  0.00     0.116 A 
ATOM     19  N3  <0> d           0.834  -1.644   9.385  0.00  0.00    -0.351 N 
ATOM     20  C14 <0> d          -0.545  -1.692   9.411  0.00  0.00     0.104 A 
ATOM     21  C16 <0> d           1.688  -2.445  10.264  0.00  0.00     0.130 C 
ATOM     22  C13 <0> d          -1.024  -0.820   8.477  0.00  0.00     0.062 A 
ATOM     23  C19 <0> d          -1.273  -2.580  10.336  0.00  0.00     0.268 C 
ATOM     24  N4  <0> d          -0.798  -2.611  11.606  0.00  0.00    -0.356 N 
ATOM     25  O3  <0> d          -2.234  -3.239   9.985  0.00  0.00    -0.266 OA
ATOM     26  C18 <0> d           0.142  -1.590  12.039  0.00  0.00     0.124 C 
ATOM     27  H24 <0> d          -1.083  -3.307  12.219  0.00  0.00     0.162 HD
ATOM     28  C17 <0> d           1.596  -1.917  11.701  0.00  0.00     0.040 C 
ENDBRANCH   1  17
TORSDOF 3
