REMARK  15 active torsions:
REMARK  status: ('A' for Active; 'I' for Inactive)
REMARK    1  A    between atoms: C2_2  and  C3_3 
REMARK    2  A    between atoms: C2_2  and  O6_26 
REMARK    3  A    between atoms: C3_3  and  C4_4 
REMARK    4  A    between atoms: C4_4  and  C5_5 
REMARK    5  A    between atoms: C5_5  and  C6_6 
REMARK    6  A    between atoms: C6_6  and  C7_7 
REMARK    7  A    between atoms: C6_6  and  O5_25 
REMARK    8  A    between atoms: C8_8  and  C9_9 
REMARK    9  A    between atoms: C10_10  and  O4_24 
REMARK   10  A    between atoms: C13_14  and  C14_15 
REMARK   11  A    between atoms: C14_15  and  C15_16 
REMARK   12  A    between atoms: C16_17  and  C17_18 
REMARK   13  A    between atoms: C17_18  and  C18_19 
REMARK   14  A    between atoms: C18_19  and  C19_20 
REMARK   15  A    between atoms: C19_20  and  C20_21 
ROOT
ATOM      1  C9  <0> d           2.079   0.581  -0.282  0.00  0.00     0.048 C 
ATOM      2  C10 <0> d           1.074  -0.551   0.048  0.00  0.00     0.133 C 
ATOM      3  C11 <0> d          -0.205  -0.083  -0.690  0.00  0.00     0.111 C 
ATOM      4  C12 <0> d          -0.215   1.425  -0.511  0.00  0.00     0.134 C 
ATOM      5  O1  <0> d          -1.183   2.145  -0.565  0.00  0.00    -0.297 OA
ATOM      6  C13 <0> d           1.214   1.858  -0.259  0.00  0.00     0.069 C 
ENDROOT
BRANCH   1   7
ATOM      7  C8  <0> d           3.158   0.654   0.768  0.00  0.00    -0.020 C 
ATOM      8  C7  <0> d           4.415   0.512   0.427  0.00  0.00     0.001 C 
BRANCH   8   9
ATOM      9  C6  <0> d           5.493   0.585   1.478  0.00  0.00     0.140 C 
BRANCH   9  10
ATOM     10  C5  <0> d           6.347  -0.683   1.420  0.00  0.00     0.036 C 
BRANCH  10  11
ATOM     11  C4  <0> d           7.516  -0.556   2.400  0.00  0.00     0.005 C 
BRANCH  11  12
ATOM     12  C3  <0> d           8.370  -1.824   2.342  0.00  0.00     0.031 C 
BRANCH  12  13
ATOM     13  C2  <0> d           9.538  -1.696   3.322  0.00  0.00     0.114 C 
ATOM     14  C1  <0> d          10.320  -3.011   3.356  0.00  0.00     0.039 C 
BRANCH  13  15
ATOM     15  O6  <0> d          10.402  -0.640   2.898  0.00  0.00    -0.396 OA
ATOM     16  H31 <0> d          10.014   0.386   2.812  0.00  0.00     0.210 HD
ENDBRANCH  13  15
ENDBRANCH  12  13
ENDBRANCH  11  12
ENDBRANCH  10  11
ENDBRANCH   9  10
BRANCH   9  17
ATOM     17  O5  <0> d           4.893   0.697   2.769  0.00  0.00    -0.392 OA
ATOM     18  H30 <0> d           4.240   1.552   3.000  0.00  0.00     0.210 HD
ENDBRANCH   9  17
ENDBRANCH   8   9
ENDBRANCH   1   7
BRANCH   6  19
ATOM     19  C14 <0> d           1.671   2.819  -1.359  0.00  0.00     0.040 C 
BRANCH  19  20
ATOM     20  C15 <0> d           0.882   4.100  -1.267  0.00  0.00    -0.030 C 
ATOM     21  C16 <0> d           1.506   5.250  -1.214  0.00  0.00    -0.031 C 
BRANCH  21  22
ATOM     22  C17 <0> d           2.998   5.308  -1.413  0.00  0.00     0.027 C 
BRANCH  22  23
ATOM     23  C18 <0> d           3.327   6.313  -2.519  0.00  0.00     0.014 C 
BRANCH  23  24
ATOM     24  C19 <0> d           4.842   6.372  -2.722  0.00  0.00     0.113 C 
BRANCH  24  25
ATOM     25  C20 <0> d           5.165   7.361  -3.812  0.00  0.00     0.172 C 
ATOM     26  O2  <0> d           4.275   7.958  -4.369  0.00  0.00    -0.648 OA
ATOM     27  O3  <0> d           6.442   7.579  -4.163  0.00  0.00    -0.648 OA
ENDBRANCH  24  25
ENDBRANCH  23  24
ENDBRANCH  22  23
ENDBRANCH  21  22
ENDBRANCH  19  20
ENDBRANCH   6  19
BRANCH   2  28
ATOM     28  O4  <0> d           0.845  -0.639   1.456  0.00  0.00    -0.394 OA
ATOM     29  H29 <0> d           0.153  -1.395   1.854  0.00  0.00     0.210 HD
ENDBRANCH   2  28
TORSDOF 15
