REMARK  5 active torsions:
REMARK  status: ('A' for Active; 'I' for Inactive)
REMARK    1  A    between atoms: C5_5  and  N1_9 
REMARK    2  A    between atoms: N1_9  and  C8_10 
REMARK    3  A    between atoms: N2_12  and  C9_13 
REMARK    4  A    between atoms: C9_13  and  C10_14 
REMARK    5  A    between atoms: C16_21  and  C17_22 
ROOT
ATOM      1  C8  <0> d          -0.042  -4.839  -1.189  0.00  0.00     0.172 C 
ATOM      2  S1  <0> d          -0.061  -3.979  -2.669  0.00  0.00    -0.041 SA
ATOM      3  N2  <0> d          -0.126  -6.184  -1.190  0.00  0.00    -0.365 N 
ATOM      4  H11 <0> d          -0.115  -6.671  -0.351  0.00  0.00     0.161 HD
ENDROOT
BRANCH   3   5
ATOM      5  C9  <0> d          -0.234  -6.910  -2.457  0.00  0.00     0.155 C 
BRANCH   5   6
ATOM      6  C10 <0> d          -0.314  -8.412  -2.179  0.00  0.00     0.206 C 
ATOM      7  N3  <0> d           0.833  -8.818  -1.363  0.00  0.00    -0.065 N 
ATOM      8  C14 <0> d           2.104  -8.480  -2.077  0.00  0.00     0.236 C 
ATOM      9  C15 <0> d           0.763 -10.246  -1.048  0.00  0.00     0.244 C 
ATOM     10  H25 <0> d           0.804  -8.305  -0.495  0.00  0.00     0.280 HD
ATOM     11  C13 <0> d           2.178  -9.264  -3.389  0.00  0.00     0.033 C 
ATOM     12  C12 <0> d           0.908 -10.114  -3.530  0.00  0.00    -0.002 C 
ATOM     13  C11 <0> d          -0.306  -9.176  -3.505  0.00  0.00     0.040 C 
ATOM     14  C16 <0> d           0.805 -11.070  -2.334  0.00  0.00     0.037 C 
BRANCH  14  15
ATOM     15  C17 <0> d           2.006 -11.980  -2.311  0.00  0.00    -0.030 C 
ATOM     16  C18 <0> d           1.845 -13.278  -2.395  0.00  0.00     0.007 C 
ENDBRANCH  14  15
ENDBRANCH   5   6
ENDBRANCH   3   5
BRANCH   1  17
ATOM     17  N1  <0> d           0.057  -4.170  -0.023  0.00  0.00    -0.332 N 
ATOM     18  H10 <0> d           0.148  -4.659   0.810  0.00  0.00     0.168 HD
BRANCH  17  19
ATOM     19  C5  <0> d           0.029  -2.771  -0.013  0.00  0.00     0.051 A 
ATOM     20  C4  <0> d          -0.904  -2.089  -0.782  0.00  0.00     0.031 A 
ATOM     21  C3  <0> d          -0.930  -0.708  -0.770  0.00  0.00     0.009 A 
ATOM     22  C2  <0> d          -0.027  -0.005   0.006  0.00  0.00    -0.061 A 
ATOM     23  C1  <0> d          -0.058   1.502   0.016  0.00  0.00     0.048 C 
ATOM     24  C7  <0> d           0.908  -0.680   0.768  0.00  0.00     0.028 A 
ATOM     25  C6  <0> d           0.935  -2.062   0.765  0.00  0.00     0.038 A 
ATOM     26 Br1  <0> d           2.208  -2.986   1.815  0.00  0.00    -0.049 Br
ENDBRANCH  17  19
ENDBRANCH   1  17
TORSDOF 5
