REMARK  4 active torsions:
REMARK  status: ('A' for Active; 'I' for Inactive)
REMARK    1  A    between atoms: C2_2  and  N1_9 
REMARK    2  A    between atoms: N1_9  and  S2_10 
REMARK    3  A    between atoms: S2_10  and  C6_13 
REMARK    4  A    between atoms: C9_16  and  N2_19 
ROOT
ATOM      1  S2  <0> d           1.155   3.877   0.007  0.00  0.00     0.259 S 
ATOM      2  O3  <0> d           2.242   4.490  -0.674  0.00  0.00    -0.201 OA
ATOM      3  O4  <0> d          -0.197   4.073  -0.384  0.00  0.00    -0.201 OA
ENDROOT
BRANCH   1   4
ATOM      4  N1  <0> d           1.264   4.347   1.591  0.00  0.00    -0.305 N 
ATOM      5  H10 <0> d           0.348   4.627   2.132  0.00  0.00     0.173 HD
BRANCH   4   6
ATOM      6  C2  <0> d           2.524   4.182   2.319  0.00  0.00     0.050 C 
ATOM      7  C1  <0> d           3.634   4.897   1.545  0.00  0.00     0.040 C 
ATOM      8  C5  <0> d           2.384   4.842   3.705  0.00  0.00     0.171 C 
ATOM      9  S1  <0> d           2.849   3.490   4.864  0.00  0.00     0.146 S 
ATOM     10  C4  <0> d           3.702   2.386   3.655  0.00  0.00     0.143 C 
ATOM     11  O1  <0> d           3.799   3.981   5.800  0.00  0.00    -0.228 OA
ATOM     12  O2  <0> d           1.669   2.849   5.331  0.00  0.00    -0.228 OA
ATOM     13  C3  <0> d           2.860   2.693   2.385  0.00  0.00     0.047 C 
ENDBRANCH   4   6
ENDBRANCH   1   4
BRANCH   1  14
ATOM     14  C6  <0> d           1.446   2.140  -0.042  0.00  0.00     0.079 A 
ATOM     15  C11 <0> d           2.705   1.659  -0.354  0.00  0.00     0.027 A 
ATOM     16  C10 <0> d           2.936   0.298  -0.393  0.00  0.00     0.031 A 
ATOM     17  C9  <0> d           1.903  -0.588  -0.119  0.00  0.00     0.037 A 
ATOM     18  C8  <0> d           0.640  -0.103   0.194  0.00  0.00     0.031 A 
ATOM     19  C7  <0> d           0.415   1.260   0.231  0.00  0.00     0.027 A 
BRANCH  17  20
ATOM     20  N2  <0> d           2.134  -1.968  -0.158  0.00  0.00    -0.318 N 
ATOM     21  C15 <0> d           1.232  -2.898   0.200  0.00  0.00     0.224 C 
ATOM     22  C14 <0> d           1.821  -4.282   0.042  0.00  0.00     0.105 C 
ATOM     23  O5  <0> d           0.108  -2.662   0.591  0.00  0.00    -0.273 OA
ATOM     24  C13 <0> d           3.344  -4.036  -0.065  0.00  0.00     0.029 C 
ATOM     25  C12 <0> d           3.390  -2.585  -0.599  0.00  0.00     0.133 C 
ENDBRANCH  17  20
ENDBRANCH   1  14
TORSDOF 4
