REMARK  4 active torsions:
REMARK  status: ('A' for Active; 'I' for Inactive)
REMARK       I    between atoms: C2_2  and  N1_4 
REMARK    1  A    between atoms: N1_4  and  C3_5 
REMARK    2  A    between atoms: C3_5  and  C4_6 
REMARK    3  A    between atoms: C4_6  and  N2_7 
REMARK    4  A    between atoms: N2_7  and  C5_8 
ROOT
ATOM      1  C5  <0> d          -3.916  -4.702   0.014  0.00  0.00     0.347 A 
ATOM      2  C6  <0> d          -3.919  -6.111   0.562  0.00  0.00     0.015 A 
ATOM      3  C7  <0> d          -3.562  -6.641   1.782  0.00  0.00     0.054 A 
ATOM      4  C8  <0> d          -3.674  -8.005   2.002  0.00  0.00     0.118 A 
ATOM      5  C9  <0> d          -4.146  -8.828   0.993  0.00  0.00     0.063 A 
ATOM      6  C10 <0> d          -4.504  -8.297  -0.229  0.00  0.00     0.041 A 
ATOM      7  C11 <0> d          -4.393  -6.926  -0.457  0.00  0.00     0.061 A 
ATOM      8  N3  <0> d          -4.686  -6.162  -1.589  0.00  0.00    -0.323 N 
ATOM      9  C12 <0> d          -4.437  -4.852  -1.399  0.00  0.00     0.260 A 
ATOM     10  O2  <0> d          -4.600  -3.961  -2.205  0.00  0.00    -0.270 OA
ATOM     11 Br1  <0> d          -5.146  -9.431  -1.599  0.00  0.00    -0.049 Br
ATOM     12  F1  <0> d          -3.325  -8.529   3.197  0.00  0.00    -0.206 F 
ATOM     13  H13 <0> d          -5.029  -6.532  -2.417  0.00  0.00     0.169 HD
ENDROOT
BRANCH   1  14
ATOM     14  N2  <0> d          -2.551  -4.157   0.004  0.00  0.00     0.103 N 
ATOM     15  H10 <0> d          -2.028  -4.507  -0.784  0.00  0.00     0.317 HD
BRANCH  14  16
ATOM     16  C4  <0> d          -2.571  -2.688   0.012  0.00  0.00     0.290 C 
BRANCH  16  17
ATOM     17  C3  <0> d          -1.136  -2.159   0.001  0.00  0.00     0.152 C 
BRANCH  17  18
ATOM     18  N1  <0> d          -1.156  -0.694   0.009  0.00  0.00    -0.360 N 
ATOM     19  C2  <0> d           0.002  -0.004   0.002  0.00  0.00     0.213 C 
ATOM     20  C1  <0> d          -0.018   1.503   0.010  0.00  0.00     0.117 C 
ATOM     21  O1  <0> d           1.060  -0.596  -0.011  0.00  0.00    -0.274 OA
ATOM     22  H5  <0> d          -2.002  -0.220   0.020  0.00  0.00     0.162 HD
ENDBRANCH  17  18
ENDBRANCH  16  17
ENDBRANCH  14  16
ENDBRANCH   1  14
TORSDOF 4
