REMARK  4 active torsions:
REMARK  status: ('A' for Active; 'I' for Inactive)
REMARK    1  A    between atoms: C4_4  and  N1_7 
REMARK    2  A    between atoms: C8_9  and  C15_18 
REMARK    3  A    between atoms: C9_10  and  C10_12 
REMARK       I    between atoms: C15_18  and  N4_20 
REMARK    4  A    between atoms: N4_20  and  C16_21 
ROOT
ATOM      1  N1  <0> d           2.404   1.105  -0.015  0.00  0.00    -0.244 N 
ATOM      2  C7  <0> d           3.615   1.688  -0.028  0.00  0.00     0.138 A 
ATOM      3  C8  <0> d           4.566   0.689  -0.037  0.00  0.00     0.080 A 
ATOM      4  C9  <0> d           3.832  -0.581  -0.037  0.00  0.00     0.106 A 
ATOM      5  N2  <0> d           2.551  -0.284  -0.024  0.00  0.00    -0.166 NA
ENDROOT
BRANCH   3   6
ATOM      6  C15 <0> d           6.028   0.862  -0.049  0.00  0.00     0.255 C 
ATOM      7  O1  <0> d           6.756  -0.113  -0.061  0.00  0.00    -0.268 OA
ATOM      8  N4  <0> d           6.560   2.100  -0.047  0.00  0.00    -0.351 N 
ATOM      9  H12 <0> d           5.980   2.877  -0.038  0.00  0.00     0.163 HD
BRANCH   8  10
ATOM     10  C16 <0> d           8.015   2.273  -0.060  0.00  0.00     0.099 C 
ATOM     11  C19 <0> d           8.375   3.644   0.562  0.00  0.00     0.165 C 
ATOM     12  S1  <0> d           9.896   4.117  -0.359  0.00  0.00     0.146 S 
ATOM     13  C18 <0> d          10.000   2.696  -1.527  0.00  0.00     0.142 C 
ATOM     14  O2  <0> d           9.638   5.304  -1.097  0.00  0.00    -0.228 OA
ATOM     15  O3  <0> d          11.006   4.070   0.527  0.00  0.00    -0.228 OA
ATOM     16  C17 <0> d           8.525   2.203  -1.509  0.00  0.00     0.041 C 
ENDBRANCH   8  10
ENDBRANCH   3   6
BRANCH   4  17
ATOM     17  C10 <0> d           4.422  -1.941  -0.050  0.00  0.00     0.013 A 
ATOM     18  C14 <0> d           5.600  -2.195  -0.750  0.00  0.00     0.130 A 
ATOM     19  N3  <0> d           6.125  -3.403  -0.762  0.00  0.00    -0.272 NA
ATOM     20  C13 <0> d           5.567  -4.411  -0.120  0.00  0.00     0.116 A 
ATOM     21  C12 <0> d           4.397  -4.240   0.598  0.00  0.00     0.020 A 
ATOM     22  C11 <0> d           3.809  -2.988   0.645  0.00  0.00     0.017 A 
ENDBRANCH   4  17
BRANCH   1  23
ATOM     23  C4  <0> d           1.180   1.787   0.000  0.00  0.00     0.058 A 
ATOM     24  C3  <0> d          -0.013   1.076   0.008  0.00  0.00     0.031 A 
ATOM     25  C2  <0> d          -1.218   1.751   0.017  0.00  0.00     0.002 A 
ATOM     26  C1  <0> d          -1.237   3.133   0.030  0.00  0.00     0.000 A 
ATOM     27  C6  <0> d          -0.051   3.845   0.023  0.00  0.00     0.002 A 
ATOM     28  C5  <0> d           1.157   3.176   0.008  0.00  0.00     0.031 A 
ENDBRANCH   1  23
TORSDOF 4
