REMARK  3 active torsions:
REMARK  status: ('A' for Active; 'I' for Inactive)
REMARK       I    between atoms: N1_2  and  C2_3 
REMARK    1  A    between atoms: C2_3  and  C3_5 
REMARK    2  A    between atoms: C7_9  and  N2_11 
REMARK       I    between atoms: N2_11  and  C9_12 
REMARK    3  A    between atoms: C9_12  and  C10_14 
ROOT
ATOM      1  N2  <0> d           1.838  -4.907  -3.129  0.00  0.00    -0.322 N 
ATOM      2  C9  <0> d           1.942  -6.250  -3.080  0.00  0.00     0.263 C 
ATOM      3  O2  <0> d           1.427  -6.869  -2.167  0.00  0.00    -0.267 OA
ATOM      4  H9  <0> d           2.182  -4.422  -3.895  0.00  0.00     0.169 HD
ENDROOT
BRANCH   1   5
ATOM      5  C7  <0> d           1.234  -4.215  -2.075  0.00  0.00     0.035 A 
ATOM      6  C6  <0> d           0.508  -3.057  -2.330  0.00  0.00     0.029 A 
ATOM      7  C5  <0> d          -0.092  -2.369  -1.291  0.00  0.00     0.003 A 
ATOM      8  C4  <0> d           0.026  -2.827   0.005  0.00  0.00     0.017 A 
ATOM      9  C3  <0> d           0.753  -3.989   0.272  0.00  0.00     0.034 A 
ATOM     10  C8  <0> d           1.363  -4.679  -0.775  0.00  0.00     0.046 A 
BRANCH   9  11
ATOM     11  C2  <0> d           0.880  -4.482   1.660  0.00  0.00     0.251 C 
ATOM     12  N1  <0> d           0.290  -3.813   2.669  0.00  0.00    -0.361 N 
ATOM     13  C1  <0> d           0.416  -4.301   4.045  0.00  0.00     0.149 C 
ATOM     14  H4  <0> d          -0.219  -3.007   2.486  0.00  0.00     0.162 HD
ATOM     15  O1  <0> d           1.518  -5.491   1.890  0.00  0.00    -0.268 OA
ENDBRANCH   9  11
ENDBRANCH   1   5
BRANCH   2  16
ATOM     16  C10 <0> d           2.652  -6.943  -4.093  0.00  0.00     0.077 A 
ATOM     17  S1  <0> d           3.490  -6.281  -5.524  0.00  0.00    -0.062 SA
ATOM     18  C13 <0> d           4.077  -7.813  -6.204  0.00  0.00     0.128 A 
ATOM     19  C12 <0> d           3.597  -8.772  -5.305  0.00  0.00     0.078 A 
ATOM     20  N3  <0> d           4.750  -8.419  -7.172  0.00  0.00    -0.214 NA
ATOM     21  C11 <0> d           2.866  -8.303  -4.226  0.00  0.00     0.057 A 
ATOM     22  N4  <0> d           4.046 -10.016  -5.824  0.00  0.00    -0.298 N 
ATOM     23  C14 <0> d           4.740  -9.709  -6.962  0.00  0.00     0.178 A 
ATOM     24  C15 <0> d           3.958 -11.347  -5.484  0.00  0.00     0.107 A 
ATOM     25  S2  <0> d           5.263 -11.306  -7.544  0.00  0.00    -0.062 SA
ATOM     26  C16 <0> d           4.529 -12.283  -6.242  0.00  0.00     0.071 A 
ENDBRANCH   2  16
TORSDOF 3
