REMARK  4 active torsions:
REMARK  status: ('A' for Active; 'I' for Inactive)
REMARK    1  A    between atoms: C4_6  and  C5_7 
REMARK    2  A    between atoms: C5_7  and  C6_8 
REMARK    3  A    between atoms: C5_7  and  N3_15 
REMARK       I    between atoms: N3_15  and  C12_16 
REMARK    4  A    between atoms: C12_16  and  C13_18 
ROOT
ATOM      1  C5  <0> d           0.025  -0.370   2.505  0.00  0.00     0.191 C 
ENDROOT
BRANCH   1   2
ATOM      2  C4  <0> d          -0.065  -0.828   1.072  0.00  0.00     0.133 A 
ATOM      3  N1  <0> d          -0.293  -0.033   0.005  0.00  0.00    -0.346 N 
ATOM      4  C1  <0> d          -0.495   1.418   0.029  0.00  0.00     0.157 C 
ATOM      5  C2  <0> d          -0.294  -0.835  -1.105  0.00  0.00     0.111 A 
ATOM      6  C3  <0> d          -0.072  -2.092  -0.676  0.00  0.00     0.136 A 
ATOM      7  N2  <0> d           0.061  -2.059   0.658  0.00  0.00    -0.243 NA
ENDBRANCH   1   2
BRANCH   1   8
ATOM      8  C6  <0> d          -1.235  -0.755   3.236  0.00  0.00     0.011 A 
ATOM      9  C11 <0> d          -2.325   0.099   3.235  0.00  0.00     0.125 A 
ATOM     10  C10 <0> d          -3.484  -0.258   3.902  0.00  0.00     0.043 A 
ATOM     11  F1  <0> d          -2.259   1.278   2.578  0.00  0.00    -0.205 F 
ATOM     12  C9  <0> d          -3.548  -1.462   4.578  0.00  0.00     0.003 A 
ATOM     13  C8  <0> d          -2.458  -2.312   4.583  0.00  0.00     0.001 A 
ATOM     14  C7  <0> d          -1.302  -1.958   3.913  0.00  0.00     0.013 A 
ENDBRANCH   1   8
BRANCH   1  15
ATOM     15  N3  <0> d           1.177  -1.006   3.150  0.00  0.00    -0.341 N 
ATOM     16  C12 <0> d           2.387  -0.412   3.106  0.00  0.00     0.259 C 
ATOM     17  O1  <0> d           2.505   0.692   2.609  0.00  0.00    -0.267 OA
ATOM     18  H11 <0> d           1.069  -1.854   3.608  0.00  0.00     0.164 HD
BRANCH  16  19
ATOM     19  C13 <0> d           3.561  -1.098   3.657  0.00  0.00     0.117 A 
ATOM     20  C16 <0> d           3.416  -2.318   4.352  0.00  0.00     0.270 A 
ATOM     21  N5  <0> d           4.521  -2.947   4.854  0.00  0.00    -0.266 N 
ATOM     22  O2  <0> d           2.311  -2.811   4.499  0.00  0.00    -0.266 OA
ATOM     23  C15 <0> d           5.725  -2.337   4.659  0.00  0.00     0.179 A 
ATOM     24  C17 <0> d           4.533  -4.137   5.546  0.00  0.00     0.110 A 
ATOM     25  N4  <0> d           5.873  -1.195   4.016  0.00  0.00    -0.235 NA
ATOM     26  S1  <0> d           6.836  -3.357   5.395  0.00  0.00    -0.062 SA
ATOM     27  C14 <0> d           4.839  -0.548   3.506  0.00  0.00     0.142 A 
ATOM     28  C18 <0> d           5.705  -4.608   5.972  0.00  0.00     0.071 A 
ENDBRANCH  16  19
ENDBRANCH   1  15
TORSDOF 4
