REMARK  2 active torsions:
REMARK  status: ('A' for Active; 'I' for Inactive)
REMARK    1  A    between atoms: C4_5  and  N2_7 
REMARK    2  A    between atoms: N2_7  and  C5_8 
ROOT
ATOM      1  N2  <0> d           0.605  -1.389   3.396  0.00  0.00    -0.361 N 
ATOM      2  H7  <0> d           1.567  -1.392   3.520  0.00  0.00     0.162 HD
ENDROOT
BRANCH   1   3
ATOM      3  C4  <0> d           0.066  -0.933   2.215  0.00  0.00     0.137 C 
ATOM      4  S1  <0> d          -1.664  -0.841   1.782  0.00  0.00    -0.092 SA
ATOM      5  C3  <0> d          -1.458  -0.533  -0.024  0.00  0.00     0.107 C 
ATOM      6  C2  <0> d           0.002  -0.004   0.002  0.00  0.00     0.089 C 
ATOM      7  C1  <0> d          -0.019   1.526   0.010  0.00  0.00     0.033 C 
ATOM      8  N1  <0> d           0.707  -0.477   1.179  0.00  0.00    -0.366 N 
ATOM      9  H17 <0> d           1.676  -0.454   1.195  0.00  0.00     0.162 HD
ENDBRANCH   1   3
BRANCH   1  10
ATOM     10  C5  <0> d          -0.273  -1.871   4.465  0.00  0.00     0.042 C 
ATOM     11  C8  <0> d           0.598  -2.315   5.657  0.00  0.00     0.170 C 
ATOM     12  S2  <0> d           0.256  -4.120   5.779  0.00  0.00     0.146 S 
ATOM     13  C7  <0> d          -0.468  -4.365   4.098  0.00  0.00     0.143 C 
ATOM     14  O1  <0> d           1.487  -4.824   5.865  0.00  0.00    -0.228 OA
ATOM     15  O2  <0> d          -0.750  -4.340   6.758  0.00  0.00    -0.228 OA
ATOM     16  C6  <0> d          -1.157  -2.985   3.908  0.00  0.00     0.046 C 
ATOM     17  C9  <0> d          -1.170  -0.717   4.917  0.00  0.00     0.039 C 
ENDBRANCH   1  10
TORSDOF 2
