REMARK  4 active torsions:
REMARK  status: ('A' for Active; 'I' for Inactive)
REMARK    1  A    between atoms: C10_10  and  O3_20 
REMARK    2  A    between atoms: C18_22  and  O5_28 
REMARK    3  A    between atoms: C19_23  and  O4_27 
REMARK    4  A    between atoms: O5_28  and  C23_29 
ROOT
ATOM      1  C1  <0> d          -0.653   1.371  -0.580  0.00  0.00     0.013 C 
ATOM      2  C2  <0> d          -0.547  -0.145  -0.467  0.00  0.00     0.018 C 
ATOM      3  C3  <0> d          -1.937  -0.745  -0.258  0.00  0.00     0.007 C 
ATOM      4  C4  <0> d          -2.397  -0.555   1.192  0.00  0.00     0.007 C 
ATOM      5  C5  <0> d          -1.392  -1.266   2.097  0.00  0.00     0.007 C 
ATOM      6  C6  <0> d          -0.039  -0.576   2.009  0.00  0.00    -0.005 C 
ATOM      7  C7  <0> d           0.453  -0.618   0.561  0.00  0.00     0.083 C 
ATOM      8  C8  <0> d           1.809   0.102   0.442  0.00  0.00     0.084 C 
ATOM      9  C9  <0> d           2.497  -0.725  -0.633  0.00  0.00     0.012 A 
ATOM     10  C10 <0> d           3.570  -0.462  -1.463  0.00  0.00     0.075 A 
ATOM     11  C11 <0> d           3.995  -1.418  -2.371  0.00  0.00     0.054 A 
ATOM     12  C12 <0> d           3.324  -2.640  -2.448  0.00  0.00     0.045 A 
ATOM     13  C13 <0> d           2.238  -2.889  -1.611  0.00  0.00     0.009 A 
ATOM     14  C14 <0> d           1.824  -1.941  -0.687  0.00  0.00     0.088 A 
ATOM     15  O1  <0> d           0.828  -1.982   0.244  0.00  0.00    -0.337 OA
ATOM     16  C15 <0> d           1.727  -4.263  -1.969  0.00  0.00     0.165 A 
ATOM     17  N1  <0> d           2.616  -4.769  -3.021  0.00  0.00    -0.352 N 
ATOM     18  C16 <0> d           3.537  -3.830  -3.296  0.00  0.00     0.252 A 
ATOM     19  O2  <0> d           4.419  -3.943  -4.126  0.00  0.00    -0.268 OA
ATOM     20  C17 <0> d           0.959  -1.347   2.886  0.00  0.00     0.048 C 
ATOM     21  C18 <0> d           0.468  -1.357   4.332  0.00  0.00     0.162 C 
ATOM     22  C19 <0> d          -0.865  -2.086   4.428  0.00  0.00     0.155 C 
ATOM     23  C20 <0> d          -1.922  -1.497   3.496  0.00  0.00    -0.015 C 
ATOM     24  C21 <0> d          -2.521  -0.234   4.118  0.00  0.00     0.018 C 
ATOM     25  C22 <0> d          -3.061  -2.542   3.411  0.00  0.00     0.018 C 
ATOM     26  C25 <0> d          -0.080   0.872   2.487  0.00  0.00     0.019 C 
ATOM     27  H17 <0> d           2.548  -5.637  -3.448  0.00  0.00     0.163 HD
ENDROOT
BRANCH  21  28
ATOM     28  O5  <0> d           1.434  -2.049   5.140  0.00  0.00    -0.314 OA
BRANCH  28  29
ATOM     29  C23 <0> d           1.544  -1.667   6.422  0.00  0.00     0.255 C 
ATOM     30  O6  <0> d           0.847  -0.776   6.848  0.00  0.00    -0.266 OA
ATOM     31  C24 <0> d           2.536  -2.347   7.329  0.00  0.00     0.126 C 
ENDBRANCH  28  29
ENDBRANCH  21  28
BRANCH  10  32
ATOM     32  O3  <0> d           4.209   0.735  -1.390  0.00  0.00    -0.360 OA
ATOM     33  H18 <0> d           4.945   0.750  -0.762  0.00  0.00     0.217 HD
ENDBRANCH  10  32
BRANCH  22  34
ATOM     34  O4  <0> d          -1.345  -2.017   5.778  0.00  0.00    -0.392 OA
ATOM     35  H27 <0> d          -0.751  -2.417   6.428  0.00  0.00     0.210 HD
ENDBRANCH  22  34
TORSDOF 4
