REMARK  8 active torsions:
REMARK  status: ('A' for Active; 'I' for Inactive)
REMARK    1  A    between atoms: C2_2  and  O1_3 
REMARK    2  A    between atoms: O1_3  and  C3_4 
REMARK    3  A    between atoms: C5_6  and  C12_17 
REMARK    4  A    between atoms: C8_9  and  O2_10 
REMARK    5  A    between atoms: O2_10  and  C9_11 
REMARK    6  A    between atoms: C9_11  and  C10_12 
REMARK    7  A    between atoms: C10_12  and  C11_13 
REMARK       I    between atoms: C11_13  and  N1_15 
REMARK    8  A    between atoms: C12_17  and  N2_18 
ROOT
ATOM      1  C3  <0> d          -1.498  -1.849   0.006  0.00  0.00     0.103 A 
ATOM      2  C4  <0> d          -0.389  -2.680  -0.003  0.00  0.00     0.048 A 
ATOM      3  C5  <0> d          -0.553  -4.052  -0.009  0.00  0.00    -0.029 A 
ATOM      4  C6  <0> d          -1.822  -4.600  -0.006  0.00  0.00     0.030 A 
ATOM      5  C7  <0> d          -2.934  -3.777   0.003  0.00  0.00     0.047 A 
ATOM      6  C8  <0> d          -2.776  -2.400   0.016  0.00  0.00     0.119 A 
ATOM      7 Br1  <0> d          -4.668  -4.531   0.006  0.00  0.00    -0.048 Br
ENDROOT
BRANCH   6   8
ATOM      8  O2  <0> d          -3.868  -1.589   0.030  0.00  0.00    -0.346 OA
BRANCH   8   9
ATOM      9  C9  <0> d          -4.401  -1.195  -1.236  0.00  0.00     0.185 C 
BRANCH   9  10
ATOM     10  C10 <0> d          -5.616  -0.292  -1.019  0.00  0.00     0.129 C 
BRANCH  10  11
ATOM     11  C11 <0> d          -6.178   0.123  -2.354  0.00  0.00     0.217 C 
ATOM     12  O3  <0> d          -5.658  -0.265  -3.378  0.00  0.00    -0.274 OA
ATOM     13  N1  <0> d          -7.259   0.926  -2.410  0.00  0.00    -0.370 N 
ATOM     14  H12 <0> d          -7.676   1.237  -1.591  0.00  0.00     0.159 HD
ATOM     15  H13 <0> d          -7.621   1.194  -3.269  0.00  0.00     0.159 HD
ENDBRANCH  10  11
ENDBRANCH   9  10
ENDBRANCH   8   9
ENDBRANCH   6   8
BRANCH   1  16
ATOM     16  O1  <0> d          -1.339  -0.499   0.012  0.00  0.00    -0.349 OA
BRANCH  16  17
ATOM     17  C2  <0> d           0.002  -0.004   0.002  0.00  0.00     0.171 C 
ATOM     18  C1  <0> d          -0.019   1.526   0.010  0.00  0.00     0.034 C 
ENDBRANCH  16  17
ENDBRANCH   1  16
BRANCH   3  19
ATOM     19  C12 <0> d           0.655  -4.954  -0.020  0.00  0.00     0.268 C 
BRANCH  19  20
ATOM     20  N2  <0> d           1.054  -5.253   1.362  0.00  0.00    -0.075 N 
ATOM     21  H16 <0> d           1.863  -5.857   1.355  0.00  0.00     0.274 HD
ATOM     22  H17 <0> d           1.280  -4.394   1.841  0.00  0.00     0.274 HD
ATOM     23  H18 <0> d           0.294  -5.715   1.839  0.00  0.00     0.274 HD
ENDBRANCH  19  20
ENDBRANCH   3  19
TORSDOF 8
