REMARK  5 active torsions:
REMARK  status: ('A' for Active; 'I' for Inactive)
REMARK    1  A    between atoms: O1_2  and  C2_3 
REMARK    2  A    between atoms: C6_7  and  C11_15 
REMARK    3  A    between atoms: C8_11  and  O2_13 
REMARK       I    between atoms: C11_15  and  N2_17 
REMARK    4  A    between atoms: N2_17  and  N3_18 
REMARK       I    between atoms: N3_18  and  C12_19 
REMARK    5  A    between atoms: C12_19  and  C13_21 
ROOT
ATOM      1  C11 <0> d          -5.031  -5.318   0.032  0.00  0.00     0.286 C 
ATOM      2  O3  <0> d          -4.482  -6.403   0.027  0.00  0.00    -0.264 OA
ATOM      3  N2  <0> d          -6.377  -5.243   0.042  0.00  0.00    -0.262 N 
ATOM      4  H11 <0> d          -6.815  -4.378   0.046  0.00  0.00     0.190 HD
ENDROOT
BRANCH   1   5
ATOM      5  C6  <0> d          -4.227  -4.087   0.028  0.00  0.00     0.103 A 
ATOM      6  C5  <0> d          -2.869  -4.033   0.018  0.00  0.00     0.049 A 
ATOM      7  C4  <0> d          -2.490  -2.669   0.017  0.00  0.00    -0.002 A 
ATOM      8  C3  <0> d          -1.250  -2.016   0.009  0.00  0.00     0.050 A 
ATOM      9  C7  <0> d          -3.677  -1.913   0.027  0.00  0.00     0.077 A 
ATOM     10  C2  <0> d          -1.201  -0.638   0.010  0.00  0.00     0.071 A 
ATOM     11  C9  <0> d          -2.377   0.109   0.025  0.00  0.00     0.075 A 
ATOM     12  C8  <0> d          -3.607  -0.518   0.028  0.00  0.00     0.098 A 
ATOM     13  N1  <0> d          -4.731  -2.801   0.033  0.00  0.00    -0.349 N 
ATOM     14  H1  <0> d          -5.671  -2.563   0.040  0.00  0.00     0.166 HD
BRANCH  10  15
ATOM     15  O1  <0> d           0.002  -0.004   0.002  0.00  0.00    -0.356 OA
ATOM     16  C1  <0> d          -0.017   1.425   0.010  0.00  0.00     0.210 C 
ENDBRANCH  10  15
BRANCH  12  17
ATOM     17  O2  <0> d          -4.748   0.221   0.037  0.00  0.00    -0.354 OA
ATOM     18  C10 <0> d          -4.600   1.642   0.037  0.00  0.00     0.210 C 
ENDBRANCH  12  17
ENDBRANCH   1   5
BRANCH   3  19
ATOM     19  N3  <0> d          -7.143  -6.416   0.045  0.00  0.00    -0.263 N 
ATOM     20  C12 <0> d          -8.489  -6.341   0.055  0.00  0.00     0.277 C 
ATOM     21  O4  <0> d          -9.038  -5.256   0.060  0.00  0.00    -0.265 OA
ATOM     22  H12 <0> d          -6.706  -7.282   0.041  0.00  0.00     0.190 HD
BRANCH  20  23
ATOM     23  C13 <0> d          -9.291  -7.569   0.059  0.00  0.00     0.075 A 
ATOM     24  S1  <0> d          -8.748  -9.265   0.052  0.00  0.00    -0.089 SA
ATOM     25  C16 <0> d         -10.246 -10.017   0.069  0.00  0.00    -0.010 A 
ATOM     26  C15 <0> d         -11.162  -9.016   0.067  0.00  0.00    -0.043 A 
ATOM     27  C17 <0> d         -10.901 -11.374   0.080  0.00  0.00     0.047 C 
ATOM     28  C14 <0> d         -10.664  -7.711   0.063  0.00  0.00     0.033 A 
ATOM     29  C19 <0> d         -12.558  -9.643   0.068  0.00  0.00     0.040 C 
ATOM     30  C18 <0> d         -12.355 -11.101   0.522  0.00  0.00     0.010 C 
ENDBRANCH  20  23
ENDBRANCH   3  19
TORSDOF 5
