REMARK  9 active torsions:
REMARK  status: ('A' for Active; 'I' for Inactive)
REMARK    1  A    between atoms: C4_4  and  O4_28 
REMARK    2  A    between atoms: C5_5  and  C7_7 
REMARK    3  A    between atoms: C10_10  and  C19_21 
REMARK    4  A    between atoms: C11_11  and  C13_14 
REMARK    5  A    between atoms: C18_19  and  O1_20 
REMARK    6  A    between atoms: C19_21  and  C20_22 
REMARK    7  A    between atoms: C19_21  and  N1_25 
REMARK    8  A    between atoms: C20_22  and  C21_23 
REMARK    9  A    between atoms: N1_25  and  C22_26 
ROOT
ATOM      1  C7  <0> d          -0.465  -4.467   3.285  0.00  0.00    -0.005 A 
ATOM      2  C8  <0> d          -1.191  -4.649   2.108  0.00  0.00     0.014 A 
ATOM      3  C9  <0> d          -0.614  -5.288   1.029  0.00  0.00     0.011 A 
ATOM      4  C10 <0> d           0.685  -5.752   1.108  0.00  0.00    -0.023 A 
ATOM      5  C11 <0> d           1.421  -5.577   2.279  0.00  0.00     0.004 A 
ATOM      6  C12 <0> d           0.846  -4.928   3.369  0.00  0.00     0.034 A 
ATOM      7 Br1  <0> d           1.840  -4.679   4.958  0.00  0.00    -0.049 Br
ENDROOT
BRANCH   1   8
ATOM      8  C5  <0> d          -1.087  -3.780   4.443  0.00  0.00     0.009 A 
ATOM      9  C4  <0> d          -0.587  -2.550   4.881  0.00  0.00     0.076 A 
ATOM     10  C3  <0> d          -1.174  -1.914   5.963  0.00  0.00     0.037 A 
ATOM     11  C2  <0> d          -2.250  -2.495   6.607  0.00  0.00     0.003 A 
ATOM     12  C1  <0> d          -2.748  -3.712   6.176  0.00  0.00     0.001 A 
ATOM     13  C6  <0> d          -2.172  -4.356   5.099  0.00  0.00     0.015 A 
BRANCH   9  14
ATOM     14  O4  <0> d           0.470  -1.979   4.247  0.00  0.00    -0.360 OA
ATOM     15  H18 <0> d           1.330  -2.233   4.609  0.00  0.00     0.217 HD
ENDBRANCH   9  14
ENDBRANCH   1   8
BRANCH   5  16
ATOM     16  C13 <0> d           2.815  -6.077   2.363  0.00  0.00     0.009 A 
ATOM     17  C18 <0> d           3.070  -7.375   2.815  0.00  0.00     0.076 A 
ATOM     18  C17 <0> d           4.375  -7.836   2.885  0.00  0.00     0.037 A 
ATOM     19  C16 <0> d           5.420  -7.010   2.519  0.00  0.00     0.003 A 
ATOM     20  C15 <0> d           5.172  -5.723   2.076  0.00  0.00     0.001 A 
ATOM     21  C14 <0> d           3.877  -5.253   1.996  0.00  0.00     0.015 A 
BRANCH  17  22
ATOM     22  O1  <0> d           2.041  -8.184   3.180  0.00  0.00    -0.360 OA
ATOM     23  H12 <0> d           1.685  -8.718   2.457  0.00  0.00     0.217 HD
ENDBRANCH  17  22
ENDBRANCH   5  16
BRANCH   4  24
ATOM     24  C19 <0> d           1.308  -6.449  -0.074  0.00  0.00     0.124 C 
BRANCH  24  25
ATOM     25  C20 <0> d           2.197  -5.465  -0.836  0.00  0.00     0.099 C 
BRANCH  25  26
ATOM     26  C21 <0> d           2.915  -6.191  -1.944  0.00  0.00     0.233 C 
ATOM     27  O2  <0> d           2.824  -5.798  -3.082  0.00  0.00    -0.307 OA
ENDBRANCH  25  26
ENDBRANCH  24  25
BRANCH  24  28
ATOM     28  N1  <0> d           0.252  -6.941  -0.962  0.00  0.00    -0.359 N 
ATOM     29  H16 <0> d          -0.026  -6.412  -1.726  0.00  0.00     0.162 HD
BRANCH  28  30
ATOM     30  C22 <0> d          -0.334  -8.131  -0.718  0.00  0.00     0.349 C 
ATOM     31  O3  <0> d           0.014  -8.793   0.236  0.00  0.00    -0.284 OA
ENDBRANCH  28  30
ENDBRANCH  24  28
ENDBRANCH   4  24
TORSDOF 9
