REMARK  3 active torsions:
REMARK  status: ('A' for Active; 'I' for Inactive)
REMARK    1  A    between atoms: C3_5  and  C5_8 
REMARK    2  A    between atoms: C5_8  and  N4_9 
REMARK    3  A    between atoms: C9_13  and  C12_16 
ROOT
ATOM      1  N4  <0> d           1.447  -3.735   1.694  0.00  0.00    -0.063 N 
ATOM      2  C6  <0> d           2.094  -2.711   2.524  0.00  0.00     0.235 C 
ATOM      3  C7  <0> d           3.566  -3.072   2.732  0.00  0.00     0.029 C 
ATOM      4  C8  <0> d           3.659  -4.432   3.431  0.00  0.00     0.023 C 
ATOM      5  C9  <0> d           2.917  -5.477   2.593  0.00  0.00     0.069 C 
ATOM      6  C10 <0> d           1.469  -5.027   2.391  0.00  0.00     0.255 C 
ATOM      7  C11 <0> d           3.603  -5.621   1.233  0.00  0.00     0.028 C 
ATOM      8  H20 <0> d           1.942  -3.817   0.819  0.00  0.00     0.280 HD
ENDROOT
BRANCH   1   9
ATOM      9  C5  <0> d           0.056  -3.344   1.433  0.00  0.00     0.315 C 
BRANCH   9  10
ATOM     10  C3  <0> d           0.034  -2.081   0.612  0.00  0.00     0.155 A 
ATOM     11  N2  <0> d           0.027  -2.006  -0.691  0.00  0.00    -0.133 NA
ATOM     12  N1  <0> d           0.008  -0.772  -1.054  0.00  0.00    -0.135 NA
ATOM     13  C2  <0> d           0.002  -0.004   0.002  0.00  0.00     0.125 A 
ATOM     14  C1  <0> d          -0.018   1.503   0.010  0.00  0.00     0.093 C 
ATOM     15  N3  <0> d           0.023  -0.813   1.089  0.00  0.00    -0.324 N 
ATOM     16  C4  <0> d           0.030  -0.400   2.494  0.00  0.00     0.159 C 
ENDBRANCH   9  10
ENDBRANCH   1   9
BRANCH   5  17
ATOM     17  C12 <0> d           2.936  -6.803   3.310  0.00  0.00     0.183 C 
ATOM     18  O1  <0> d           3.491  -6.903   4.391  0.00  0.00    -0.647 OA
ATOM     19  O2  <0> d           2.397  -7.774   2.810  0.00  0.00    -0.647 OA
ENDBRANCH   5  17
TORSDOF 3
