REMARK  6 active torsions:
REMARK  status: ('A' for Active; 'I' for Inactive)
REMARK    1  A    between atoms: N1_11  and  C11_12 
REMARK    2  A    between atoms: C11_12  and  C12_13 
REMARK    3  A    between atoms: C12_13  and  C13_15 
REMARK    4  A    between atoms: N2_17  and  C17_24 
REMARK    5  A    between atoms: C17_24  and  C18_25 
REMARK    6  A    between atoms: C18_25  and  O4_26 
ROOT
ATOM      1  C13 <0> d          -0.102   1.090   4.475  0.00  0.00     0.123 A 
ATOM      2  C14 <0> d          -1.192   1.108   5.364  0.00  0.00     0.124 A 
ATOM      3  N2  <0> d          -1.107   1.863   6.498  0.00  0.00    -0.283 N 
ATOM      4  C15 <0> d          -0.009   2.583   6.776  0.00  0.00     0.331 A 
ATOM      5  O2  <0> d           0.018   3.239   7.799  0.00  0.00    -0.246 OA
ATOM      6  N3  <0> d           1.062   2.605   5.966  0.00  0.00    -0.274 N 
ATOM      7  H2  <0> d           1.835   3.140   6.208  0.00  0.00     0.173 HD
ATOM      8  C16 <0> d           1.080   1.888   4.824  0.00  0.00     0.267 A 
ATOM      9  O3  <0> d           2.054   1.906   4.094  0.00  0.00    -0.267 OA
ATOM     10  N4  <0> d          -2.313   0.385   5.097  0.00  0.00    -0.384 N 
ATOM     11  H23 <0> d          -2.337  -0.209   4.330  0.00  0.00     0.157 HD
ATOM     12  H24 <0> d          -3.090   0.464   5.673  0.00  0.00     0.157 HD
ENDROOT
BRANCH   1  13
ATOM     13  C12 <0> d          -0.142   0.325   3.290  0.00  0.00     0.186 C 
ATOM     14  O1  <0> d          -1.082  -0.414   3.075  0.00  0.00    -0.290 OA
BRANCH  13  15
ATOM     15  C11 <0> d           0.982   0.425   2.291  0.00  0.00     0.207 C 
BRANCH  15  16
ATOM     16  N1  <0> d           0.707  -0.460   1.156  0.00  0.00    -0.369 N 
ATOM     17  C2  <0> d          -0.039   0.032  -0.010  0.00  0.00     0.081 C 
ATOM     18  C1  <0> d          -0.081   1.561   0.009  0.00  0.00     0.032 C 
ATOM     19  C3  <0> d           0.687  -0.454  -1.271  0.00  0.00     0.029 C 
ATOM     20  C4  <0> d           0.655  -1.982  -1.302  0.00  0.00     0.043 C 
ATOM     21  C5  <0> d           1.147  -2.546   0.005  0.00  0.00    -0.032 A 
ATOM     22  C10 <0> d           1.152  -1.787   1.165  0.00  0.00     0.037 A 
ATOM     23  C6  <0> d           1.601  -3.854   0.041  0.00  0.00     0.009 A 
ATOM     24  C9  <0> d           1.608  -2.341   2.356  0.00  0.00     0.030 A 
ATOM     25  C8  <0> d           2.058  -3.645   2.384  0.00  0.00     0.002 A 
ATOM     26  C7  <0> d           2.055  -4.401   1.226  0.00  0.00     0.001 A 
ENDBRANCH  15  16
ENDBRANCH  13  15
ENDBRANCH   1  13
BRANCH   3  27
ATOM     27  C17 <0> d          -2.237   1.889   7.430  0.00  0.00     0.161 C 
BRANCH  27  28
ATOM     28  C18 <0> d          -2.072   0.771   8.462  0.00  0.00     0.187 C 
BRANCH  28  29
ATOM     29  O4  <0> d          -0.916   1.028   9.262  0.00  0.00    -0.394 OA
ATOM     30  C19 <0> d          -0.670   0.039  10.263  0.00  0.00     0.201 C 
ENDBRANCH  28  29
ENDBRANCH  27  28
ENDBRANCH   3  27
TORSDOF 6
