REMARK  5 active torsions:
REMARK  status: ('A' for Active; 'I' for Inactive)
REMARK    1  A    between atoms: C4_4  and  S1_7 
REMARK    2  A    between atoms: S1_7  and  C7_8 
REMARK    3  A    between atoms: C7_8  and  C8_9 
REMARK    4  A    between atoms: C7_8  and  C9_11 
REMARK    5  A    between atoms: C8_9  and  N1_10 
ROOT
ATOM      1  C7  <0> d           3.321  -2.541  -0.101  0.00  0.00     0.117 C 
ENDROOT
BRANCH   1   2
ATOM      2  S1  <0> d           3.947  -0.839  -0.052  0.00  0.00    -0.118 SA
BRANCH   2   3
ATOM      3  C4  <0> d           4.582  -0.573  -1.674  0.00  0.00     0.001 A 
ATOM      4  C3  <0> d           5.276   0.596  -1.967  0.00  0.00     0.018 A 
ATOM      5  C2  <0> d           5.773   0.801  -3.239  0.00  0.00     0.001 A 
ATOM      6  C1  <0> d           5.582  -0.155  -4.221  0.00  0.00     0.000 A 
ATOM      7  C6  <0> d           4.892  -1.319  -3.932  0.00  0.00     0.001 A 
ATOM      8  C5  <0> d           4.392  -1.530  -2.663  0.00  0.00     0.018 A 
ENDBRANCH   2   3
ENDBRANCH   1   2
BRANCH   1   9
ATOM      9  C8  <0> d           2.503  -2.819   1.162  0.00  0.00     0.250 C 
BRANCH   9  10
ATOM     10  N1  <0> d           1.301  -1.975   1.163  0.00  0.00    -0.078 N 
ATOM     11  H9  <0> d           0.717  -2.221   1.948  0.00  0.00     0.274 HD
ATOM     12  H10 <0> d           1.571  -1.006   1.235  0.00  0.00     0.274 HD
ATOM     13  H13 <0> d           0.789  -2.118   0.305  0.00  0.00     0.274 HD
ENDBRANCH   9  10
ENDBRANCH   1   9
BRANCH   1  14
ATOM     14  C9  <0> d           4.481  -3.501  -0.169  0.00  0.00    -0.001 A 
ATOM     15  S2  <0> d           5.822  -3.728   0.988  0.00  0.00    -0.086 SA
ATOM     16  C12 <0> d           6.685  -5.028   0.120  0.00  0.00     0.051 A 
ATOM     17  C11 <0> d           5.910  -5.194  -0.980  0.00  0.00     0.028 A 
ATOM     18 Br1  <0> d           8.272  -5.934   0.607  0.00  0.00    -0.043 Br
ATOM     19  C10 <0> d           4.780  -4.411  -1.128  0.00  0.00     0.017 A 
ENDBRANCH   1  14
TORSDOF 5
