REMARK  3 active torsions:
REMARK  status: ('A' for Active; 'I' for Inactive)
REMARK    1  A    between atoms: N1_5  and  C5_7 
REMARK    2  A    between atoms: C5_7  and  C6_8 
REMARK    3  A    between atoms: C9_11  and  N3_15 
ROOT
ATOM      1  C6  <0> d           1.481  -3.682   1.774  0.00  0.00    -0.021 A 
ATOM      2  C7  <0> d           2.108  -4.636   0.995  0.00  0.00     0.012 A 
ATOM      3  C8  <0> d           3.416  -4.994   1.257  0.00  0.00     0.029 A 
ATOM      4  C9  <0> d           4.103  -4.393   2.305  0.00  0.00     0.026 A 
ATOM      5  C10 <0> d           3.471  -3.434   3.086  0.00  0.00     0.048 A 
ATOM      6  C11 <0> d           2.163  -3.077   2.815  0.00  0.00     0.021 A 
ATOM      7 Br1  <0> d           1.304  -1.766   3.873  0.00  0.00    -0.050 Br
ENDROOT
BRANCH   1   8
ATOM      8  C5  <0> d           0.053  -3.295   1.486  0.00  0.00     0.191 C 
BRANCH   8   9
ATOM      9  N1  <0> d           0.034  -2.109   0.625  0.00  0.00    -0.268 N 
ATOM     10  C4  <0> d           0.027  -2.108  -0.725  0.00  0.00     0.046 A 
ATOM     11  C3  <0> d           0.008  -0.818  -1.136  0.00  0.00     0.060 A 
ATOM     12  C12 <0> d           0.039  -3.324  -1.615  0.00  0.00     0.071 C 
ATOM     13  C2  <0> d           0.002  -0.004   0.002  0.00  0.00     0.070 A 
ATOM     14 Br2  <0> d          -0.009  -0.222  -2.930  0.00  0.00    -0.047 Br
ATOM     15  C1  <0> d          -0.018   1.503   0.010  0.00  0.00     0.074 C 
ATOM     16  N2  <0> d           0.023  -0.777   1.058  0.00  0.00    -0.176 NA
ENDBRANCH   8   9
ENDBRANCH   1   8
BRANCH   4  17
ATOM     17  N3  <0> d           5.425  -4.753   2.572  0.00  0.00    -0.399 N 
ATOM     18  H9  <0> d           5.866  -5.423   2.026  0.00  0.00     0.156 HD
ATOM     19  H10 <0> d           5.904  -4.333   3.304  0.00  0.00     0.156 HD
ENDBRANCH   4  17
TORSDOF 3
