REMARK  4 active torsions:
REMARK  status: ('A' for Active; 'I' for Inactive)
REMARK    1  A    between atoms: C2_2  and  N1_5 
REMARK       I    between atoms: N1_5  and  C5_6 
REMARK    2  A    between atoms: C5_6  and  C6_8 
REMARK    3  A    between atoms: C6_8  and  N2_9 
REMARK    4  A    between atoms: C10_13  and  C11_14 
REMARK       I    between atoms: C11_14  and  N3_16 
ROOT
ATOM      1  N2  <0> d           4.055  -0.110  -2.677  0.00  0.00    -0.050 N 
ATOM      2  C7  <0> d           4.041   1.363  -2.812  0.00  0.00     0.236 C 
ATOM      3  C8  <0> d           5.270   1.691  -3.696  0.00  0.00     0.030 C 
ATOM      4  C9  <0> d           5.264   0.503  -4.694  0.00  0.00     0.045 C 
ATOM      5  C10 <0> d           4.785  -0.679  -3.825  0.00  0.00     0.280 C 
ATOM      6  H29 <0> d           4.519  -0.366  -1.819  0.00  0.00     0.281 HD
ENDROOT
BRANCH   1   7
ATOM      7  C6  <0> d           2.677  -0.618  -2.667  0.00  0.00     0.338 C 
BRANCH   7   8
ATOM      8  C5  <0> d           1.972  -0.132  -1.427  0.00  0.00     0.244 C 
ATOM      9  N1  <0> d           0.688  -0.476  -1.203  0.00  0.00    -0.352 N 
ATOM     10  H11 <0> d           0.218  -1.037  -1.840  0.00  0.00     0.163 HD
ATOM     11  O1  <0> d           2.559   0.569  -0.630  0.00  0.00    -0.272 OA
BRANCH   9  12
ATOM     12  C2  <0> d           0.002  -0.004   0.002  0.00  0.00     0.022 C 
ATOM     13  C1  <0> d          -0.019   1.526   0.010  0.00  0.00     0.037 C 
ATOM     14  C3  <0> d           0.742  -0.511   1.242  0.00  0.00     0.037 C 
ATOM     15  C4  <0> d          -1.433  -0.534   0.013  0.00  0.00     0.037 C 
ENDBRANCH   9  12
ENDBRANCH   7   8
ENDBRANCH   1   7
BRANCH   5  16
ATOM     16  C11 <0> d           5.971  -1.470  -3.336  0.00  0.00     0.251 C 
ATOM     17  O2  <0> d           6.195  -1.556  -2.147  0.00  0.00    -0.271 OA
ATOM     18  N3  <0> d           6.784  -2.081  -4.221  0.00  0.00    -0.347 N 
ATOM     19  C15 <0> d           7.947  -2.858  -3.765  0.00  0.00     0.155 C 
ATOM     20  C12 <0> d           6.535  -1.984  -5.667  0.00  0.00     0.155 C 
ATOM     21  C14 <0> d           7.893  -4.242  -4.431  0.00  0.00     0.289 C 
ATOM     22  N4  <0> d           7.789  -4.077  -5.886  0.00  0.00     0.086 N 
ATOM     23  C13 <0> d           6.540  -3.398  -6.258  0.00  0.00     0.289 C 
ATOM     24  H24 <0> d           7.872  -4.965  -6.358  0.00  0.00     0.316 HD
ENDBRANCH   5  16
TORSDOF 4
