REMARK  3 active torsions:
REMARK  status: ('A' for Active; 'I' for Inactive)
REMARK    1  A    between atoms: N1_6  and  C7_8 
REMARK    2  A    between atoms: C7_8  and  C9_10 
REMARK    3  A    between atoms: C9_10  and  C10_12 
ROOT
ATOM      1  C10 <0> d           3.787  -1.990   3.433  0.00  0.00     0.124 A 
ATOM      2  C11 <0> d           5.134  -1.594   3.352  0.00  0.00     0.124 A 
ATOM      3  N2  <0> d           5.909  -1.658   4.474  0.00  0.00    -0.289 N 
ATOM      4  C12 <0> d           5.411  -2.089   5.643  0.00  0.00     0.332 A 
ATOM      5  O2  <0> d           6.143  -2.127   6.613  0.00  0.00    -0.246 OA
ATOM      6  N3  <0> d           4.134  -2.480   5.781  0.00  0.00    -0.270 N 
ATOM      7  C13 <0> d           3.284  -2.450   4.734  0.00  0.00     0.269 A 
ATOM      8  O3  <0> d           2.125  -2.800   4.863  0.00  0.00    -0.267 OA
ATOM      9  C14 <0> d           3.655  -2.940   7.087  0.00  0.00     0.164 C 
ATOM     10  C15 <0> d           7.314  -1.248   4.400  0.00  0.00     0.163 C 
ATOM     11  N4  <0> d           5.655  -1.155   2.175  0.00  0.00    -0.384 N 
ATOM     12  H22 <0> d           5.080  -1.041   1.402  0.00  0.00     0.157 HD
ATOM     13  H23 <0> d           6.603  -0.957   2.108  0.00  0.00     0.157 HD
ENDROOT
BRANCH   1  14
ATOM     14  C9  <0> d           2.945  -1.943   2.301  0.00  0.00     0.199 C 
ATOM     15  O1  <0> d           3.348  -1.455   1.265  0.00  0.00    -0.290 OA
BRANCH  14  16
ATOM     16  C7  <0> d           1.546  -2.497   2.380  0.00  0.00     0.258 C 
ATOM     17  C8  <0> d           1.601  -4.026   2.359  0.00  0.00     0.049 C 
BRANCH  16  18
ATOM     18  N1  <0> d           0.765  -2.020   1.231  0.00  0.00    -0.059 N 
ATOM     19  C5  <0> d          -0.598  -2.561   1.309  0.00  0.00     0.240 C 
ATOM     20  C4  <0> d          -1.391  -2.133   0.072  0.00  0.00     0.008 C 
ATOM     21  C3  <0> d          -1.450  -0.604   0.014  0.00  0.00     0.011 C 
ATOM     22  C16 <0> d          -2.812  -2.696   0.156  0.00  0.00     0.011 C 
ATOM     23  C2  <0> d          -0.023  -0.048   0.008  0.00  0.00     0.008 C 
ATOM     24  C1  <0> d          -0.071   1.481   0.029  0.00  0.00     0.011 C 
ATOM     25  C6  <0> d           0.721  -0.553   1.246  0.00  0.00     0.240 C 
ATOM     26  H27 <0> d           1.202  -2.333   0.377  0.00  0.00     0.280 HD
ENDBRANCH  16  18
ENDBRANCH  14  16
ENDBRANCH   1  14
TORSDOF 3
