REMARK  6 active torsions:
REMARK  status: ('A' for Active; 'I' for Inactive)
REMARK    1  A    between atoms: C2_2  and  N1_4 
REMARK    2  A    between atoms: N1_4  and  C4_5 
REMARK    3  A    between atoms: C4_5  and  C5_6 
REMARK    4  A    between atoms: N3_10  and  C8_11 
REMARK    5  A    between atoms: C8_11  and  C9_12 
REMARK       I    between atoms: C9_12  and  N4_14 
REMARK    6  A    between atoms: N4_14  and  C10_15 
ROOT
ATOM      1  C5  <0> d          -2.795  -2.510  -0.102  0.00  0.00     0.109 A 
ATOM      2  N2  <0> d          -3.521  -2.770  -1.154  0.00  0.00    -0.353 N 
ATOM      3  C6  <0> d          -4.727  -3.207  -0.762  0.00  0.00     0.106 A 
ATOM      4  C7  <0> d          -4.749  -3.217   0.584  0.00  0.00     0.110 A 
ATOM      5  N3  <0> d          -3.522  -2.780   1.004  0.00  0.00    -0.335 N 
ATOM      6  H20 <0> d          -3.233  -2.665  -2.075  0.00  0.00     0.166 HD
ENDROOT
BRANCH   5   7
ATOM      7  C8  <0> d          -3.080  -2.631   2.393  0.00  0.00     0.232 C 
BRANCH   7   8
ATOM      8  C9  <0> d          -3.299  -1.208   2.839  0.00  0.00     0.240 C 
ATOM      9  O1  <0> d          -3.777  -0.399   2.072  0.00  0.00    -0.271 OA
ATOM     10  N4  <0> d          -2.965  -0.835   4.090  0.00  0.00    -0.325 N 
ATOM     11  H15 <0> d          -2.643  -1.496   4.723  0.00  0.00     0.169 HD
BRANCH  10  12
ATOM     12  C10 <0> d          -3.080   0.506   4.475  0.00  0.00     0.052 A 
ATOM     13  C15 <0> d          -2.167   1.054   5.367  0.00  0.00     0.037 A 
ATOM     14  C14 <0> d          -2.281   2.380   5.741  0.00  0.00     0.021 A 
ATOM     15 Br1  <0> d          -0.766  -0.009   6.063  0.00  0.00    -0.049 Br
ATOM     16  C13 <0> d          -3.308   3.156   5.237  0.00  0.00     0.002 A 
ATOM     17  C12 <0> d          -4.221   2.611   4.353  0.00  0.00     0.002 A 
ATOM     18  C11 <0> d          -4.110   1.288   3.971  0.00  0.00     0.031 A 
ENDBRANCH  10  12
ENDBRANCH   7   8
ENDBRANCH   5   7
BRANCH   1  19
ATOM     19  C4  <0> d          -1.377  -1.998  -0.117  0.00  0.00     0.309 C 
BRANCH  19  20
ATOM     20  N1  <0> d          -1.384  -0.534   0.008  0.00  0.00    -0.065 N 
ATOM     21  H8  <0> d          -1.827  -0.273   0.876  0.00  0.00     0.278 HD
ATOM     22  H21 <0> d          -1.895  -0.133  -0.764  0.00  0.00     0.278 HD
BRANCH  20  23
ATOM     23  C2  <0> d          -0.002  -0.035  -0.007  0.00  0.00     0.178 C 
ATOM     24  C1  <0> d          -0.013   1.495  -0.003  0.00  0.00     0.039 C 
ATOM     25  C3  <0> d           0.737  -0.543   1.232  0.00  0.00     0.039 C 
ENDBRANCH  20  23
ENDBRANCH  19  20
ENDBRANCH   1  19
TORSDOF 6
