REMARK  4 active torsions:
REMARK  status: ('A' for Active; 'I' for Inactive)
REMARK    1  A    between atoms: C6_6  and  C8_9 
REMARK       I    between atoms: C8_9  and  N1_11 
REMARK    2  A    between atoms: C10_13  and  C17_21 
REMARK       I    between atoms: C17_21  and  N3_23 
REMARK    3  A    between atoms: N3_23  and  C18_24 
REMARK    4  A    between atoms: C18_24  and  C20_26 
ROOT
ATOM      1  C8  <0> d          -0.099  -2.595   2.267  0.00  0.00     0.260 C 
ATOM      2  O1  <0> d           1.009  -2.806   2.721  0.00  0.00    -0.267 OA
ATOM      3  N1  <0> d          -1.190  -3.042   2.918  0.00  0.00    -0.346 N 
ATOM      4  C9  <0> d          -2.610  -2.890   2.522  0.00  0.00     0.141 C 
ATOM      5  C10 <0> d          -3.264  -4.243   2.884  0.00  0.00     0.106 C 
ATOM      6  C11 <0> d          -2.363  -4.833   3.981  0.00  0.00    -0.007 C 
ATOM      7  C12 <0> d          -1.242  -3.804   4.189  0.00  0.00     0.136 C 
ATOM      8  C13 <0> d          -1.771  -6.162   3.521  0.00  0.00     0.039 C 
ATOM      9  C14 <0> d          -0.925  -6.757   4.650  0.00  0.00     0.233 C 
ATOM     10  N2  <0> d          -1.763  -6.957   5.839  0.00  0.00    -0.075 N 
ATOM     11  C15 <0> d          -2.253  -5.663   6.330  0.00  0.00     0.233 C 
ATOM     12  C16 <0> d          -3.155  -5.021   5.271  0.00  0.00     0.039 C 
ATOM     13  H17 <0> d          -2.549  -7.543   5.601  0.00  0.00     0.277 HD
ATOM     14  H32 <0> d          -1.219  -7.405   6.561  0.00  0.00     0.277 HD
ENDROOT
BRANCH   5  15
ATOM     15  C17 <0> d          -3.292  -5.150   1.681  0.00  0.00     0.224 C 
ATOM     16  O2  <0> d          -2.423  -5.068   0.839  0.00  0.00    -0.273 OA
ATOM     17  N3  <0> d          -4.283  -6.052   1.540  0.00  0.00    -0.352 N 
ATOM     18  H22 <0> d          -4.979  -6.118   2.213  0.00  0.00     0.163 HD
BRANCH  17  19
ATOM     19  C18 <0> d          -4.311  -6.934   0.370  0.00  0.00     0.117 C 
ATOM     20  C19 <0> d          -3.432  -8.158   0.634  0.00  0.00     0.037 C 
BRANCH  19  21
ATOM     21  C20 <0> d          -5.727  -7.378   0.109  0.00  0.00     0.014 A 
ATOM     22  C22 <0> d          -6.638  -7.828   1.070  0.00  0.00     0.061 A 
ATOM     23  N5  <0> d          -7.761  -8.118   0.464  0.00  0.00    -0.179 NA
ATOM     24  C23 <0> d          -6.374  -7.952   2.549  0.00  0.00     0.073 C 
ATOM     25  N4  <0> d          -7.596  -7.872  -0.905  0.00  0.00    -0.282 N 
ATOM     26  C21 <0> d          -6.340  -7.418  -1.097  0.00  0.00     0.034 A 
ATOM     27  H3  <0> d          -8.266  -8.004  -1.593  0.00  0.00     0.189 HD
ATOM     28  C24 <0> d          -5.728  -7.027  -2.417  0.00  0.00     0.070 C 
ENDBRANCH  19  21
ENDBRANCH  17  19
ENDBRANCH   5  15
BRANCH   1  29
ATOM     29  C6  <0> d          -0.248  -1.848   1.004  0.00  0.00     0.109 A 
ATOM     30  C5  <0> d          -0.263  -2.529  -0.218  0.00  0.00     0.135 A 
ATOM     31  C4  <0> d          -0.403  -1.821  -1.397  0.00  0.00     0.044 A 
ATOM     32  F2  <0> d          -0.141  -3.874  -0.246  0.00  0.00    -0.205 F 
ATOM     33  C3  <0> d          -0.529  -0.444  -1.371  0.00  0.00     0.013 A 
ATOM     34  C2  <0> d          -0.515   0.237  -0.168  0.00  0.00    -0.022 A 
ATOM     35  C1  <0> d          -0.652   1.738  -0.152  0.00  0.00     0.051 C 
ATOM     36  C7  <0> d          -0.369  -0.454   1.020  0.00  0.00     0.141 A 
ATOM     37  F1  <0> d          -0.350   0.214   2.195  0.00  0.00    -0.204 F 
ENDBRANCH   1  29
TORSDOF 4
