REMARK  2 active torsions:
REMARK  status: ('A' for Active; 'I' for Inactive)
REMARK    1  A    between atoms: C2_2  and  C3_3 
REMARK    2  A    between atoms: C3_3  and  N1_4 
ROOT
ATOM      1  N1  <0> d          -1.318  -1.700  -1.126  0.00  0.00    -0.262 N 
ATOM      2  C4  <0> d          -1.822  -1.295  -2.314  0.00  0.00     0.271 A 
ATOM      3  O1  <0> d          -2.256  -0.165  -2.448  0.00  0.00    -0.266 OA
ATOM      4  C5  <0> d          -1.836  -2.193  -3.385  0.00  0.00     0.100 A 
ATOM      5  C6  <0> d          -1.342  -3.494  -3.252  0.00  0.00     0.059 A 
ATOM      6  C7  <0> d          -1.434  -4.250  -4.416  0.00  0.00     0.038 A 
ATOM      7  C8  <0> d          -1.966  -3.702  -5.530  0.00  0.00     0.053 A 
ATOM      8  S1  <0> d          -2.372  -2.136  -5.073  0.00  0.00    -0.094 SA
ATOM      9  N2  <0> d          -0.836  -3.838  -1.989  0.00  0.00    -0.307 N 
ATOM     10  H1  <0> d          -0.481  -4.728  -1.841  0.00  0.00     0.170 HD
ATOM     11  C9  <0> d          -0.834  -2.946  -0.987  0.00  0.00     0.330 A 
ATOM     12  O2  <0> d          -0.382  -3.280   0.092  0.00  0.00    -0.246 OA
ENDROOT
BRANCH   1  13
ATOM     13  C3  <0> d          -1.293  -0.775   0.010  0.00  0.00     0.163 C 
BRANCH  13  14
ATOM     14  C2  <0> d           0.002  -0.004   0.002  0.00  0.00    -0.017 C 
ATOM     15  C1  <0> d          -0.016   1.306   0.009  0.00  0.00     0.008 C 
ENDBRANCH  13  14
ENDBRANCH   1  13
TORSDOF 2
