REMARK  8 active torsions:
REMARK  status: ('A' for Active; 'I' for Inactive)
REMARK    1  A    between atoms: C3_3  and  O2_25 
REMARK    2  A    between atoms: C6_6  and  C7_7 
REMARK    3  A    between atoms: N1_10  and  C12_13 
REMARK    4  A    between atoms: C12_13  and  C13_14 
REMARK       I    between atoms: C13_14  and  N2_16 
REMARK    5  A    between atoms: N2_16  and  C14_17 
REMARK    6  A    between atoms: N2_16  and  C17_21 
REMARK    7  A    between atoms: C14_17  and  C15_18 
REMARK    8  A    between atoms: C17_21  and  C18_22 
ROOT
ATOM      1  C15 <0> d          -8.122  -3.299  -0.786  0.00  0.00     0.143 C 
ATOM      2  C16 <0> d          -9.157  -3.334   0.261  0.00  0.00     0.060 C 
ATOM      3  N3  <0> d          -9.955  -3.360   1.069  0.00  0.00    -0.197 NA
ENDROOT
BRANCH   1   4
ATOM      4  C14 <0> d          -7.182  -4.494  -0.613  0.00  0.00     0.140 C 
BRANCH   4   5
ATOM      5  N2  <0> d          -6.152  -4.459  -1.655  0.00  0.00    -0.349 N 
ATOM      6  C13 <0> d          -4.995  -3.804  -1.438  0.00  0.00     0.248 C 
ATOM      7  O1  <0> d          -4.143  -3.776  -2.300  0.00  0.00    -0.271 OA
BRANCH   6   8
ATOM      8  C12 <0> d          -4.760  -3.107  -0.123  0.00  0.00     0.375 C 
BRANCH   8   9
ATOM      9  N1  <0> d          -3.434  -2.473  -0.135  0.00  0.00     0.100 N 
ATOM     10  C9  <0> d          -3.380  -1.386  -1.121  0.00  0.00     0.301 C 
ATOM     11  C8  <0> d          -2.066  -0.666  -1.029  0.00  0.00     0.011 C 
ATOM     12  C7  <0> d          -1.266  -0.762   0.011  0.00  0.00    -0.048 C 
ATOM     13  C11 <0> d          -1.587  -1.617   1.205  0.00  0.00     0.069 C 
ATOM     14  C10 <0> d          -3.079  -1.967   1.201  0.00  0.00     0.278 C 
BRANCH  12  15
ATOM     15  C6  <0> d           0.002  -0.004   0.002  0.00  0.00    -0.030 A 
ATOM     16  C1  <0> d          -0.017   1.392   0.010  0.00  0.00     0.014 A 
ATOM     17  C2  <0> d           1.169   2.095   0.002  0.00  0.00     0.037 A 
ATOM     18  C3  <0> d           2.380   1.417  -0.013  0.00  0.00     0.065 A 
ATOM     19  C4  <0> d           2.403   0.029  -0.021  0.00  0.00     0.037 A 
ATOM     20  C5  <0> d           1.222  -0.682  -0.014  0.00  0.00     0.014 A 
BRANCH  18  21
ATOM     21  O2  <0> d           3.547   2.114  -0.022  0.00  0.00    -0.361 OA
ATOM     22  H22 <0> d           3.893   2.312   0.859  0.00  0.00     0.217 HD
ENDBRANCH  18  21
ENDBRANCH  12  15
ENDBRANCH   8   9
ENDBRANCH   6   8
BRANCH   5  23
ATOM     23  C17 <0> d          -6.381  -5.137  -2.934  0.00  0.00     0.140 C 
BRANCH  23  24
ATOM     24  C18 <0> d          -5.879  -6.580  -2.843  0.00  0.00     0.143 C 
ATOM     25  C19 <0> d          -6.109  -7.261  -4.128  0.00  0.00     0.060 C 
ATOM     26  N4  <0> d          -6.287  -7.787  -5.119  0.00  0.00    -0.197 NA
ENDBRANCH  23  24
ENDBRANCH   5  23
ENDBRANCH   4   5
ENDBRANCH   1   4
TORSDOF 8
