REMARK  5 active torsions:
REMARK  status: ('A' for Active; 'I' for Inactive)
REMARK    1  A    between atoms: O1_2  and  C2_3 
REMARK    2  A    between atoms: C2_3  and  C3_5 
REMARK    3  A    between atoms: C4_6  and  C10_18 
REMARK    4  A    between atoms: C5_9  and  N2_10 
REMARK    5  A    between atoms: N2_10  and  C6_11 
ROOT
ATOM      1  C3  <0> d          -1.248  -2.095   0.003  0.00  0.00     0.124 A 
ATOM      2  C4  <0> d          -1.277  -2.981   1.175  0.00  0.00     0.115 A 
ATOM      3  N1  <0> d          -1.328  -4.210   0.728  0.00  0.00    -0.125 NA
ATOM      4  O3  <0> d          -1.333  -4.190  -0.684  0.00  0.00    -0.194 OA
ATOM      5  C5  <0> d          -1.291  -2.922  -1.115  0.00  0.00     0.188 A 
ENDROOT
BRANCH   5   6
ATOM      6  N2  <0> d          -1.287  -2.513  -2.424  0.00  0.00    -0.362 N 
ATOM      7  H5  <0> d          -1.252  -1.568  -2.636  0.00  0.00     0.162 HD
BRANCH   6   8
ATOM      8  C6  <0> d          -1.336  -3.505  -3.501  0.00  0.00     0.098 C 
ATOM      9  C9  <0> d          -1.943  -2.861  -4.780  0.00  0.00     0.165 C 
ATOM     10  S1  <0> d          -1.341  -4.034  -6.067  0.00  0.00     0.146 S 
ATOM     11  C8  <0> d           0.082  -4.771  -5.165  0.00  0.00     0.142 C 
ATOM     12  O4  <0> d          -0.852  -3.293  -7.176  0.00  0.00    -0.228 OA
ATOM     13  O5  <0> d          -2.326  -5.037  -6.276  0.00  0.00    -0.228 OA
ATOM     14  C7  <0> d           0.088  -3.981  -3.834  0.00  0.00     0.041 C 
ENDBRANCH   6   8
ENDBRANCH   5   6
BRANCH   1  15
ATOM     15  C2  <0> d          -1.191  -0.633   0.010  0.00  0.00     0.299 C 
ATOM     16  O2  <0> d          -2.220   0.016   0.023  0.00  0.00    -0.259 OA
BRANCH  15  17
ATOM     17  O1  <0> d           0.002  -0.004   0.002  0.00  0.00    -0.322 OA
ATOM     18  C1  <0> d          -0.017   1.425   0.010  0.00  0.00     0.213 C 
ENDBRANCH  15  17
ENDBRANCH   1  15
BRANCH   2  19
ATOM     19  C10 <0> d          -1.254  -2.562   2.598  0.00  0.00    -0.004 A 
ATOM     20  C15 <0> d          -1.970  -3.283   3.552  0.00  0.00     0.014 A 
ATOM     21  C14 <0> d          -1.940  -2.891   4.875  0.00  0.00     0.001 A 
ATOM     22  C13 <0> d          -1.210  -1.778   5.253  0.00  0.00     0.000 A 
ATOM     23  C12 <0> d          -0.502  -1.055   4.309  0.00  0.00     0.001 A 
ATOM     24  C11 <0> d          -0.520  -1.441   2.985  0.00  0.00     0.014 A 
ENDBRANCH   2  19
TORSDOF 5
