REMARK  6 active torsions:
REMARK  status: ('A' for Active; 'I' for Inactive)
REMARK    1  A    between atoms: C2_2  and  C3_3 
REMARK    2  A    between atoms: C2_2  and  S1_16 
REMARK       I    between atoms: C3_3  and  N1_5 
REMARK    3  A    between atoms: N1_5  and  C4_6 
REMARK    4  A    between atoms: C4_6  and  C5_7 
REMARK    5  A    between atoms: S1_16  and  C11_17 
REMARK    6  A    between atoms: C11_17  and  C12_18 
ROOT
ATOM      1  S1  <0> d           1.689   1.714  -0.005  0.00  0.00    -0.147 SA
ENDROOT
BRANCH   1   2
ATOM      2  C2  <0> d          -0.013   1.086   0.008  0.00  0.00     0.135 C 
ATOM      3  C1  <0> d          -0.753   1.593  -1.232  0.00  0.00     0.031 C 
BRANCH   2   4
ATOM      4  C3  <0> d          -0.718   1.572   1.248  0.00  0.00     0.231 C 
ATOM      5  O1  <0> d          -0.347   2.587   1.798  0.00  0.00    -0.272 OA
ATOM      6  N1  <0> d          -1.761   0.878   1.746  0.00  0.00    -0.353 N 
ATOM      7  H6  <0> d          -2.057   0.066   1.306  0.00  0.00     0.162 HD
BRANCH   6   8
ATOM      8  C4  <0> d          -2.447   1.351   2.951  0.00  0.00     0.203 C 
BRANCH   8   9
ATOM      9  C5  <0> d          -3.567   0.404   3.295  0.00  0.00     0.152 A 
ATOM     10  N4  <0> d          -4.854   0.489   2.862  0.00  0.00    -0.290 N 
ATOM     11  C6  <0> d          -5.511  -0.579   3.423  0.00  0.00     0.157 A 
ATOM     12  C7  <0> d          -5.516   1.355   2.043  0.00  0.00     0.100 A 
ATOM     13  N3  <0> d          -4.623  -1.235   4.152  0.00  0.00    -0.130 NA
ATOM     14  C10 <0> d          -6.880  -0.773   3.158  0.00  0.00     0.053 A 
ATOM     15  N2  <0> d          -3.481  -0.647   4.070  0.00  0.00    -0.132 NA
ATOM     16  C9  <0> d          -7.530   0.101   2.343  0.00  0.00     0.005 A 
ATOM     17  C8  <0> d          -6.829   1.181   1.780  0.00  0.00     0.018 A 
ENDBRANCH   8   9
ENDBRANCH   6   8
ENDBRANCH   2   4
ENDBRANCH   1   2
BRANCH   1  18
ATOM     18  C11 <0> d           2.436   0.926  -1.458  0.00  0.00     0.153 C 
BRANCH  18  19
ATOM     19  C12 <0> d           3.871   1.369  -1.587  0.00  0.00     0.117 A 
ATOM     20  N6  <0> d           4.366   2.203  -0.713  0.00  0.00    -0.226 NA
ATOM     21  C17 <0> d           5.630   2.610  -0.795  0.00  0.00     0.116 A 
ATOM     22  C14 <0> d           6.486   2.177  -1.821  0.00  0.00     0.075 A 
ATOM     23  S2  <0> d           6.653   3.698   0.164  0.00  0.00    -0.073 SA
ATOM     24  C13 <0> d           5.910   1.267  -2.766  0.00  0.00     0.260 A 
ATOM     25  C15 <0> d           7.846   2.712  -1.787  0.00  0.00    -0.026 A 
ATOM     26  N5  <0> d           4.625   0.897  -2.614  0.00  0.00    -0.310 N 
ATOM     27  O2  <0> d           6.573   0.834  -3.693  0.00  0.00    -0.267 OA
ATOM     28  H2  <0> d           4.229   0.281  -3.250  0.00  0.00     0.170 HD
ATOM     29  C21 <0> d           8.896   2.338  -2.830  0.00  0.00     0.041 C 
ATOM     30  C16 <0> d           8.146   3.562  -0.782  0.00  0.00    -0.008 A 
ATOM     31  C20 <0> d          10.015   3.379  -2.799  0.00  0.00     0.005 C 
ATOM     32  C19 <0> d          10.535   3.540  -1.367  0.00  0.00     0.005 C 
ATOM     33  C18 <0> d           9.457   4.240  -0.527  0.00  0.00     0.047 C 
ENDBRANCH  18  19
ENDBRANCH   1  18
TORSDOF 6
