REMARK  7 active torsions:
REMARK  status: ('A' for Active; 'I' for Inactive)
REMARK    1  A    between atoms: O1_2  and  C2_3 
REMARK    2  A    between atoms: C6_7  and  C8_10 
REMARK    3  A    between atoms: C7_8  and  O2_9 
REMARK    4  A    between atoms: C16_18  and  S1_23 
REMARK    5  A    between atoms: S1_23  and  N2_26 
REMARK    6  A    between atoms: N2_26  and  C20_27 
REMARK    7  A    between atoms: C20_27  and  C21_28 
ROOT
ATOM      1  C8  <0> d          -0.941   1.437  -8.523  0.00  0.00     0.123 C 
ATOM      2  C9  <0> d           0.073   2.053  -7.576  0.00  0.00     0.028 C 
ATOM      3  C10 <0> d           1.068   3.071  -8.149  0.00  0.00     0.035 C 
ATOM      4  C11 <0> d           1.345   3.951  -6.929  0.00  0.00    -0.029 C 
ATOM      5  C12 <0> d           0.328   3.891  -6.095  0.00  0.00    -0.021 C 
ATOM      6  C13 <0> d          -0.738   3.041  -6.684  0.00  0.00     0.050 C 
ATOM      7  C14 <0> d          -1.655   2.242  -5.842  0.00  0.00    -0.022 A 
ATOM      8  C15 <0> d          -1.982   2.605  -4.554  0.00  0.00     0.035 A 
ATOM      9  C16 <0> d          -2.854   1.831  -3.811  0.00  0.00     0.080 A 
ATOM     10  C17 <0> d          -3.411   0.693  -4.364  0.00  0.00     0.027 A 
ATOM     11  C18 <0> d          -3.090   0.321  -5.653  0.00  0.00     0.031 A 
ATOM     12  C19 <0> d          -2.206   1.085  -6.405  0.00  0.00     0.035 A 
ATOM     13  N1  <0> d          -1.870   0.669  -7.699  0.00  0.00    -0.380 N 
ATOM     14  H19 <0> d          -2.255  -0.148  -8.052  0.00  0.00     0.160 HD
ENDROOT
BRANCH   9  15
ATOM     15  S1  <0> d          -3.261   2.299  -2.161  0.00  0.00     0.258 S 
ATOM     16  O3  <0> d          -4.522   1.712  -1.872  0.00  0.00    -0.201 OA
ATOM     17  O4  <0> d          -3.032   3.698  -2.068  0.00  0.00    -0.201 OA
BRANCH  15  18
ATOM     18  N2  <0> d          -2.160   1.571  -1.160  0.00  0.00    -0.313 N 
ATOM     19  H20 <0> d          -2.452   0.898  -0.526  0.00  0.00     0.172 HD
BRANCH  18  20
ATOM     20  C20 <0> d          -0.745   1.944  -1.233  0.00  0.00     0.164 C 
BRANCH  20  21
ATOM     21  C21 <0> d          -0.017   1.428   0.010  0.00  0.00     0.140 C 
ATOM     22  O5  <0> d           0.002  -0.004   0.002  0.00  0.00    -0.384 OA
ATOM     23  C24 <0> d           1.358  -0.476  -0.054  0.00  0.00     0.168 C 
ATOM     24  C23 <0> d           2.211   0.674   0.537  0.00  0.00     0.029 C 
ATOM     25  C22 <0> d           1.448   1.915  -0.002  0.00  0.00     0.035 C 
ENDBRANCH  20  21
ENDBRANCH  18  20
ENDBRANCH  15  18
ENDBRANCH   9  15
BRANCH   1  26
ATOM     26  C6  <0> d          -1.700   2.518  -9.249  0.00  0.00     0.001 A 
ATOM     27  C5  <0> d          -2.920   2.951  -8.765  0.00  0.00     0.012 A 
ATOM     28  C4  <0> d          -3.618   3.943  -9.428  0.00  0.00     0.003 A 
ATOM     29  C3  <0> d          -3.099   4.506 -10.579  0.00  0.00     0.039 A 
ATOM     30  C2  <0> d          -1.876   4.076 -11.070  0.00  0.00     0.101 A 
ATOM     31  C7  <0> d          -1.171   3.082 -10.399  0.00  0.00     0.107 A 
BRANCH  30  32
ATOM     32  O1  <0> d          -1.364   4.629 -12.202  0.00  0.00    -0.353 OA
ATOM     33  C1  <0> d          -2.140   5.649 -12.835  0.00  0.00     0.210 C 
ENDBRANCH  30  32
BRANCH  31  34
ATOM     34  O2  <0> d           0.032   2.660 -10.874  0.00  0.00    -0.357 OA
ATOM     35  H11 <0> d          -0.028   1.925 -11.499  0.00  0.00     0.217 HD
ENDBRANCH  31  34
ENDBRANCH   1  26
TORSDOF 7
