REMARK  4 active torsions:
REMARK  status: ('A' for Active; 'I' for Inactive)
REMARK    1  A    between atoms: C2_2  and  C3_3 
REMARK    2  A    between atoms: C3_3  and  O1_4 
REMARK    3  A    between atoms: O1_4  and  C4_5 
REMARK    4  A    between atoms: C8_9  and  C10_11 
ROOT
ATOM      1  C10 <0> d          -3.431  -5.627  -3.082  0.00  0.00     0.259 C 
ATOM      2  N1  <0> d          -4.753  -5.729  -3.728  0.00  0.00    -0.200 N 
ATOM      3  C11 <0> d          -5.765  -6.379  -3.036  0.00  0.00     0.688 C 
ATOM      4  N2  <0> d          -5.466  -7.653  -2.549  0.00  0.00    -0.021 N 
ATOM      5  C12 <0> d          -4.148  -7.830  -2.132  0.00  0.00     0.724 A 
ATOM      6  N3  <0> d          -3.177  -6.890  -2.382  0.00  0.00    -0.152 N 
ATOM      7  C13 <0> d          -1.995  -7.364  -1.856  0.00  0.00     0.086 A 
ATOM      8  C14 <0> d          -0.695  -6.877  -1.802  0.00  0.00     0.072 A 
ATOM      9  C15 <0> d           0.290  -7.617  -1.177  0.00  0.00     0.104 A 
ATOM     10  C16 <0> d          -0.010  -8.849  -0.603  0.00  0.00     0.104 A 
ATOM     11  C17 <0> d          -1.294  -9.350  -0.653  0.00  0.00     0.074 A 
ATOM     12  C18 <0> d          -2.301  -8.610  -1.281  0.00  0.00     0.106 A 
ATOM     13  N4  <0> d          -3.633  -8.834  -1.486  0.00  0.00    -0.062 NA
ATOM     14  O2  <0> d           0.978  -9.563   0.013  0.00  0.00    -0.348 OA
ATOM     15  C19 <0> d           1.994 -10.092  -0.841  0.00  0.00     0.178 C 
ATOM     16  C20 <0> d           3.069  -9.050  -1.108  0.00  0.00     0.053 C 
ATOM     17  C21 <0> d           2.538  -7.856  -1.886  0.00  0.00     0.178 C 
ATOM     18  O3  <0> d           1.569  -7.141  -1.119  0.00  0.00    -0.348 OA
ATOM     19  N5  <0> d          -6.931  -5.830  -2.850  0.00  0.00    -0.234 N 
ATOM     20  H11 <0> d          -4.911  -5.353  -4.608  0.00  0.00     0.180 HD
ATOM     21  H20 <0> d          -7.111  -4.943  -3.199  0.00  0.00     0.174 HD
ATOM     22  H21 <0> d          -6.127  -8.361  -2.505  0.00  0.00     0.203 HD
ATOM     23  H22 <0> d          -7.620  -6.308  -2.362  0.00  0.00     0.174 HD
ENDROOT
BRANCH   1  24
ATOM     24  C8  <0> d          -3.431  -4.487  -2.096  0.00  0.00    -0.012 A 
ATOM     25  C7  <0> d          -4.546  -4.251  -1.313  0.00  0.00     0.011 A 
ATOM     26  C6  <0> d          -4.548  -3.206  -0.407  0.00  0.00     0.003 A 
ATOM     27  C5  <0> d          -3.437  -2.395  -0.283  0.00  0.00     0.037 A 
ATOM     28  C4  <0> d          -2.318  -2.629  -1.069  0.00  0.00     0.069 A 
ATOM     29  C9  <0> d          -2.319  -3.675  -1.980  0.00  0.00     0.047 A 
BRANCH  28  30
ATOM     30  O1  <0> d          -1.224  -1.832  -0.949  0.00  0.00    -0.348 OA
BRANCH  30  31
ATOM     31  C3  <0> d          -1.293  -0.775   0.010  0.00  0.00     0.202 C 
BRANCH  31  32
ATOM     32  C2  <0> d           0.002  -0.004   0.002  0.00  0.00    -0.011 C 
ATOM     33  C1  <0> d          -0.016   1.306   0.009  0.00  0.00     0.009 C 
ENDBRANCH  31  32
ENDBRANCH  30  31
ENDBRANCH  28  30
ENDBRANCH   1  24
TORSDOF 4
