REMARK  9 active torsions:
REMARK  status: ('A' for Active; 'I' for Inactive)
REMARK    1  A    between atoms: C2_2  and  C3_3 
REMARK    2  A    between atoms: C3_3  and  N1_5 
REMARK    3  A    between atoms: N1_5  and  C6_7 
REMARK    4  A    between atoms: C6_7  and  C7_8 
REMARK    5  A    between atoms: C7_8  and  N2_9 
REMARK       I    between atoms: N2_9  and  C8_10 
REMARK       I    between atoms: C8_10  and  N3_12 
REMARK    6  A    between atoms: N3_12  and  N4_13 
REMARK       I    between atoms: N4_13  and  C9_14 
REMARK    7  A    between atoms: C9_14  and  C10_16 
REMARK    8  A    between atoms: C10_16  and  S1_17 
REMARK    9  A    between atoms: S1_17  and  C11_18 
ROOT
ATOM      1  N2  <0> d          -3.218   2.884   3.064  0.00  0.00    -0.340 N 
ATOM      2  C8  <0> d          -3.768   3.367   4.196  0.00  0.00     0.334 C 
ATOM      3  O1  <0> d          -4.079   2.607   5.093  0.00  0.00    -0.246 OA
ATOM      4  N3  <0> d          -3.974   4.691   4.333  0.00  0.00    -0.249 N 
ATOM      5  H17 <0> d          -2.970   3.490   2.349  0.00  0.00     0.164 HD
ATOM      6  H18 <0> d          -4.370   5.039   5.148  0.00  0.00     0.192 HD
ENDROOT
BRANCH   4   7
ATOM      7  N4  <0> d          -3.616   5.567   3.300  0.00  0.00    -0.265 N 
ATOM      8  C9  <0> d          -3.821   6.892   3.438  0.00  0.00     0.245 C 
ATOM      9  O2  <0> d          -4.316   7.326   4.457  0.00  0.00    -0.271 OA
ATOM     10  H19 <0> d          -3.220   5.220   2.486  0.00  0.00     0.190 HD
BRANCH   8  11
ATOM     11  C10 <0> d          -3.436   7.834   2.327  0.00  0.00     0.184 C 
BRANCH  11  12
ATOM     12  S1  <0> d          -3.835   9.536   2.811  0.00  0.00    -0.121 SA
BRANCH  12  13
ATOM     13  C11 <0> d          -3.332  10.502   1.426  0.00  0.00     0.001 A 
ATOM     14  C16 <0> d          -3.491  11.883   1.445  0.00  0.00     0.019 A 
ATOM     15  C15 <0> d          -3.091  12.637   0.360  0.00  0.00     0.008 A 
ATOM     16  C14 <0> d          -2.542  12.020  -0.749  0.00  0.00    -0.062 A 
ATOM     17  C13 <0> d          -2.387  10.646  -0.774  0.00  0.00     0.008 A 
ATOM     18  C17 <0> d          -2.112  12.846  -1.934  0.00  0.00     0.048 C 
ATOM     19  C12 <0> d          -2.780   9.885   0.310  0.00  0.00     0.019 A 
ENDBRANCH  12  13
ENDBRANCH  11  12
ENDBRANCH   8  11
ENDBRANCH   4   7
BRANCH   1  20
ATOM     20  C7  <0> d          -2.995   1.444   2.914  0.00  0.00     0.152 C 
BRANCH  20  21
ATOM     21  C6  <0> d          -2.364   1.165   1.548  0.00  0.00     0.254 C 
BRANCH  21  22
ATOM     22  N1  <0> d          -2.140  -0.279   1.398  0.00  0.00    -0.070 N 
ATOM     23  C5  <0> d          -3.432  -0.977   1.394  0.00  0.00     0.270 C 
ATOM     24  H29 <0> d          -1.579  -0.614   2.167  0.00  0.00     0.279 HD
BRANCH  22  25
ATOM     25  C3  <0> d          -1.440  -0.537   0.132  0.00  0.00     0.183 C 
ATOM     26  C4  <0> d          -2.349  -0.158  -1.039  0.00  0.00     0.040 C 
BRANCH  25  27
ATOM     27  C2  <0> d          -1.082  -2.021   0.041  0.00  0.00     0.028 C 
ATOM     28  C1  <0> d          -0.111  -2.382   1.167  0.00  0.00     0.007 C 
ENDBRANCH  25  27
ENDBRANCH  22  25
ENDBRANCH  21  22
ENDBRANCH  20  21
ENDBRANCH   1  20
TORSDOF 9
