REMARK  5 active torsions:
REMARK  status: ('A' for Active; 'I' for Inactive)
REMARK    1  A    between atoms: C7_7  and  N1_8 
REMARK    2  A    between atoms: C7_7  and  N3_29 
REMARK    3  A    between atoms: C17_20  and  C19_23 
REMARK    4  A    between atoms: C17_20  and  N2_25 
REMARK    5  A    between atoms: C19_23  and  O4_24 
ROOT
ATOM      1  N1  <0> d          -3.880   0.475   2.765  0.00  0.00    -0.287 N 
ATOM      2  C8  <0> d          -5.189   0.659   2.318  0.00  0.00     0.051 A 
ATOM      3  C9  <0> d          -5.765   1.700   1.591  0.00  0.00     0.030 A 
ATOM      4  C10 <0> d          -7.104   1.658   1.264  0.00  0.00     0.002 A 
ATOM      5  C11 <0> d          -7.886   0.585   1.652  0.00  0.00     0.001 A 
ATOM      6  C12 <0> d          -7.319  -0.457   2.366  0.00  0.00     0.015 A 
ATOM      7  C13 <0> d          -5.984  -0.416   2.699  0.00  0.00     0.040 A 
ATOM      8  C14 <0> d          -5.083  -1.354   3.462  0.00  0.00     0.280 A 
ATOM      9  C15 <0> d          -3.733  -0.675   3.446  0.00  0.00     0.294 A 
ATOM     10  O1  <0> d          -2.711  -1.089   3.952  0.00  0.00    -0.266 OA
ATOM     11  O2  <0> d          -5.542  -1.508   4.802  0.00  0.00    -0.341 OA
ATOM     12  C16 <0> d          -4.733  -2.385   5.594  0.00  0.00     0.214 C 
ATOM     13  C17 <0> d          -4.663  -3.753   4.907  0.00  0.00     0.160 C 
ATOM     14  C18 <0> d          -4.164  -3.564   3.470  0.00  0.00     0.214 C 
ATOM     15  O3  <0> d          -5.008  -2.617   2.807  0.00  0.00    -0.341 OA
ENDROOT
BRANCH   1  16
ATOM     16  C7  <0> d          -2.793   1.427   2.525  0.00  0.00     0.367 C 
BRANCH  16  17
ATOM     17  N3  <0> d          -2.114   1.058   1.265  0.00  0.00    -0.054 N 
ATOM     18  C5  <0> d          -2.861   1.601   0.111  0.00  0.00     0.237 C 
ATOM     19  C4  <0> d          -2.207   1.108  -1.181  0.00  0.00     0.028 C 
ATOM     20  C3  <0> d          -0.755   1.594  -1.231  0.00  0.00     0.007 C 
ATOM     21  C2  <0> d          -0.013   1.086   0.008  0.00  0.00     0.007 C 
ATOM     22  C1  <0> d           1.422   1.616  -0.003  0.00  0.00     0.011 C 
ATOM     23  C6  <0> d          -0.731   1.580   1.266  0.00  0.00     0.241 C 
ATOM     24  H26 <0> d          -2.083   0.034   1.190  0.00  0.00     0.281 HD
ENDBRANCH  16  17
ENDBRANCH   1  16
BRANCH  13  25
ATOM     25  C19 <0> d          -3.698  -4.663   5.669  0.00  0.00     0.206 C 
BRANCH  25  26
ATOM     26  O4  <0> d          -4.224  -4.933   6.970  0.00  0.00    -0.398 OA
ATOM     27  H25 <0> d          -3.663  -5.505   7.510  0.00  0.00     0.209 HD
ENDBRANCH  25  26
ENDBRANCH  13  25
BRANCH  13  28
ATOM     28  N2  <0> d          -5.997  -4.360   4.886  0.00  0.00    -0.138 N 
ATOM     29  O5  <0> d          -6.353  -5.077   5.804  0.00  0.00    -0.536 OA
ATOM     30  O6  <0> d          -6.748  -4.146   3.952  0.00  0.00    -0.536 OA
ENDBRANCH  13  28
TORSDOF 5
