REMARK  5 active torsions:
REMARK  status: ('A' for Active; 'I' for Inactive)
REMARK    1  A    between atoms: C2_2  and  N1_3 
REMARK    2  A    between atoms: C5_6  and  C7_8 
REMARK    3  A    between atoms: C7_8  and  N2_9 
REMARK       I    between atoms: N2_9  and  C8_10 
REMARK       I    between atoms: C8_10  and  N3_12 
REMARK    4  A    between atoms: N3_12  and  C9_13 
REMARK    5  A    between atoms: C9_13  and  C10_14 
ROOT
ATOM      1  N2  <0> d          -4.649  -3.766  -0.661  0.00  0.00    -0.343 N 
ATOM      2  C8  <0> d          -5.660  -4.451  -0.092  0.00  0.00     0.316 C 
ATOM      3  O1  <0> d          -5.672  -4.629   1.111  0.00  0.00    -0.247 OA
ATOM      4  N3  <0> d          -6.658  -4.939  -0.855  0.00  0.00    -0.337 N 
ATOM      5  H15 <0> d          -4.639  -3.624  -1.621  0.00  0.00     0.164 HD
ATOM      6  H16 <0> d          -6.648  -4.797  -1.815  0.00  0.00     0.164 HD
ENDROOT
BRANCH   1   7
ATOM      7  C7  <0> d          -3.564  -3.236   0.168  0.00  0.00     0.130 C 
BRANCH   7   8
ATOM      8  C5  <0> d          -2.554  -2.506  -0.719  0.00  0.00     0.031 C 
ATOM      9  C4  <0> d          -3.195  -1.242  -1.336  0.00  0.00     0.035 C 
ATOM     10  C3  <0> d          -2.045  -0.206  -1.278  0.00  0.00     0.235 C 
ATOM     11  N1  <0> d          -1.376  -0.512   0.012  0.00  0.00    -0.071 N 
ATOM     12  C6  <0> d          -1.375  -1.987   0.126  0.00  0.00     0.241 C 
ATOM     13  H23 <0> d          -1.892  -0.105   0.778  0.00  0.00     0.279 HD
BRANCH  11  14
ATOM     14  C2  <0> d           0.002  -0.004   0.002  0.00  0.00     0.230 C 
ATOM     15  C1  <0> d          -0.019   1.526   0.010  0.00  0.00     0.034 C 
ENDBRANCH  11  14
ENDBRANCH   7   8
ENDBRANCH   1   7
BRANCH   4  16
ATOM     16  C9  <0> d          -7.757  -5.683  -0.236  0.00  0.00     0.184 C 
BRANCH  16  17
ATOM     17  C10 <0> d          -8.733  -6.116  -1.299  0.00  0.00     0.059 A 
ATOM     18  N4  <0> d          -9.694  -5.317  -1.718  0.00  0.00    -0.249 NA
ATOM     19  C12 <0> d         -10.538  -5.694  -2.646  0.00  0.00     0.071 A 
ATOM     20  S1  <0> d         -10.037  -7.260  -3.006  0.00  0.00    -0.085 SA
ATOM     21  C13 <0> d         -11.683  -4.917  -3.243  0.00  0.00     0.078 C 
ATOM     22  C11 <0> d          -8.666  -7.348  -1.865  0.00  0.00     0.080 A 
ENDBRANCH  16  17
ENDBRANCH   4  16
TORSDOF 5
