REMARK  5 active torsions:
REMARK  status: ('A' for Active; 'I' for Inactive)
REMARK    1  A    between atoms: C5_5  and  N2_12 
REMARK    2  A    between atoms: N2_12  and  S1_13 
REMARK    3  A    between atoms: S1_13  and  C10_16 
REMARK    4  A    between atoms: C13_19  and  O5_24 
REMARK    5  A    between atoms: C14_20  and  O4_22 
ROOT
ATOM      1  N2  <0> d           1.353  -0.852  -4.800  0.00  0.00    -0.281 N 
ATOM      2  H8  <0> d           0.487  -1.019  -5.204  0.00  0.00     0.179 HD
ENDROOT
BRANCH   1   3
ATOM      3  C5  <0> d           1.524  -1.015  -3.421  0.00  0.00     0.043 A 
ATOM      4  C4  <0> d           0.593  -0.487  -2.534  0.00  0.00     0.040 A 
ATOM      5  C3  <0> d           0.768  -0.651  -1.179  0.00  0.00    -0.012 A 
ATOM      6  C2  <0> d          -0.040  -0.213   0.021  0.00  0.00     0.063 A 
ATOM      7  C8  <0> d           1.867  -1.339  -0.680  0.00  0.00     0.042 A 
ATOM      8  C1  <0> d          -0.134   1.313   0.075  0.00  0.00     0.030 C 
ATOM      9  C9  <0> d           0.743  -0.739   1.205  0.00  0.00     0.234 A 
ATOM     10  C18 <0> d          -1.438  -0.834  -0.016  0.00  0.00     0.030 C 
ATOM     11  N1  <0> d           1.823  -1.373   0.716  0.00  0.00    -0.326 N 
ATOM     12  O1  <0> d           0.451  -0.612   2.375  0.00  0.00    -0.272 OA
ATOM     13  H7  <0> d           2.493  -1.803   1.269  0.00  0.00     0.169 HD
ATOM     14  C7  <0> d           2.799  -1.866  -1.573  0.00  0.00     0.032 A 
ATOM     15  C6  <0> d           2.627  -1.704  -2.932  0.00  0.00     0.032 A 
ENDBRANCH   1   3
BRANCH   1  16
ATOM     16  S1  <0> d           2.627  -0.374  -5.743  0.00  0.00     0.263 S 
ATOM     17  O2  <0> d           3.701  -1.258  -5.453  0.00  0.00    -0.200 OA
ATOM     18  O3  <0> d           2.117  -0.200  -7.058  0.00  0.00    -0.200 OA
BRANCH  16  19
ATOM     19  C10 <0> d           3.122   1.220  -5.180  0.00  0.00     0.082 A 
ATOM     20  C15 <0> d           4.152   1.340  -4.266  0.00  0.00     0.065 A 
ATOM     21  C14 <0> d           4.546   2.594  -3.826  0.00  0.00     0.102 A 
ATOM     22  C13 <0> d           3.896   3.729  -4.298  0.00  0.00     0.101 A 
ATOM     23  C12 <0> d           2.861   3.602  -5.211  0.00  0.00     0.041 A 
ATOM     24  C11 <0> d           2.476   2.349  -5.649  0.00  0.00     0.028 A 
BRANCH  21  25
ATOM     25  O4  <0> d           5.562   2.713  -2.930  0.00  0.00    -0.353 OA
ATOM     26  C16 <0> d           6.184   1.505  -2.488  0.00  0.00     0.210 C 
ENDBRANCH  21  25
BRANCH  22  27
ATOM     27  O5  <0> d           4.276   4.962  -3.866  0.00  0.00    -0.353 OA
ATOM     28  C17 <0> d           3.564   6.082  -4.395  0.00  0.00     0.210 C 
ENDBRANCH  22  27
ENDBRANCH  16  19
ENDBRANCH   1  16
TORSDOF 5
