REMARK  6 active torsions:
REMARK  status: ('A' for Active; 'I' for Inactive)
REMARK    1  A    between atoms: N1_2  and  S1_4 
REMARK    2  A    between atoms: S1_4  and  C3_7 
REMARK    3  A    between atoms: C8_12  and  C9_13 
REMARK    4  A    between atoms: C9_13  and  N2_14 
REMARK       I    between atoms: N2_14  and  C10_15 
REMARK    5  A    between atoms: C10_15  and  C11_17 
REMARK    6  A    between atoms: C14_20  and  C16_25 
ROOT
ATOM      1  N2  <0> d          -0.535   1.781  -1.608  0.00  0.00    -0.352 N 
ATOM      2  C10 <0> d          -0.085   2.924  -1.051  0.00  0.00     0.257 C 
ATOM      3  O3  <0> d          -0.866   3.691  -0.522  0.00  0.00    -0.267 OA
ATOM      4  H14 <0> d           0.094   1.135  -1.965  0.00  0.00     0.163 HD
ENDROOT
BRANCH   2   5
ATOM      5  C11 <0> d           1.349   3.241  -1.084  0.00  0.00     0.100 A 
ATOM      6  C15 <0> d           2.249   2.425  -1.815  0.00  0.00     0.261 A 
ATOM      7  N3  <0> d           3.560   2.726  -1.846  0.00  0.00    -0.322 N 
ATOM      8  O4  <0> d           1.833   1.452  -2.421  0.00  0.00    -0.267 OA
ATOM      9  C14 <0> d           4.048   3.806  -1.169  0.00  0.00     0.045 A 
ATOM     10  H1  <0> d           4.168   2.164  -2.351  0.00  0.00     0.169 HD
ATOM     11  C13 <0> d           3.204   4.624  -0.440  0.00  0.00     0.031 A 
ATOM     12  C12 <0> d           1.844   4.348  -0.391  0.00  0.00     0.025 A 
BRANCH   9  13
ATOM     13  C16 <0> d           5.492   4.106  -1.217  0.00  0.00    -0.009 A 
ATOM     14  C21 <0> d           6.355   3.287  -1.950  0.00  0.00     0.013 A 
ATOM     15  C20 <0> d           7.703   3.577  -1.995  0.00  0.00     0.001 A 
ATOM     16  C19 <0> d           8.203   4.668  -1.306  0.00  0.00     0.000 A 
ATOM     17  C18 <0> d           7.355   5.480  -0.574  0.00  0.00     0.001 A 
ATOM     18  C17 <0> d           6.004   5.206  -0.524  0.00  0.00     0.013 A 
ENDBRANCH   9  13
ENDBRANCH   2   5
BRANCH   1  19
ATOM     19  C9  <0> d          -1.974   1.516  -1.674  0.00  0.00     0.163 C 
BRANCH  19  20
ATOM     20  C8  <0> d          -2.205   0.133  -2.225  0.00  0.00    -0.017 A 
ATOM     21  C3  <0> d          -2.022  -0.973  -1.417  0.00  0.00     0.087 A 
ATOM     22  C4  <0> d          -2.240  -2.242  -1.921  0.00  0.00     0.026 A 
ATOM     23  C5  <0> d          -2.635  -2.405  -3.235  0.00  0.00     0.002 A 
ATOM     24  C6  <0> d          -2.813  -1.299  -4.046  0.00  0.00     0.001 A 
ATOM     25  C7  <0> d          -2.596  -0.030  -3.541  0.00  0.00     0.010 A 
BRANCH  21  26
ATOM     26  S1  <0> d          -1.518  -0.765   0.259  0.00  0.00     0.260 S 
ATOM     27  O1  <0> d          -2.683  -0.411   0.992  0.00  0.00    -0.200 OA
ATOM     28  O2  <0> d          -0.356   0.051   0.235  0.00  0.00    -0.200 OA
BRANCH  26  29
ATOM     29  N1  <0> d          -1.042  -2.251   0.815  0.00  0.00    -0.315 N 
ATOM     30  C1  <0> d           0.372  -2.631   0.770  0.00  0.00     0.162 C 
ATOM     31  C2  <0> d          -2.035  -3.185   1.352  0.00  0.00     0.162 C 
ENDBRANCH  26  29
ENDBRANCH  21  26
ENDBRANCH  19  20
ENDBRANCH   1  19
TORSDOF 6
