REMARK  11 active torsions:
REMARK  status: ('A' for Active; 'I' for Inactive)
REMARK       I    between atoms: C2_2  and  N1_4 
REMARK    1  A    between atoms: N1_4  and  C3_5 
REMARK    2  A    between atoms: C4_6  and  O10_24 
REMARK    3  A    between atoms: C5_7  and  O5_14 
REMARK    4  A    between atoms: C6_8  and  C8_12 
REMARK    5  A    between atoms: C7_10  and  O3_11 
REMARK    6  A    between atoms: C8_12  and  O4_13 
REMARK    7  A    between atoms: O5_14  and  C9_15 
REMARK    8  A    between atoms: C10_16  and  O9_23 
REMARK    9  A    between atoms: C11_17  and  O8_22 
REMARK   10  A    between atoms: C12_18  and  C13_20 
REMARK   11  A    between atoms: C13_20  and  O7_21 
ROOT
ATOM      1  C3  <0> d           3.870  -2.611   2.198  0.00  0.00     0.170 C 
ATOM      2  C4  <0> d           4.388  -1.602   1.167  0.00  0.00     0.177 C 
ATOM      3  C5  <0> d           3.410  -1.547  -0.011  0.00  0.00     0.186 C 
ATOM      4  C6  <0> d           3.252  -2.951  -0.600  0.00  0.00     0.179 C 
ATOM      5  O2  <0> d           2.797  -3.845   0.418  0.00  0.00    -0.349 OA
ATOM      6  C7  <0> d           3.694  -3.974   1.524  0.00  0.00     0.282 C 
ENDROOT
BRANCH   3   7
ATOM      7  O5  <0> d           2.141  -1.074   0.444  0.00  0.00    -0.348 OA
BRANCH   7   8
ATOM      8  C9  <0> d           1.398  -0.360  -0.546  0.00  0.00     0.292 C 
ATOM      9  O6  <0> d           2.062   0.876  -0.858  0.00  0.00    -0.348 OA
ATOM     10  C12 <0> d           1.492   1.889  -0.002  0.00  0.00     0.179 C 
ATOM     11  C11 <0> d          -0.019   1.544   0.011  0.00  0.00     0.182 C 
ATOM     12  C10 <0> d           0.002  -0.004   0.002  0.00  0.00     0.204 C 
BRANCH  10  13
ATOM     13  C13 <0> d           1.721   3.283  -0.590  0.00  0.00     0.198 C 
BRANCH  13  14
ATOM     14  O7  <0> d           3.105   3.623  -0.483  0.00  0.00    -0.398 OA
ATOM     15  H20 <0> d           3.463   4.594  -0.856  0.00  0.00     0.209 HD
ENDBRANCH  13  14
ENDBRANCH  10  13
BRANCH  11  16
ATOM     16  O8  <0> d          -0.668   2.051  -1.157  0.00  0.00    -0.390 OA
ATOM     17  H21 <0> d          -0.766   3.137  -1.304  0.00  0.00     0.210 HD
ENDBRANCH  11  16
BRANCH  12  18
ATOM     18  O9  <0> d          -0.160  -0.514   1.327  0.00  0.00    -0.388 OA
ATOM     19  H22 <0> d          -1.103  -0.348   1.869  0.00  0.00     0.210 HD
ENDBRANCH  12  18
ENDBRANCH   7   8
ENDBRANCH   3   7
BRANCH   2  20
ATOM     20  O10 <0> d           5.675  -2.013   0.701  0.00  0.00    -0.391 OA
ATOM     21  H23 <0> d           6.208  -1.408  -0.048  0.00  0.00     0.210 HD
ENDBRANCH   2  20
BRANCH   4  22
ATOM     22  C8  <0> d           2.231  -2.914  -1.739  0.00  0.00     0.198 C 
BRANCH  22  23
ATOM     23  O4  <0> d           2.169  -4.197  -2.365  0.00  0.00    -0.398 OA
ATOM     24  H17 <0> d           1.486  -4.364  -3.210  0.00  0.00     0.209 HD
ENDBRANCH  22  23
ENDBRANCH   4  22
BRANCH   1  25
ATOM     25  N1  <0> d           4.833  -2.729   3.296  0.00  0.00    -0.349 N 
ATOM     26  C2  <0> d           4.421  -3.133   4.514  0.00  0.00     0.214 C 
ATOM     27  C1  <0> d           5.411  -3.254   5.643  0.00  0.00     0.117 C 
ATOM     28  O1  <0> d           3.252  -3.399   4.701  0.00  0.00    -0.274 OA
ATOM     29  H13 <0> d           5.893  -2.488   3.126  0.00  0.00     0.163 HD
ENDBRANCH   1  25
BRANCH   6  30
ATOM     30  O3  <0> d           4.961  -4.443   1.058  0.00  0.00    -0.369 OA
ATOM     31  H14 <0> d           5.033  -5.412   0.543  0.00  0.00     0.212 HD
ENDBRANCH   6  30
TORSDOF 11
