REMARK  6 active torsions:
REMARK  status: ('A' for Active; 'I' for Inactive)
REMARK    1  A    between atoms: C2_2  and  O1_3 
REMARK    2  A    between atoms: O1_3  and  C3_4 
REMARK    3  A    between atoms: C8_9  and  C9_10 
REMARK       I    between atoms: C9_10  and  N1_12 
REMARK    4  A    between atoms: N1_12  and  C10_13 
REMARK    5  A    between atoms: C10_13  and  C22_32 
REMARK    6  A    between atoms: N3_21  and  C16_26 
ROOT
ATOM      1  C10 <0> d          -1.046   2.168   0.068  0.00  0.00     0.249 A 
ATOM      2  C11 <0> d           0.111   1.198   0.103  0.00  0.00     0.101 A 
ATOM      3  C12 <0> d           0.192  -0.199   0.051  0.00  0.00     0.262 A 
ATOM      4  O3  <0> d          -0.821  -0.872  -0.037  0.00  0.00    -0.267 OA
ATOM      5  N2  <0> d           1.403  -0.794   0.098  0.00  0.00    -0.274 N 
ATOM      6  H1  <0> d           1.471  -1.791   0.061  0.00  0.00     0.173 HD
ATOM      7  C13 <0> d           2.518  -0.048   0.194  0.00  0.00     0.335 A 
ATOM      8  O4  <0> d           3.601  -0.600   0.235  0.00  0.00    -0.246 OA
ATOM      9  N3  <0> d           2.462   1.294   0.244  0.00  0.00    -0.248 N 
ATOM     10  C14 <0> d           1.246   1.948   0.200  0.00  0.00     0.134 A 
ATOM     11  N4  <0> d           0.948   3.288   0.237  0.00  0.00    -0.309 N 
ATOM     12  C15 <0> d          -0.374   3.524   0.169  0.00  0.00     0.266 A 
ATOM     13  O5  <0> d          -0.921   4.606   0.180  0.00  0.00    -0.270 OA
ATOM     14  H12 <0> d           1.617   3.987   0.305  0.00  0.00     0.170 HD
ENDROOT
BRANCH   1  15
ATOM     15  N1  <0> d          -1.782   2.048  -1.193  0.00  0.00    -0.327 N 
ATOM     16  C9  <0> d          -1.134   2.181  -2.367  0.00  0.00     0.255 C 
ATOM     17  O2  <0> d           0.039   2.501  -2.381  0.00  0.00    -0.268 OA
ATOM     18  H11 <0> d          -2.736   1.873  -1.182  0.00  0.00     0.164 HD
BRANCH  16  19
ATOM     19  C8  <0> d          -1.848   1.940  -3.635  0.00  0.00     0.065 A 
ATOM     20  C3  <0> d          -1.180   2.083  -4.859  0.00  0.00     0.084 A 
ATOM     21  C4  <0> d          -1.860   1.849  -6.045  0.00  0.00     0.038 A 
ATOM     22  C5  <0> d          -3.192   1.487  -6.019  0.00  0.00     0.003 A 
ATOM     23  C6  <0> d          -3.858   1.349  -4.811  0.00  0.00     0.001 A 
ATOM     24  C7  <0> d          -3.196   1.573  -3.624  0.00  0.00     0.020 A 
BRANCH  20  25
ATOM     25  O1  <0> d           0.128   2.444  -4.883  0.00  0.00    -0.350 OA
BRANCH  25  26
ATOM     26  C2  <0> d           0.742   2.570  -6.167  0.00  0.00     0.171 C 
ATOM     27  C1  <0> d           2.206   2.981  -5.993  0.00  0.00     0.034 C 
ENDBRANCH  25  26
ENDBRANCH  20  25
ENDBRANCH  16  19
ENDBRANCH   1  15
BRANCH   1  28
ATOM     28  C22 <0> d          -1.976   1.940   1.261  0.00  0.00     0.426 C 
ATOM     29  F1  <0> d          -1.287   2.208   2.448  0.00  0.00    -0.167 F 
ATOM     30  F2  <0> d          -3.081   2.793   1.160  0.00  0.00    -0.167 F 
ATOM     31  F3  <0> d          -2.412   0.611   1.265  0.00  0.00    -0.167 F 
ENDBRANCH   1  28
BRANCH   9  32
ATOM     32  C16 <0> d           3.646   2.036   0.344  0.00  0.00     0.045 A 
ATOM     33  C21 <0> d           4.043   2.856  -0.704  0.00  0.00     0.030 A 
ATOM     34  C20 <0> d           5.211   3.586  -0.603  0.00  0.00     0.002 A 
ATOM     35  C19 <0> d           5.984   3.502   0.540  0.00  0.00     0.000 A 
ATOM     36  C18 <0> d           5.592   2.686   1.585  0.00  0.00     0.002 A 
ATOM     37  C17 <0> d           4.422   1.957   1.492  0.00  0.00     0.030 A 
ENDBRANCH   9  32
TORSDOF 6
