REMARK  6 active torsions:
REMARK  status: ('A' for Active; 'I' for Inactive)
REMARK    1  A    between atoms: C4_4  and  C11_13 
REMARK    2  A    between atoms: N1_6  and  C6_7 
REMARK    3  A    between atoms: C6_7  and  C8_9 
REMARK    4  A    between atoms: C8_9  and  O1_10 
REMARK    5  A    between atoms: C12_14  and  C14_17 
REMARK       I    between atoms: C14_17  and  N3_19 
REMARK    6  A    between atoms: N3_19  and  C15_20 
ROOT
ATOM      1  C11 <0> d           1.282  -1.733  -1.008  0.00  0.00     0.041 C 
ATOM      2  C12 <0> d           0.108  -2.271  -1.497  0.00  0.00     0.113 C 
ATOM      3  C13 <0> d          -0.074  -3.691  -1.518  0.00  0.00     0.105 C 
ATOM      4  N2  <0> d          -0.219  -4.817  -1.535  0.00  0.00    -0.191 NA
ENDROOT
BRANCH   2   5
ATOM      5  C14 <0> d          -0.953  -1.386  -1.996  0.00  0.00     0.266 C 
ATOM      6  O2  <0> d          -0.852  -0.180  -1.864  0.00  0.00    -0.267 OA
ATOM      7  N3  <0> d          -2.038  -1.909  -2.599  0.00  0.00    -0.322 N 
ATOM      8  H18 <0> d          -2.148  -2.872  -2.651  0.00  0.00     0.169 HD
BRANCH   7   9
ATOM      9  C15 <0> d          -3.007  -1.065  -3.152  0.00  0.00     0.036 A 
ATOM     10  C20 <0> d          -3.325   0.129  -2.524  0.00  0.00     0.050 A 
ATOM     11  C19 <0> d          -4.287   0.970  -3.082  0.00  0.00     0.019 A 
ATOM     12  C18 <0> d          -4.932   0.599  -4.262  0.00  0.00     0.021 A 
ATOM     13  C21 <0> d          -4.616   2.209  -2.442  0.00  0.00    -0.078 C 
ATOM     14  C17 <0> d          -4.612  -0.595  -4.877  0.00  0.00     0.004 A 
ATOM     15  C16 <0> d          -3.655  -1.426  -4.328  0.00  0.00     0.029 A 
ATOM     16  C22 <0> d          -4.886   3.224  -1.918  0.00  0.00     0.018 C 
ENDBRANCH   7   9
ENDBRANCH   2   5
BRANCH   1  17
ATOM     17  C4  <0> d           1.550  -0.349  -1.169  0.00  0.00    -0.010 A 
ATOM     18  C3  <0> d           1.361   0.454  -2.385  0.00  0.00     0.038 A 
ATOM     19  C2  <0> d           1.742   1.705  -2.075  0.00  0.00     0.009 A 
ATOM     20  C1  <0> d           1.722   2.881  -3.017  0.00  0.00     0.068 C 
ATOM     21  N1  <0> d           2.154   1.741  -0.774  0.00  0.00    -0.347 N 
ATOM     22  C5  <0> d           2.042   0.523  -0.212  0.00  0.00     0.018 A 
ATOM     23  C10 <0> d           2.396   0.169   1.210  0.00  0.00     0.069 C 
BRANCH  21  24
ATOM     24  C6  <0> d           2.645   2.937  -0.085  0.00  0.00     0.109 C 
ATOM     25  C7  <0> d           4.009   2.641   0.542  0.00  0.00     0.035 C 
BRANCH  24  26
ATOM     26  C8  <0> d           1.655   3.337   1.011  0.00  0.00     0.192 C 
BRANCH  26  27
ATOM     27  O1  <0> d           2.120   4.520   1.664  0.00  0.00    -0.394 OA
ATOM     28  C9  <0> d           1.264   4.981   2.711  0.00  0.00     0.201 C 
ENDBRANCH  26  27
ENDBRANCH  24  26
ENDBRANCH  21  24
ENDBRANCH   1  17
TORSDOF 6
