REMARK  3 active torsions:
REMARK  status: ('A' for Active; 'I' for Inactive)
REMARK    1  A    between atoms: C2_2  and  N1_3 
REMARK    2  A    between atoms: N1_3  and  C3_4 
REMARK       I    between atoms: N1_3  and  C7_11 
REMARK    3  A    between atoms: C7_11  and  C8_13 
ROOT
ATOM      1  N1  <0> d          -0.751   3.044   1.278  0.00  0.00    -0.341 N 
ATOM      2  C7  <0> d          -1.720   3.708   0.618  0.00  0.00     0.275 C 
ATOM      3  O3  <0> d          -1.685   4.921   0.545  0.00  0.00    -0.266 OA
ENDROOT
BRANCH   2   4
ATOM      4  C8  <0> d          -2.831   2.959  -0.019  0.00  0.00     0.162 A 
ATOM      5  N2  <0> d          -3.056   1.665   0.046  0.00  0.00    -0.122 NA
ATOM      6  O4  <0> d          -4.048   1.353  -0.583  0.00  0.00    -0.216 OA
ATOM      7  C10 <0> d          -4.617   2.410  -1.152  0.00  0.00     0.091 A 
ATOM      8  C9  <0> d          -3.866   3.487  -0.814  0.00  0.00     0.036 A 
ATOM      9  C11 <0> d          -5.851   2.513  -2.010  0.00  0.00     0.095 C 
ATOM     10  C13 <0> d          -4.159   4.891  -1.252  0.00  0.00     0.276 C 
ATOM     11  N3  <0> d          -5.119   4.833  -2.370  0.00  0.00    -0.071 N 
ATOM     12  C12 <0> d          -6.277   3.990  -2.042  0.00  0.00     0.239 C 
ATOM     13  H17 <0> d          -4.603   4.420  -3.250  0.00  0.00     0.277 HD
ATOM     14  H20 <0> d          -5.459   5.855  -2.591  0.00  0.00     0.277 HD
ENDBRANCH   2   4
BRANCH   1  15
ATOM     15  C2  <0> d          -0.740   1.579   1.283  0.00  0.00     0.122 C 
ATOM     16  C1  <0> d          -0.064   1.070   0.009  0.00  0.00     0.026 C 
ENDBRANCH   1  15
BRANCH   1  17
ATOM     17  C3  <0> d           0.292   3.787   1.990  0.00  0.00     0.102 C 
ATOM     18  C6  <0> d           1.073   4.686   0.989  0.00  0.00     0.165 C 
ATOM     19  S1  <0> d           1.833   5.900   2.149  0.00  0.00     0.146 S 
ATOM     20  C5  <0> d           0.694   5.710   3.579  0.00  0.00     0.142 C 
ATOM     21  O1  <0> d           3.124   5.437   2.521  0.00  0.00    -0.228 OA
ATOM     22  O2  <0> d           1.687   7.207   1.611  0.00  0.00    -0.228 OA
ATOM     23  C4  <0> d          -0.351   4.697   3.050  0.00  0.00     0.041 C 
ENDBRANCH   1  17
TORSDOF 3
