REMARK  6 active torsions:
REMARK  status: ('A' for Active; 'I' for Inactive)
REMARK    1  A    between atoms: N1_5  and  C7_8 
REMARK    2  A    between atoms: C7_8  and  C9_10 
REMARK    3  A    between atoms: C9_10  and  N2_11 
REMARK       I    between atoms: N2_11  and  C10_12 
REMARK    4  A    between atoms: C10_12  and  C11_14 
REMARK       I    between atoms: C11_14  and  N3_16 
REMARK    5  A    between atoms: N3_16  and  C12_17 
REMARK    6  A    between atoms: C13_20  and  C14_22 
ROOT
ATOM      1  N2  <0> d           1.955  -3.921   2.403  0.00  0.00    -0.351 N 
ATOM      2  C10 <0> d           2.600  -4.105   3.572  0.00  0.00     0.309 C 
ATOM      3  O1  <0> d           3.700  -4.618   3.584  0.00  0.00    -0.262 OA
ATOM      4  H19 <0> d           1.076  -3.512   2.393  0.00  0.00     0.162 HD
ENDROOT
BRANCH   2   5
ATOM      5  C11 <0> d           1.962  -3.677   4.852  0.00  0.00     0.315 C 
ATOM      6  O2  <0> d           0.862  -3.164   4.840  0.00  0.00    -0.262 OA
ATOM      7  N3  <0> d           2.607  -3.861   6.021  0.00  0.00    -0.296 N 
ATOM      8  H20 <0> d           3.486  -4.270   6.031  0.00  0.00     0.171 HD
BRANCH   7   9
ATOM      9  C12 <0> d           2.014  -3.463   7.211  0.00  0.00     0.197 A 
ATOM     10  S1  <0> d           2.619  -3.576   8.892  0.00  0.00    -0.028 SA
ATOM     11  C13 <0> d           1.186  -2.828   9.662  0.00  0.00     0.134 A 
ATOM     12  N5  <0> d           0.442  -2.595   8.587  0.00  0.00    -0.140 NA
ATOM     13  N4  <0> d           0.835  -2.896   7.427  0.00  0.00    -0.123 NA
BRANCH  11  14
ATOM     14  C14 <0> d           0.909  -2.552  11.087  0.00  0.00     0.009 A 
ATOM     15  C17 <0> d           1.824  -2.873  12.054  0.00  0.00     0.064 A 
ATOM     16  S2  <0> d           0.996  -2.334  13.540  0.00  0.00    -0.113 SA
ATOM     17  C16 <0> d          -0.507  -1.727  12.793  0.00  0.00     0.050 A 
ATOM     18  C15 <0> d          -0.291  -1.963  11.480  0.00  0.00     0.022 A 
ENDBRANCH  11  14
ENDBRANCH   7   9
ENDBRANCH   2   5
BRANCH   1  19
ATOM     19  C9  <0> d           2.582  -4.341   1.147  0.00  0.00     0.155 C 
BRANCH  19  20
ATOM     20  C7  <0> d           1.710  -3.900  -0.030  0.00  0.00     0.202 C 
ATOM     21  C8  <0> d           2.420  -4.233  -1.344  0.00  0.00     0.042 C 
BRANCH  20  22
ATOM     22  N1  <0> d           1.479  -2.451   0.048  0.00  0.00    -0.066 N 
ATOM     23  C4  <0> d           2.752  -1.744  -0.140  0.00  0.00     0.235 C 
ATOM     24  C3  <0> d           2.531  -0.238   0.020  0.00  0.00     0.032 C 
ATOM     25  C2  <0> d           1.521   0.239  -1.027  0.00  0.00    -0.015 C 
ATOM     26  C1  <0> d           1.235   1.728  -0.822  0.00  0.00     0.010 C 
ATOM     27  C6  <0> d           0.223  -0.558  -0.869  0.00  0.00     0.032 C 
ATOM     28  C5  <0> d           0.528  -2.052  -0.997  0.00  0.00     0.235 C 
ATOM     29  H24 <0> d           1.099  -2.221   0.953  0.00  0.00     0.280 HD
ENDBRANCH  20  22
ENDBRANCH  19  20
ENDBRANCH   1  19
TORSDOF 6
