REMARK  4 active torsions:
REMARK  status: ('A' for Active; 'I' for Inactive)
REMARK    1  A    between atoms: N1_2  and  C2_3 
REMARK    2  A    between atoms: C3_5  and  C5_8 
REMARK    3  A    between atoms: C8_11  and  N3_14 
REMARK       I    between atoms: N3_14  and  C11_15 
REMARK    4  A    between atoms: C11_15  and  C12_17 
ROOT
ATOM      1  C5  <0> d          -2.444   9.947  -0.781  0.00  0.00    -0.007 A 
ATOM      2  C6  <0> d          -2.454   9.298  -2.014  0.00  0.00     0.016 A 
ATOM      3  C7  <0> d          -2.344   7.924  -2.070  0.00  0.00     0.030 A 
ATOM      4  C8  <0> d          -2.223   7.188  -0.898  0.00  0.00     0.034 A 
ATOM      5  C9  <0> d          -2.218   7.832   0.333  0.00  0.00     0.030 A 
ATOM      6  C10 <0> d          -2.322   9.206   0.394  0.00  0.00     0.016 A 
ENDROOT
BRANCH   4   7
ATOM      7  N3  <0> d          -2.112   5.794  -0.958  0.00  0.00    -0.327 N 
ATOM      8  C11 <0> d          -1.368   5.138  -0.046  0.00  0.00     0.231 C 
ATOM      9  O1  <0> d          -0.718   5.760   0.767  0.00  0.00    -0.272 OA
ATOM     10  H10 <0> d          -2.633   5.234  -1.748  0.00  0.00     0.169 HD
BRANCH   8  11
ATOM     11  C12 <0> d          -1.343   3.631  -0.036  0.00  0.00     0.042 C 
ATOM     12  C17 <0> d          -0.428   3.143   1.089  0.00  0.00     0.024 C 
ATOM     13  C16 <0> d          -0.403   1.613   1.098  0.00  0.00    -0.013 C 
ATOM     14  C15 <0> d           0.123   1.103  -0.245  0.00  0.00     0.009 C 
ATOM     15  C18 <0> d          -1.819   1.081   1.326  0.00  0.00     0.009 C 
ATOM     16  C14 <0> d          -0.791   1.592  -1.370  0.00  0.00    -0.013 C 
ATOM     17  C13 <0> d          -0.817   3.121  -1.379  0.00  0.00     0.024 C 
ATOM     18  C20 <0> d          -2.208   1.060  -1.142  0.00  0.00     0.009 C 
ATOM     19  C19 <0> d          -2.735   1.569   0.201  0.00  0.00    -0.013 C 
ATOM     20  C21 <0> d          -2.760   3.099   0.191  0.00  0.00     0.024 C 
ENDBRANCH   8  11
ENDBRANCH   4   7
BRANCH   1  21
ATOM     21  C3  <0> d          -2.562  11.424  -0.718  0.00  0.00     0.076 A 
ATOM     22  N2  <0> d          -2.680  12.138  -1.835  0.00  0.00    -0.224 NA
ATOM     23  C2  <0> d          -2.787  13.453  -1.797  0.00  0.00     0.166 A 
ATOM     24  S1  <0> d          -2.721  13.767  -0.039  0.00  0.00    -0.062 SA
ATOM     25  C4  <0> d          -2.558  12.066   0.488  0.00  0.00     0.085 A 
BRANCH  23  26
ATOM     26  N1  <0> d          -2.917  14.352  -2.843  0.00  0.00    -0.373 N 
ATOM     27  C1  <0> d          -3.021  15.787  -2.567  0.00  0.00     0.148 C 
ATOM     28  H4  <0> d          -2.942  13.989  -3.881  0.00  0.00     0.161 HD
ENDBRANCH  23  26
ENDBRANCH   1  21
TORSDOF 4
