REMARK  4 active torsions:
REMARK  status: ('A' for Active; 'I' for Inactive)
REMARK    1  A    between atoms: C4_4  and  N2_14 
REMARK    2  A    between atoms: C7_7  and  N1_8 
REMARK       I    between atoms: N2_14  and  C12_15 
REMARK    3  A    between atoms: C12_15  and  C13_17 
REMARK    4  A    between atoms: N4_20  and  C15_22 
ROOT
ATOM      1  N2  <0> d          -2.458   3.822   0.046  0.00  0.00    -0.322 N 
ATOM      2  C12 <0> d          -2.534   5.077  -0.440  0.00  0.00     0.278 C 
ATOM      3  O2  <0> d          -1.566   5.582  -0.974  0.00  0.00    -0.265 OA
ATOM      4  H13 <0> d          -3.250   3.391   0.403  0.00  0.00     0.169 HD
ENDROOT
BRANCH   1   5
ATOM      5  C4  <0> d          -1.235   3.141   0.036  0.00  0.00     0.035 A 
ATOM      6  C3  <0> d          -0.048   3.841   0.208  0.00  0.00     0.038 A 
ATOM      7  C2  <0> d           1.158   3.169   0.198  0.00  0.00    -0.033 A 
ATOM      8  C1  <0> d           2.446   3.929   0.385  0.00  0.00     0.050 C 
ATOM      9  C7  <0> d           1.184   1.793   0.016  0.00  0.00     0.043 A 
ATOM     10  C6  <0> d          -0.002   1.092  -0.156  0.00  0.00     0.032 A 
ATOM     11  C5  <0> d          -1.208   1.765  -0.152  0.00  0.00     0.032 A 
BRANCH   9  12
ATOM     12  N1  <0> d           2.408   1.111   0.006  0.00  0.00    -0.318 N 
ATOM     13  C11 <0> d           3.144   0.889  -1.097  0.00  0.00     0.224 C 
ATOM     14  C10 <0> d           4.395   0.118  -0.741  0.00  0.00     0.105 C 
ATOM     15  O1  <0> d           2.847   1.255  -2.215  0.00  0.00    -0.273 OA
ATOM     16  C9  <0> d           4.102  -0.453   0.666  0.00  0.00     0.029 C 
ATOM     17  C8  <0> d           3.055   0.553   1.199  0.00  0.00     0.133 C 
ENDBRANCH   9  12
ENDBRANCH   1   5
BRANCH   2  18
ATOM     18  C13 <0> d          -3.795   5.838  -0.324  0.00  0.00     0.166 A 
ATOM     19  N5  <0> d          -4.915   5.407   0.225  0.00  0.00    -0.143 NA
ATOM     20  N4  <0> d          -5.809   6.331   0.157  0.00  0.00    -0.151 N 
ATOM     21  N3  <0> d          -5.257   7.448  -0.485  0.00  0.00    -0.160 NA
ATOM     22  C14 <0> d          -4.015   7.149  -0.784  0.00  0.00     0.180 A 
BRANCH  20  23
ATOM     23  C15 <0> d          -7.120   6.234   0.641  0.00  0.00     0.079 A 
ATOM     24  C20 <0> d          -7.995   7.304   0.500  0.00  0.00     0.033 A 
ATOM     25  C19 <0> d          -9.287   7.205   0.978  0.00  0.00     0.002 A 
ATOM     26  C18 <0> d          -9.710   6.043   1.597  0.00  0.00     0.000 A 
ATOM     27  C17 <0> d          -8.841   4.976   1.739  0.00  0.00     0.002 A 
ATOM     28  C16 <0> d          -7.550   5.067   1.258  0.00  0.00     0.033 A 
ENDBRANCH  20  23
ENDBRANCH   2  18
TORSDOF 4
