REMARK  6 active torsions:
REMARK  status: ('A' for Active; 'I' for Inactive)
REMARK    1  A    between atoms: C2_2  and  C3_3 
REMARK    2  A    between atoms: C3_3  and  N1_4 
REMARK    3  A    between atoms: N2_9  and  C7_12 
REMARK    4  A    between atoms: C7_12  and  C8_13 
REMARK       I    between atoms: C8_13  and  N3_15 
REMARK    5  A    between atoms: N3_15  and  N4_16 
REMARK       I    between atoms: N4_16  and  C9_17 
REMARK    6  A    between atoms: C9_17  and  C10_19 
ROOT
ATOM      1  C8  <0> d           0.766  -4.954  -3.144  0.00  0.00     0.254 C 
ATOM      2  O4  <0> d           1.399  -3.923  -3.222  0.00  0.00    -0.270 OA
ATOM      3  N3  <0> d           1.332  -6.121  -3.511  0.00  0.00    -0.266 N 
ATOM      4  H8  <0> d           0.826  -6.946  -3.449  0.00  0.00     0.190 HD
ENDROOT
BRANCH   1   5
ATOM      5  C7  <0> d          -0.653  -4.931  -2.638  0.00  0.00     0.241 C 
BRANCH   5   6
ATOM      6  N2  <0> d          -1.032  -3.555  -2.308  0.00  0.00    -0.252 N 
ATOM      7  C5  <0> d          -1.599  -2.671  -3.158  0.00  0.00     0.320 A 
ATOM      8  C4  <0> d          -1.792  -1.417  -2.358  0.00  0.00     0.320 A 
ATOM      9  O2  <0> d          -1.890  -2.853  -4.321  0.00  0.00    -0.262 OA
ATOM     10  N1  <0> d          -1.318  -1.700  -1.126  0.00  0.00    -0.258 N 
ATOM     11  O1  <0> d          -2.273  -0.370  -2.739  0.00  0.00    -0.262 OA
ATOM     12  C6  <0> d          -0.867  -2.965  -1.114  0.00  0.00     0.335 A 
ATOM     13  O3  <0> d          -0.376  -3.507  -0.144  0.00  0.00    -0.246 OA
BRANCH  10  14
ATOM     14  C3  <0> d          -1.293  -0.775   0.010  0.00  0.00     0.163 C 
BRANCH  14  15
ATOM     15  C2  <0> d           0.002  -0.004   0.002  0.00  0.00    -0.017 C 
ATOM     16  C1  <0> d          -0.016   1.306   0.009  0.00  0.00     0.008 C 
ENDBRANCH  14  15
ENDBRANCH  10  14
ENDBRANCH   5   6
ENDBRANCH   1   5
BRANCH   3  17
ATOM     17  N4  <0> d           2.651  -6.143  -3.982  0.00  0.00    -0.263 N 
ATOM     18  C9  <0> d           3.217  -7.310  -4.348  0.00  0.00     0.270 C 
ATOM     19  O5  <0> d           2.583  -8.344  -4.270  0.00  0.00    -0.266 OA
ATOM     20  H9  <0> d           3.158  -5.318  -4.044  0.00  0.00     0.190 HD
BRANCH  18  21
ATOM     21  C10 <0> d           4.609  -7.332  -4.845  0.00  0.00     0.033 A 
ATOM     22  C15 <0> d           5.198  -8.540  -5.225  0.00  0.00     0.019 A 
ATOM     23  C14 <0> d           6.495  -8.554  -5.694  0.00  0.00     0.025 A 
ATOM     24  C13 <0> d           7.217  -7.375  -5.775  0.00  0.00     0.034 A 
ATOM     25  C12 <0> d           6.640  -6.175  -5.394  0.00  0.00     0.025 A 
ATOM     26 Cl1  <0> d           8.852  -7.401  -6.359  0.00  0.00    -0.084 Cl
ATOM     27  C11 <0> d           5.342  -6.147  -4.930  0.00  0.00     0.019 A 
ENDBRANCH  18  21
ENDBRANCH   3  17
TORSDOF 6
