REMARK  4 active torsions:
REMARK  status: ('A' for Active; 'I' for Inactive)
REMARK    1  A    between atoms: C2_2  and  C3_3 
REMARK    2  A    between atoms: C8_10  and  S1_14 
REMARK    3  A    between atoms: S1_14  and  N2_17 
REMARK    4  A    between atoms: C13_20  and  C16_23 
ROOT
ATOM      1  C3  <0> d          -2.360   2.271  -0.748  0.00  0.00     0.220 C 
ATOM      2  C4  <0> d          -2.621   0.876  -0.238  0.00  0.00     0.251 C 
ATOM      3  O1  <0> d          -3.759   0.501  -0.049  0.00  0.00    -0.270 OA
ATOM      4  N1  <0> d          -1.585   0.047   0.008  0.00  0.00    -0.323 N 
ATOM      5  C5  <0> d          -0.276   0.538  -0.095  0.00  0.00     0.069 A 
ATOM      6  C6  <0> d           0.804  -0.329  -0.081  0.00  0.00     0.040 A 
ATOM      7  C7  <0> d           2.088   0.168  -0.215  0.00  0.00    -0.036 A 
ATOM      8  C8  <0> d           2.295   1.527  -0.363  0.00  0.00     0.088 A 
ATOM      9  C9  <0> d           1.221   2.398  -0.372  0.00  0.00     0.065 A 
ATOM     10  C10 <0> d          -0.067   1.908  -0.232  0.00  0.00     0.098 A 
ATOM     11  O2  <0> d          -1.129   2.758  -0.209  0.00  0.00    -0.334 OA
ATOM     12  C17 <0> d           3.264  -0.774  -0.201  0.00  0.00     0.050 C 
ATOM     13  H7  <0> d          -1.773  -1.000   0.286  0.00  0.00     0.169 HD
ENDROOT
BRANCH   8  14
ATOM     14  S1  <0> d           3.933   2.151  -0.541  0.00  0.00     0.261 S 
ATOM     15  O3  <0> d           3.822   3.566  -0.624  0.00  0.00    -0.200 OA
ATOM     16  O4  <0> d           4.723   1.505   0.447  0.00  0.00    -0.200 OA
BRANCH  14  17
ATOM     17  N2  <0> d           4.496   1.634  -2.010  0.00  0.00    -0.307 N 
ATOM     18  C15 <0> d           4.233   2.412  -3.229  0.00  0.00     0.136 C 
ATOM     19  C14 <0> d           3.589   1.492  -4.271  0.00  0.00     0.036 C 
ATOM     20  C13 <0> d           4.481   0.268  -4.487  0.00  0.00     0.090 C 
ATOM     21  C12 <0> d           4.614  -0.507  -3.174  0.00  0.00     0.036 C 
ATOM     22  C11 <0> d           5.274   0.393  -2.119  0.00  0.00     0.136 C 
BRANCH  20  23
ATOM     23  C16 <0> d           3.867  -0.622  -5.536  0.00  0.00     0.177 C 
ATOM     24  O5  <0> d           2.823  -0.310  -6.058  0.00  0.00    -0.648 OA
ATOM     25  O6  <0> d           4.481  -1.762  -5.892  0.00  0.00    -0.648 OA
ENDBRANCH  20  23
ENDBRANCH  14  17
ENDBRANCH   8  14
BRANCH   1  26
ATOM     26  C2  <0> d          -2.272   2.245  -2.276  0.00  0.00     0.038 C 
ATOM     27  C1  <0> d          -2.131   3.675  -2.802  0.00  0.00     0.008 C 
ENDBRANCH   1  26
TORSDOF 4
