REMARK  7 active torsions:
REMARK  status: ('A' for Active; 'I' for Inactive)
REMARK    1  A    between atoms: S1_2  and  C2_5 
REMARK    2  A    between atoms: C2_5  and  C3_6 
REMARK    3  A    between atoms: C3_6  and  C4_7 
REMARK    4  A    between atoms: C4_7  and  N1_8 
REMARK    5  A    between atoms: N1_8  and  S2_9 
REMARK    6  A    between atoms: S2_9  and  C5_12 
REMARK    7  A    between atoms: C9_16  and  C11_18 
ROOT
ATOM      1  S2  <0> d           2.238  -4.322  -4.631  0.00  0.00     0.258 S 
ATOM      2  O3  <0> d           2.281  -5.732  -4.456  0.00  0.00    -0.201 OA
ATOM      3  O4  <0> d           1.401  -3.700  -5.597  0.00  0.00    -0.201 OA
ENDROOT
BRANCH   1   4
ATOM      4  N1  <0> d           1.828  -3.675  -3.163  0.00  0.00    -0.315 N 
ATOM      5  H10 <0> d           1.657  -4.258  -2.407  0.00  0.00     0.172 HD
BRANCH   4   6
ATOM      6  C4  <0> d           1.724  -2.223  -3.006  0.00  0.00     0.133 C 
BRANCH   6   7
ATOM      7  C3  <0> d           0.986  -1.902  -1.705  0.00  0.00     0.035 C 
BRANCH   7   8
ATOM      8  C2  <0> d           0.877  -0.385  -1.541  0.00  0.00     0.141 C 
BRANCH   8   9
ATOM      9  S1  <0> d           0.002  -0.004   0.002  0.00  0.00     0.140 S 
ATOM     10  C1  <0> d          -0.022   1.810   0.012  0.00  0.00     0.161 C 
ATOM     11  O1  <0> d           0.798  -0.449   1.092  0.00  0.00    -0.228 OA
ATOM     12  O2  <0> d          -1.335  -0.471  -0.113  0.00  0.00    -0.228 OA
ENDBRANCH   8   9
ENDBRANCH   7   8
ENDBRANCH   6   7
ENDBRANCH   4   6
ENDBRANCH   1   4
BRANCH   1  13
ATOM     13  C5  <0> d           3.885  -3.808  -4.986  0.00  0.00     0.080 A 
ATOM     14  C10 <0> d           4.950  -4.582  -4.577  0.00  0.00     0.045 A 
ATOM     15  C9  <0> d           6.256  -4.175  -4.863  0.00  0.00     0.059 A 
ATOM     16  C8  <0> d           6.473  -2.979  -5.554  0.00  0.00     0.028 A 
ATOM     17  C7  <0> d           5.396  -2.212  -5.952  0.00  0.00     0.022 A 
ATOM     18 Br1  <0> d           8.235  -2.414  -5.943  0.00  0.00    -0.050 Br
ATOM     19  C6  <0> d           4.107  -2.624  -5.669  0.00  0.00     0.027 A 
BRANCH  15  20
ATOM     20  C11 <0> d           7.400  -5.001  -4.434  0.00  0.00     0.210 C 
ATOM     21  O5  <0> d           7.208  -6.046  -3.830  0.00  0.00    -0.644 OA
ATOM     22  O6  <0> d           8.542  -4.640  -4.683  0.00  0.00    -0.644 OA
ENDBRANCH  15  20
ENDBRANCH   1  13
TORSDOF 7
