REMARK  5 active torsions:
REMARK  status: ('A' for Active; 'I' for Inactive)
REMARK    1  A    between atoms: C2_2  and  C3_3 
REMARK    2  A    between atoms: C3_3  and  N1_4 
REMARK       I    between atoms: N1_4  and  C4_5 
REMARK    3  A    between atoms: C4_5  and  C5_7 
REMARK       I    between atoms: C5_7  and  N2_9 
REMARK    4  A    between atoms: N2_9  and  C6_10 
REMARK    5  A    between atoms: C10_14  and  C12_16 
REMARK       I    between atoms: C12_16  and  N3_18 
ROOT
ATOM      1  C6  <0> d           1.977  -6.168   3.346  0.00  0.00     0.036 A 
ATOM      2  C7  <0> d           1.358  -6.896   2.335  0.00  0.00     0.031 A 
ATOM      3  C8  <0> d           1.289  -8.273   2.412  0.00  0.00     0.027 A 
ATOM      4  C9  <0> d           1.835  -8.938   3.495  0.00  0.00     0.050 A 
ATOM      5  C10 <0> d           2.458  -8.215   4.515  0.00  0.00     0.056 A 
ATOM      6  C11 <0> d           2.533  -6.824   4.433  0.00  0.00     0.048 A 
ATOM      7 Cl1  <0> d           1.744 -10.669   3.587  0.00  0.00    -0.083 Cl
ENDROOT
BRANCH   1   8
ATOM      8  N2  <0> d           2.043  -4.774   3.263  0.00  0.00    -0.319 N 
ATOM      9  C5  <0> d           1.022  -4.082   2.720  0.00  0.00     0.313 C 
ATOM     10  O2  <0> d           0.078  -4.672   2.236  0.00  0.00    -0.262 OA
ATOM     11  H9  <0> d           2.824  -4.305   3.596  0.00  0.00     0.169 HD
BRANCH   9  12
ATOM     12  C4  <0> d           1.052  -2.589   2.714  0.00  0.00     0.309 C 
ATOM     13  N1  <0> d           0.031  -1.897   2.171  0.00  0.00    -0.353 N 
ATOM     14  H8  <0> d          -0.724  -2.368   1.784  0.00  0.00     0.162 HD
ATOM     15  O1  <0> d           1.996  -1.999   3.197  0.00  0.00    -0.262 OA
BRANCH  13  16
ATOM     16  C3  <0> d           0.060  -0.432   2.165  0.00  0.00     0.122 C 
BRANCH  16  17
ATOM     17  C2  <0> d          -1.209   0.101   1.496  0.00  0.00     0.015 C 
ATOM     18  C1  <0> d          -1.178   1.630   1.489  0.00  0.00     0.006 C 
ENDBRANCH  16  17
ENDBRANCH  13  16
ENDBRANCH   9  12
ENDBRANCH   1   8
BRANCH   5  19
ATOM     19  C12 <0> d           3.042  -8.922   5.674  0.00  0.00     0.254 C 
ATOM     20  O3  <0> d           2.366  -9.704   6.313  0.00  0.00    -0.267 OA
ATOM     21  N3  <0> d           4.325  -8.700   6.022  0.00  0.00    -0.357 N 
ATOM     22  C13 <0> d           4.868  -9.301   7.243  0.00  0.00     0.152 C 
ATOM     23  C14 <0> d           5.178  -7.857   5.180  0.00  0.00     0.152 C 
ENDBRANCH   5  19
TORSDOF 5
