REMARK  4 active torsions:
REMARK  status: ('A' for Active; 'I' for Inactive)
REMARK    1  A    between atoms: C4_4  and  C9_10 
REMARK    2  A    between atoms: C7_7  and  O1_8 
REMARK    3  A    between atoms: C20_23  and  C21_24 
REMARK    4  A    between atoms: C20_23  and  N4_30 
ROOT
ATOM      1  C9  <0> d          -1.120   7.122   1.857  0.00  0.00     0.271 C 
ATOM      2  C10 <0> d           0.180   7.672   2.393  0.00  0.00     0.052 A 
ATOM      3  C11 <0> d           0.750   8.805   1.924  0.00  0.00    -0.019 A 
ATOM      4  C12 <0> d           1.970   9.011   2.671  0.00  0.00    -0.001 A 
ATOM      5  C13 <0> d           2.958  10.000   2.625  0.00  0.00     0.014 A 
ATOM      6  C14 <0> d           4.004   9.875   3.506  0.00  0.00     0.001 A 
ATOM      7  C15 <0> d           4.089   8.822   4.402  0.00  0.00     0.002 A 
ATOM      8  C16 <0> d           3.127   7.830   4.470  0.00  0.00     0.030 A 
ATOM      9  C17 <0> d           2.053   7.930   3.588  0.00  0.00     0.043 A 
ATOM     10  N1  <0> d           0.955   7.143   3.390  0.00  0.00    -0.356 N 
ATOM     11  H2  <0> d           0.754   6.331   3.881  0.00  0.00     0.166 HD
ATOM     12  C18 <0> d           0.152   9.641   0.820  0.00  0.00     0.069 C 
ATOM     13  C19 <0> d          -1.314   9.221   0.648  0.00  0.00     0.241 C 
ATOM     14  N4  <0> d          -1.374   7.746   0.537  0.00  0.00    -0.053 N 
ATOM     15  H27 <0> d          -0.653   7.433  -0.123  0.00  0.00     0.281 HD
ENDROOT
BRANCH   1  16
ATOM     16  C4  <0> d          -1.003   5.630   1.677  0.00  0.00    -0.021 A 
ATOM     17  C3  <0> d          -1.531   4.776   2.627  0.00  0.00     0.019 A 
ATOM     18  C2  <0> d          -1.425   3.409   2.465  0.00  0.00    -0.028 A 
ATOM     19  C1  <0> d          -2.000   2.479   3.502  0.00  0.00     0.051 C 
ATOM     20  C7  <0> d          -0.787   2.892   1.346  0.00  0.00     0.074 A 
ATOM     21  C6  <0> d          -0.253   3.751   0.396  0.00  0.00     0.038 A 
ATOM     22  C5  <0> d          -0.368   5.117   0.561  0.00  0.00     0.012 A 
BRANCH  20  23
ATOM     23  O1  <0> d          -0.682   1.547   1.184  0.00  0.00    -0.355 OA
ATOM     24  C8  <0> d          -0.013   1.086   0.008  0.00  0.00     0.210 C 
ENDBRANCH  20  23
ENDBRANCH   1  16
BRANCH  14  25
ATOM     25  C20 <0> d          -2.699   7.333   0.031  0.00  0.00     0.277 C 
BRANCH  25  26
ATOM     26  C21 <0> d          -3.057   8.179  -1.164  0.00  0.00     0.004 A 
ATOM     27  C23 <0> d          -2.747   7.908  -2.453  0.00  0.00     0.122 A 
ATOM     28  N3  <0> d          -3.243   8.905  -3.215  0.00  0.00    -0.285 N 
ATOM     29  N2  <0> d          -3.880   9.819  -2.365  0.00  0.00    -0.185 NA
ATOM     30  C24 <0> d          -3.136   9.012  -4.672  0.00  0.00     0.179 C 
ATOM     31  C22 <0> d          -3.773   9.380  -1.138  0.00  0.00     0.149 A 
ENDBRANCH  25  26
ENDBRANCH  14  25
TORSDOF 4
