REMARK  3 active torsions:
REMARK  status: ('A' for Active; 'I' for Inactive)
REMARK    1  A    between atoms: C5_5  and  N6_27 
REMARK    2  A    between atoms: C7_7  and  N1_8 
REMARK    3  A    between atoms: C10_11  and  C13_14 
ROOT
ATOM      1  N1  <0> d          -0.099   0.154   2.375  0.00  0.00    -0.319 N 
ATOM      2  C8  <0> d          -1.194   0.584   3.071  0.00  0.00     0.014 A 
ATOM      3  C9  <0> d          -0.791   1.188   4.201  0.00  0.00     0.038 A 
ATOM      4  C10 <0> d           0.678   1.126   4.205  0.00  0.00    -0.011 A 
ATOM      5  C11 <0> d           1.032   0.465   3.040  0.00  0.00     0.023 A 
ATOM      6  C12 <0> d           2.437   0.149   2.594  0.00  0.00     0.069 C 
ATOM      7  C19 <0> d          -2.627   0.409   2.639  0.00  0.00     0.068 C 
ENDROOT
BRANCH   4   8
ATOM      8  C13 <0> d           1.552   1.634   5.199  0.00  0.00     0.034 C 
ATOM      9  C14 <0> d           1.114   1.768   6.500  0.00  0.00     0.080 C 
ATOM     10  C17 <0> d           1.923   2.464   7.529  0.00  0.00     0.283 C 
ATOM     11  C15 <0> d          -0.194   1.214   6.948  0.00  0.00     0.141 C 
ATOM     12  N4  <0> d           1.274   3.016   8.577  0.00  0.00    -0.182 NA
ATOM     13  O1  <0> d           3.137   2.540   7.429  0.00  0.00    -0.265 OA
ATOM     14  C16 <0> d          -0.009   2.798   8.722  0.00  0.00     0.200 A 
ATOM     15  N3  <0> d          -0.816   1.988   7.951  0.00  0.00    -0.192 N 
ATOM     16  S1  <0> d          -1.159   3.453   9.901  0.00  0.00    -0.041 SA
ATOM     17  N5  <0> d          -2.163   1.999   8.241  0.00  0.00    -0.169 NA
ATOM     18  C18 <0> d          -2.635   2.694   9.236  0.00  0.00     0.192 A 
ATOM     19  N2  <0> d          -0.714   0.119   6.460  0.00  0.00    -0.383 N 
ATOM     20  H12 <0> d          -0.208  -0.422   5.834  0.00  0.00     0.157 HD
ATOM     21  H17 <0> d          -1.607  -0.154   6.725  0.00  0.00     0.157 HD
ENDBRANCH   4   8
BRANCH   1  22
ATOM     22  C7  <0> d          -0.145  -0.518   1.146  0.00  0.00     0.047 A 
ATOM     23  C2  <0> d          -0.116   0.200  -0.042  0.00  0.00    -0.035 A 
ATOM     24  C1  <0> d          -0.035   1.704  -0.012  0.00  0.00     0.050 C 
ATOM     25  C3  <0> d          -0.156  -0.466  -1.251  0.00  0.00     0.011 A 
ATOM     26  C4  <0> d          -0.231  -1.847  -1.279  0.00  0.00     0.037 A 
ATOM     27  C5  <0> d          -0.265  -2.564  -0.098  0.00  0.00     0.105 A 
ATOM     28  C6  <0> d          -0.226  -1.904   1.115  0.00  0.00     0.066 A 
BRANCH  27  29
ATOM     29  N6  <0> d          -0.346  -4.042  -0.132  0.00  0.00    -0.116 N 
ATOM     30  O2  <0> d          -0.381  -4.621  -1.193  0.00  0.00    -0.532 OA
ATOM     31  O3  <0> d          -0.376  -4.670   0.900  0.00  0.00    -0.532 OA
ENDBRANCH  27  29
ENDBRANCH   1  22
TORSDOF 3
