REMARK  8 active torsions:
REMARK  status: ('A' for Active; 'I' for Inactive)
REMARK    1  A    between atoms: C4_4  and  C7_7 
REMARK    2  A    between atoms: C7_7  and  C8_8 
REMARK    3  A    between atoms: C7_7  and  S1_22 
REMARK    4  A    between atoms: C8_8  and  N1_9 
REMARK       I    between atoms: N1_9  and  C9_10 
REMARK    5  A    between atoms: C9_10  and  C10_12 
REMARK       I    between atoms: C10_12  and  N2_14 
REMARK    6  A    between atoms: N2_14  and  C11_15 
REMARK    7  A    between atoms: C11_15  and  C12_16 
REMARK    8  A    between atoms: S1_22  and  C17_25 
ROOT
ATOM      1  C7  <0> d          -7.447   6.782  -4.560  0.00  0.00     0.164 C 
ENDROOT
BRANCH   1   2
ATOM      2  C4  <0> d          -7.893   7.043  -5.975  0.00  0.00    -0.038 A 
ATOM      3  C3  <0> d          -9.107   6.555  -6.419  0.00  0.00     0.008 A 
ATOM      4  C2  <0> d          -9.516   6.795  -7.717  0.00  0.00     0.001 A 
ATOM      5  C1  <0> d          -8.711   7.524  -8.572  0.00  0.00     0.000 A 
ATOM      6  C6  <0> d          -7.497   8.013  -8.129  0.00  0.00     0.001 A 
ATOM      7  C5  <0> d          -7.089   7.777  -6.829  0.00  0.00     0.008 A 
ENDBRANCH   1   2
BRANCH   1   8
ATOM      8  C8  <0> d          -6.128   6.006  -4.575  0.00  0.00     0.148 C 
BRANCH   8   9
ATOM      9  N1  <0> d          -5.694   5.752  -3.199  0.00  0.00    -0.351 N 
ATOM     10  C9  <0> d          -4.550   5.079  -2.967  0.00  0.00     0.309 C 
ATOM     11  O1  <0> d          -3.879   4.684  -3.897  0.00  0.00    -0.262 OA
ATOM     12  H9  <0> d          -6.231   6.068  -2.456  0.00  0.00     0.162 HD
BRANCH  10  13
ATOM     13  C10 <0> d          -4.108   4.820  -1.563  0.00  0.00     0.309 C 
ATOM     14  O2  <0> d          -4.779   5.215  -0.633  0.00  0.00    -0.262 OA
ATOM     15  N2  <0> d          -2.963   4.147  -1.330  0.00  0.00    -0.349 N 
ATOM     16  H10 <0> d          -2.427   3.831  -2.074  0.00  0.00     0.163 HD
BRANCH  15  17
ATOM     17  C11 <0> d          -2.530   3.893   0.046  0.00  0.00     0.161 C 
BRANCH  17  18
ATOM     18  C12 <0> d          -1.231   3.129   0.030  0.00  0.00    -0.038 A 
ATOM     19  C16 <0> d          -0.015   3.796   0.022  0.00  0.00     0.028 A 
ATOM     20  C15 <0> d           1.155   3.061   0.007  0.00  0.00     0.116 A 
ATOM     21  N3  <0> d           1.125   1.743   0.001  0.00  0.00    -0.273 NA
ATOM     22  C14 <0> d          -0.013   1.076   0.008  0.00  0.00     0.116 A 
ATOM     23  C13 <0> d          -1.223   1.742   0.017  0.00  0.00     0.028 A 
ENDBRANCH  17  18
ENDBRANCH  15  17
ENDBRANCH  10  13
ENDBRANCH   8   9
ENDBRANCH   1   8
BRANCH   1  24
ATOM     24  S1  <0> d          -7.209   8.361  -3.699  0.00  0.00     0.185 S 
ATOM     25  O3  <0> d          -6.963   8.134  -2.318  0.00  0.00    -0.222 OA
ATOM     26  O4  <0> d          -6.356   9.208  -4.457  0.00  0.00    -0.222 OA
BRANCH  24  27
ATOM     27  C17 <0> d          -8.785   9.147  -3.752  0.00  0.00     0.060 A 
ATOM     28  C22 <0> d          -9.697   8.934  -2.735  0.00  0.00     0.023 A 
ATOM     29  C21 <0> d         -10.934   9.551  -2.776  0.00  0.00     0.002 A 
ATOM     30  C20 <0> d         -11.258  10.381  -3.833  0.00  0.00     0.000 A 
ATOM     31  C19 <0> d         -10.346  10.593  -4.849  0.00  0.00     0.002 A 
ATOM     32  C18 <0> d          -9.107   9.981  -4.806  0.00  0.00     0.023 A 
ENDBRANCH  24  27
ENDBRANCH   1  24
TORSDOF 8
