REMARK  4 active torsions:
REMARK  status: ('A' for Active; 'I' for Inactive)
REMARK    1  A    between atoms: C3_3  and  O1_12 
REMARK    2  A    between atoms: C4_4  and  C7_8 
REMARK    3  A    between atoms: C6_6  and  N1_7 
REMARK    4  A    between atoms: O1_12  and  C8_13 
ROOT
ATOM      1  C1  <0> d          -0.009   1.360  -0.148  0.00  0.00     0.032 A 
ATOM      2  C2  <0> d           1.174   2.071  -0.156  0.00  0.00     0.040 A 
ATOM      3  C3  <0> d           2.384   1.408  -0.013  0.00  0.00     0.093 A 
ATOM      4  C4  <0> d           2.406   0.029   0.140  0.00  0.00     0.083 A 
ATOM      5  C5  <0> d           1.224  -0.684   0.149  0.00  0.00     0.048 A 
ATOM      6  C6  <0> d           0.012  -0.020   0.005  0.00  0.00     0.026 A 
ENDROOT
BRANCH   3   7
ATOM      7  O1  <0> d           3.549   2.110  -0.021  0.00  0.00    -0.290 OA
BRANCH   7   8
ATOM      8  C8  <0> d           4.190   2.264  -1.207  0.00  0.00     0.187 A 
ATOM      9  N3  <0> d           3.630   1.830  -2.327  0.00  0.00    -0.234 NA
ATOM     10  C11 <0> d           4.256   1.986  -3.481  0.00  0.00     0.138 A 
ATOM     11  C10 <0> d           5.498   2.591  -3.519  0.00  0.00     0.135 A 
ATOM     12  N2  <0> d           6.063   3.020  -2.403  0.00  0.00    -0.267 NA
ATOM     13  C9  <0> d           5.441   2.872  -1.249  0.00  0.00     0.174 A 
ENDBRANCH   7   8
ENDBRANCH   3   7
BRANCH   4  14
ATOM     14  C7  <0> d           3.721  -0.690   0.295  0.00  0.00     0.420 C 
ATOM     15  F1  <0> d           3.488  -2.063   0.432  0.00  0.00    -0.166 F 
ATOM     16  F2  <0> d           4.513  -0.462  -0.835  0.00  0.00    -0.166 F 
ATOM     17  F3  <0> d           4.382  -0.214   1.432  0.00  0.00    -0.166 F 
ENDBRANCH   4  14
BRANCH   6  18
ATOM     18  N1  <0> d          -1.187  -0.742   0.014  0.00  0.00    -0.399 N 
ATOM     19  H4  <0> d          -2.033  -0.279  -0.086  0.00  0.00     0.156 HD
ATOM     20  H5  <0> d          -1.171  -1.706   0.121  0.00  0.00     0.156 HD
ENDBRANCH   6  18
TORSDOF 4
