REMARK  5 active torsions:
REMARK  status: ('A' for Active; 'I' for Inactive)
REMARK    1  A    between atoms: C2_2  and  C5_5 
REMARK    2  A    between atoms: C8_8  and  C19_20 
REMARK    3  A    between atoms: C9_9  and  N1_11 
REMARK    4  A    between atoms: N1_11  and  C12_13 
REMARK    5  A    between atoms: C19_20  and  N2_21 
ROOT
ATOM      1  C5  <0> d           0.856  -0.051  -0.841  0.00  0.00    -0.005 C 
ATOM      2  C6  <0> d           0.781  -1.565  -0.636  0.00  0.00     0.006 C 
ATOM      3  C7  <0> d           1.321  -2.275  -1.879  0.00  0.00     0.009 C 
ATOM      4  C8  <0> d           2.776  -1.863  -2.110  0.00  0.00     0.042 C 
ATOM      5  C9  <0> d           2.851  -0.348  -2.315  0.00  0.00     0.194 C 
ATOM      6  C10 <0> d           2.311   0.361  -1.072  0.00  0.00     0.039 C 
ENDROOT
BRANCH   5   7
ATOM      7  N1  <0> d           4.248   0.047  -2.537  0.00  0.00    -0.066 N 
ATOM      8  C11 <0> d           4.745  -0.579  -3.769  0.00  0.00     0.270 C 
ATOM      9  H39 <0> d           4.811  -0.255  -1.756  0.00  0.00     0.280 HD
BRANCH   7  10
ATOM     10  C12 <0> d           4.329   1.508  -2.663  0.00  0.00     0.188 C 
ATOM     11  C18 <0> d           5.729   1.897  -2.754  0.00  0.00     0.033 C 
ATOM     12  C17 <0> d           5.910   3.427  -2.823  0.00  0.00     0.002 C 
ATOM     13  C16 <0> d           5.645   3.877  -4.234  0.00  0.00     0.000 C 
ATOM     14  C15 <0> d           4.187   4.328  -4.445  0.00  0.00     0.000 C 
ATOM     15  C14 <0> d           3.170   3.405  -3.748  0.00  0.00     0.002 C 
ATOM     16  C13 <0> d           3.516   1.949  -3.898  0.00  0.00     0.033 C 
ENDBRANCH   7  10
ENDBRANCH   5   7
BRANCH   4  17
ATOM     17  C19 <0> d           3.616  -2.255  -0.893  0.00  0.00     0.236 C 
BRANCH  17  18
ATOM     18  N2  <0> d           3.642  -3.719  -0.767  0.00  0.00    -0.079 N 
ATOM     19  H37 <0> d           4.197  -3.977   0.035  0.00  0.00     0.274 HD
ATOM     20  H38 <0> d           2.701  -4.063  -0.651  0.00  0.00     0.274 HD
ATOM     21  H40 <0> d           4.047  -4.121  -1.599  0.00  0.00     0.274 HD
ENDBRANCH  17  18
ENDBRANCH   4  17
BRANCH   1  22
ATOM     22  C2  <0> d           0.316   0.659   0.402  0.00  0.00    -0.048 C 
ATOM     23  C1  <0> d           0.390   2.174   0.197  0.00  0.00     0.015 C 
ATOM     24  C3  <0> d           1.156   0.267   1.619  0.00  0.00     0.015 C 
ATOM     25  C4  <0> d          -1.140   0.247   0.633  0.00  0.00     0.015 C 
ENDBRANCH   1  22
TORSDOF 5
