REMARK  2 active torsions:
REMARK  status: ('A' for Active; 'I' for Inactive)
REMARK    1  A    between atoms: C4_4  and  N1_8 
REMARK       I    between atoms: N1_8  and  C7_9 
REMARK    2  A    between atoms: C7_9  and  C8_11 
ROOT
ATOM      1  C8  <0> d           4.985  -2.625   0.444  0.00  0.00     0.101 A 
ATOM      2  C9  <0> d           5.046  -3.975   0.739  0.00  0.00     0.036 A 
ATOM      3  C10 <0> d           6.312  -4.605   0.818  0.00  0.00    -0.007 A 
ATOM      4  C11 <0> d           6.403  -5.974   1.115  0.00  0.00     0.032 A 
ATOM      5  C12 <0> d           7.628  -6.573   1.188  0.00  0.00     0.011 A 
ATOM      6  C13 <0> d           8.787  -5.839   0.971  0.00  0.00     0.021 A 
ATOM      7  C14 <0> d           8.723  -4.495   0.678  0.00  0.00     0.032 A 
ATOM      8  C15 <0> d           7.486  -3.860   0.597  0.00  0.00     0.045 A 
ATOM      9  N2  <0> d           7.417  -2.514   0.303  0.00  0.00    -0.322 N 
ATOM     10  H1  <0> d           8.236  -2.015   0.153  0.00  0.00     0.169 HD
ATOM     11  C16 <0> d           6.231  -1.885   0.215  0.00  0.00     0.261 A 
ATOM     12  O2  <0> d           6.191  -0.697  -0.051  0.00  0.00    -0.267 OA
ATOM     13 Br1  <0> d           7.747  -8.417   1.590  0.00  0.00    -0.051 Br
ENDROOT
BRANCH   1  14
ATOM     14  C7  <0> d           3.684  -1.940   0.355  0.00  0.00     0.261 C 
ATOM     15  N1  <0> d           3.625  -0.657  -0.053  0.00  0.00    -0.318 N 
ATOM     16  H5  <0> d           4.426  -0.211  -0.367  0.00  0.00     0.169 HD
ATOM     17  O1  <0> d           2.664  -2.533   0.650  0.00  0.00    -0.267 OA
BRANCH  15  18
ATOM     18  C4  <0> d           2.405   0.031  -0.022  0.00  0.00     0.113 A 
ATOM     19  C3  <0> d           2.342   1.314   0.510  0.00  0.00     0.146 A 
ATOM     20  C2  <0> d           1.136   1.991   0.538  0.00  0.00     0.045 A 
ATOM     21  F2  <0> d           3.458   1.899   0.999  0.00  0.00    -0.204 F 
ATOM     22  C1  <0> d          -0.006   1.393   0.037  0.00  0.00     0.006 A 
ATOM     23  C6  <0> d           0.053   0.117  -0.493  0.00  0.00     0.045 A 
ATOM     24  C5  <0> d           1.255  -0.566  -0.525  0.00  0.00     0.146 A 
ATOM     25  F1  <0> d           1.311  -1.812  -1.043  0.00  0.00    -0.204 F 
ENDBRANCH  15  18
ENDBRANCH   1  14
TORSDOF 2
