REMARK  4 active torsions:
REMARK  status: ('A' for Active; 'I' for Inactive)
REMARK    1  A    between atoms: C11_14  and  N4_15 
REMARK    2  A    between atoms: C16_20  and  C17_21 
REMARK    3  A    between atoms: C16_20  and  N5_24 
REMARK    4  A    between atoms: C17_21  and  O1_22 
ROOT
ATOM      1  C1  <0> d           5.099  -1.251  -0.641  0.00  0.00     0.091 C 
ATOM      2  C2  <0> d           3.614  -1.487  -0.529  0.00  0.00     0.107 A 
ATOM      3  N1  <0> d           3.036  -2.660  -0.468  0.00  0.00    -0.245 NA
ATOM      4  C3  <0> d           1.712  -2.508  -0.375  0.00  0.00     0.152 A 
ATOM      5  C4  <0> d           1.451  -1.160  -0.378  0.00  0.00     0.099 A 
ATOM      6  N2  <0> d           2.676  -0.526  -0.477  0.00  0.00    -0.293 N 
ATOM      7  C5  <0> d           2.711   0.864  -0.502  0.00  0.00     0.070 A 
ATOM      8  C6  <0> d           3.923   1.533  -0.601  0.00  0.00     0.032 A 
ATOM      9  C7  <0> d           3.950   2.913  -0.626  0.00  0.00     0.002 A 
ATOM     10  C8  <0> d           2.771   3.638  -0.553  0.00  0.00     0.002 A 
ATOM     11  C9  <0> d           1.560   2.992  -0.454  0.00  0.00     0.034 A 
ATOM     12  C10 <0> d           1.514   1.592  -0.428  0.00  0.00     0.086 A 
ATOM     13  N3  <0> d           0.315   0.958  -0.331  0.00  0.00    -0.232 NA
ATOM     14  C11 <0> d           0.234  -0.355  -0.303  0.00  0.00     0.135 A 
ENDROOT
BRANCH  14  15
ATOM     15  N4  <0> d          -0.998  -0.970  -0.204  0.00  0.00    -0.263 NA
ATOM     16  C15 <0> d          -2.079   0.023  -0.141  0.00  0.00     0.125 C 
ATOM     17  C14 <0> d          -3.418  -0.695   0.048  0.00  0.00     0.249 C 
ATOM     18  N5  <0> d          -3.629  -1.617  -1.088  0.00  0.00    -0.067 N 
ATOM     19  C13 <0> d          -2.549  -2.625  -1.126  0.00  0.00     0.249 C 
ATOM     20  H22 <0> d          -3.614  -1.078  -1.962  0.00  0.00     0.280 HD
ATOM     21  C12 <0> d          -1.210  -1.907  -1.316  0.00  0.00     0.125 C 
BRANCH  18  22
ATOM     22  C16 <0> d          -4.941  -2.287  -0.958  0.00  0.00     0.260 C 
BRANCH  22  23
ATOM     23  C17 <0> d          -6.037  -1.304  -1.374  0.00  0.00     0.192 C 
BRANCH  23  24
ATOM     24  O1  <0> d          -5.894  -0.990  -2.761  0.00  0.00    -0.399 OA
ATOM     25  H21 <0> d          -6.558  -0.371  -3.095  0.00  0.00     0.209 HD
ENDBRANCH  23  24
ENDBRANCH  22  23
ENDBRANCH  18  22
ENDBRANCH  14  15
TORSDOF 4
