REMARK  4 active torsions:
REMARK  status: ('A' for Active; 'I' for Inactive)
REMARK    1  A    between atoms: C8_10  and  S1_11 
REMARK    2  A    between atoms: S1_11  and  C9_12 
REMARK    3  A    between atoms: C9_12  and  C10_13 
REMARK    4  A    between atoms: C10_13  and  C11_15 
ROOT
ATOM      1  C1  <0> d          -0.018   1.461   0.010  0.00  0.00     0.153 C 
ATOM      2  N1  <0> d           0.002  -0.004   0.002  0.00  0.00    -0.353 N 
ATOM      3  C2  <0> d           0.009  -0.828  -1.132  0.00  0.00     0.059 A 
ATOM      4  C3  <0> d          -0.002  -0.504  -2.483  0.00  0.00     0.032 A 
ATOM      5  C4  <0> d           0.007  -1.504  -3.437  0.00  0.00     0.002 A 
ATOM      6  C5  <0> d           0.026  -2.832  -3.050  0.00  0.00     0.002 A 
ATOM      7  C6  <0> d           0.037  -3.163  -1.709  0.00  0.00     0.031 A 
ATOM      8  C7  <0> d           0.028  -2.164  -0.743  0.00  0.00     0.057 A 
ATOM      9  N2  <0> d           0.035  -2.251   0.656  0.00  0.00    -0.358 N 
ATOM     10  C8  <0> d           0.025  -0.880   1.179  0.00  0.00     0.249 A 
ATOM     11  H10 <0> d           0.048  -3.067   1.181  0.00  0.00     0.162 HD
ENDROOT
BRANCH  10  12
ATOM     12  S1  <0> d          -1.457  -0.610   2.190  0.00  0.00    -0.115 SA
BRANCH  12  13
ATOM     13  C9  <0> d          -2.829  -1.016   1.074  0.00  0.00     0.158 C 
BRANCH  13  14
ATOM     14  C10 <0> d          -4.137  -0.831   1.798  0.00  0.00     0.164 C 
ATOM     15  O1  <0> d          -4.144  -0.464   2.949  0.00  0.00    -0.294 OA
BRANCH  14  16
ATOM     16  C11 <0> d          -5.437  -1.105   1.087  0.00  0.00     0.200 A 
ATOM     17  N3  <0> d          -6.545  -1.146   2.051  0.00  0.00    -0.285 NA
ATOM     18  C14 <0> d          -7.380  -0.209   1.739  0.00  0.00     0.111 A 
ATOM     19  C13 <0> d          -6.925   0.533   0.563  0.00  0.00     0.017 A 
ATOM     20  C12 <0> d          -5.766   0.029   0.141  0.00  0.00     0.009 A 
ENDBRANCH  14  16
ENDBRANCH  13  14
ENDBRANCH  12  13
ENDBRANCH  10  12
TORSDOF 4
