REMARK  3 active torsions:
REMARK  status: ('A' for Active; 'I' for Inactive)
REMARK    1  A    between atoms: C3_3  and  C7_9 
REMARK    2  A    between atoms: C7_9  and  N3_10 
REMARK       I    between atoms: N3_10  and  C8_11 
REMARK    3  A    between atoms: C8_11  and  C9_13 
ROOT
ATOM      1  N3  <0> d           0.033   4.219  -0.078  0.00  0.00    -0.352 N 
ATOM      2  C8  <0> d           1.197   3.546   0.009  0.00  0.00     0.258 C 
ATOM      3  O1  <0> d           2.247   4.156   0.097  0.00  0.00    -0.267 OA
ATOM      4  H12 <0> d          -0.921   3.670  -0.072  0.00  0.00     0.163 HD
ENDROOT
BRANCH   2   5
ATOM      5  C9  <0> d           1.200   2.079  -0.001  0.00  0.00     0.117 A 
ATOM      6  C12 <0> d          -0.016   1.362   0.020  0.00  0.00     0.270 A 
ATOM      7  N5  <0> d           0.003  -0.004   0.010  0.00  0.00    -0.266 N 
ATOM      8  O2  <0> d          -1.078   1.960   0.043  0.00  0.00    -0.266 OA
ATOM      9  C11 <0> d           1.229  -0.605  -0.021  0.00  0.00     0.179 A 
ATOM     10  C13 <0> d          -1.094  -0.834   0.028  0.00  0.00     0.110 A 
ATOM     11  N4  <0> d           2.370   0.051  -0.042  0.00  0.00    -0.235 NA
ATOM     12  S1  <0> d           0.856  -2.295  -0.025  0.00  0.00    -0.062 SA
ATOM     13  C10 <0> d           2.408   1.373  -0.034  0.00  0.00     0.142 A 
ATOM     14  C14 <0> d          -0.923  -2.155   0.015  0.00  0.00     0.071 A 
ENDBRANCH   2   5
BRANCH   1  15
ATOM     15  C7  <0> d           0.036   5.680  -0.182  0.00  0.00     0.165 C 
BRANCH  15  16
ATOM     16  C3  <0> d          -1.382   6.181  -0.266  0.00  0.00     0.009 A 
ATOM     17  C2  <0> d          -2.116   6.381  -1.440  0.00  0.00     0.060 A 
ATOM     18  C1  <0> d          -1.625   6.132  -2.842  0.00  0.00     0.073 C 
ATOM     19  N2  <0> d          -3.304   6.818  -1.109  0.00  0.00    -0.177 NA
ATOM     20  N1  <0> d          -3.361   6.920   0.287  0.00  0.00    -0.278 N 
ATOM     21  C4  <0> d          -2.169   6.523   0.781  0.00  0.00     0.036 A 
ATOM     22  C5  <0> d          -4.511   7.376   1.072  0.00  0.00     0.179 C 
ATOM     23  C6  <0> d          -1.784   6.471   2.237  0.00  0.00     0.070 C 
ENDBRANCH  15  16
ENDBRANCH   1  15
TORSDOF 3
