REMARK  5 active torsions:
REMARK  status: ('A' for Active; 'I' for Inactive)
REMARK    1  A    between atoms: C3_3  and  N2_22 
REMARK    2  A    between atoms: C10_12  and  C11_13 
REMARK    3  A    between atoms: C13_15  and  C15_18 
REMARK    4  A    between atoms: C16_19  and  C17_20 
REMARK    5  A    between atoms: C17_20  and  O2_21 
ROOT
ATOM      1  C1  <0> d          -0.018   1.503   0.010  0.00  0.00     0.053 C 
ATOM      2  C2  <0> d           0.002  -0.004   0.002  0.00  0.00    -0.008 A 
ATOM      3  C3  <0> d           0.006  -0.693  -1.203  0.00  0.00     0.038 A 
ATOM      4  C4  <0> d           0.025  -2.083  -1.207  0.00  0.00     0.030 A 
ATOM      5  C5  <0> d           0.040  -2.778  -0.013  0.00  0.00     0.012 A 
ATOM      6  C6  <0> d           0.036  -2.095   1.187  0.00  0.00    -0.021 A 
ATOM      7  C7  <0> d           0.023  -0.706   1.198  0.00  0.00     0.050 A 
ATOM      8  N1  <0> d           0.025  -0.018   2.416  0.00  0.00    -0.326 N 
ATOM      9  C8  <0> d           0.414  -0.634   3.547  0.00  0.00     0.223 C 
ATOM     10  O1  <0> d           0.397  -0.027   4.597  0.00  0.00    -0.273 OA
ATOM     11  C9  <0> d           0.870  -2.068   3.525  0.00  0.00     0.117 C 
ATOM     12  C10 <0> d           0.053  -2.854   2.489  0.00  0.00     0.069 C 
ATOM     13  H7  <0> d          -0.255   0.911   2.445  0.00  0.00     0.169 HD
ENDROOT
BRANCH  12  14
ATOM     14  C11 <0> d          -1.360  -3.042   2.979  0.00  0.00    -0.007 A 
ATOM     15  S1  <0> d          -2.575  -1.802   3.392  0.00  0.00    -0.104 SA
ATOM     16  C14 <0> d          -3.908  -2.893   3.859  0.00  0.00     0.070 A 
ATOM     17  C13 <0> d          -3.342  -4.126   3.678  0.00  0.00     0.025 A 
ATOM     18  C12 <0> d          -2.027  -4.191   3.224  0.00  0.00     0.036 A 
BRANCH  17  19
ATOM     19  C15 <0> d          -4.084  -5.321   3.949  0.00  0.00    -0.064 C 
ATOM     20  C16 <0> d          -4.693  -6.300   4.171  0.00  0.00    -0.075 C 
BRANCH  20  21
ATOM     21  C17 <0> d          -5.455  -7.527   4.449  0.00  0.00     0.258 C 
BRANCH  21  22
ATOM     22  O2  <0> d          -6.767  -7.182   4.899  0.00  0.00    -0.389 OA
ATOM     23  H14 <0> d          -7.327  -7.944   5.102  0.00  0.00     0.210 HD
ENDBRANCH  21  22
ENDBRANCH  20  21
ENDBRANCH  17  19
ENDBRANCH  12  14
BRANCH   3  24
ATOM     24  N2  <0> d          -0.010   0.009  -2.410  0.00  0.00    -0.380 N 
ATOM     25  C21 <0> d          -1.218   0.424  -3.147  0.00  0.00     0.123 C 
ATOM     26  C20 <0> d          -0.762   1.637  -4.000  0.00  0.00     0.021 C 
ATOM     27  C19 <0> d           0.671   1.206  -4.408  0.00  0.00     0.021 C 
ATOM     28  C18 <0> d           1.175   0.452  -3.160  0.00  0.00     0.123 C 
ENDBRANCH   3  24
TORSDOF 5
