REMARK  6 active torsions:
REMARK  status: ('A' for Active; 'I' for Inactive)
REMARK    1  A    between atoms: C2_2  and  N1_3 
REMARK    2  A    between atoms: N1_3  and  C3_4 
REMARK    3  A    between atoms: N1_3  and  C13_14 
REMARK    4  A    between atoms: C14_15  and  N5_29 
REMARK    5  A    between atoms: C15_16  and  N4_20 
REMARK    6  A    between atoms: N4_20  and  C17_21 
ROOT
ATOM      1  C13 <0> d          -0.630  -1.806  -1.894  0.00  0.00     0.162 A 
ATOM      2  C14 <0> d          -1.792  -1.043  -2.030  0.00  0.00     0.117 A 
ATOM      3  C15 <0> d          -2.444  -1.050  -3.265  0.00  0.00     0.137 A 
ATOM      4  N2  <0> d          -1.938  -1.778  -4.257  0.00  0.00    -0.335 N 
ATOM      5  C16 <0> d          -0.839  -2.485  -4.086  0.00  0.00     0.211 A 
ATOM      6  N3  <0> d          -0.190  -2.501  -2.939  0.00  0.00    -0.224 NA
ATOM      7  H26 <0> d          -2.384  -1.789  -5.118  0.00  0.00     0.168 HD
ENDROOT
BRANCH   1   8
ATOM      8  N1  <0> d           0.058  -1.834  -0.686  0.00  0.00    -0.329 N 
BRANCH   8   9
ATOM      9  C2  <0> d           1.032  -0.785  -0.373  0.00  0.00     0.126 C 
ATOM     10  C1  <0> d           2.424  -1.231  -0.822  0.00  0.00     0.027 C 
ENDBRANCH   8   9
BRANCH   8  11
ATOM     11  C3  <0> d          -0.178  -2.861   0.227  0.00  0.00     0.047 A 
ATOM     12  C8  <0> d           0.583  -4.049   0.175  0.00  0.00     0.001 A 
ATOM     13  C7  <0> d           0.329  -5.076   1.117  0.00  0.00    -0.024 A 
ATOM     14  C9  <0> d           1.589  -4.228  -0.787  0.00  0.00     0.014 A 
ATOM     15  C6  <0> d          -0.681  -4.900   2.077  0.00  0.00     0.012 A 
ATOM     16  C12 <0> d           1.091  -6.257   1.069  0.00  0.00     0.012 A 
ATOM     17  C5  <0> d          -1.404  -3.747   2.101  0.00  0.00     0.003 A 
ATOM     18  C4  <0> d          -1.161  -2.728   1.185  0.00  0.00     0.030 A 
ATOM     19  C11 <0> d           2.051  -6.401   0.114  0.00  0.00     0.001 A 
ATOM     20  C10 <0> d           2.303  -5.387  -0.808  0.00  0.00     0.001 A 
ENDBRANCH   8  11
ENDBRANCH   1   8
BRANCH   2  21
ATOM     21  N5  <0> d          -2.290  -0.289  -0.956  0.00  0.00    -0.393 N 
ATOM     22  H24 <0> d          -1.781  -0.223  -0.133  0.00  0.00     0.156 HD
ATOM     23  H25 <0> d          -3.143   0.165  -1.036  0.00  0.00     0.156 HD
ENDBRANCH   2  21
BRANCH   3  24
ATOM     24  N4  <0> d          -3.604  -0.308  -3.454  0.00  0.00    -0.340 N 
ATOM     25  H14 <0> d          -3.915   0.293  -2.759  0.00  0.00     0.167 HD
BRANCH  24  26
ATOM     26  C17 <0> d          -4.323  -0.428  -4.647  0.00  0.00     0.034 A 
ATOM     27  C22 <0> d          -4.876   0.698  -5.243  0.00  0.00     0.036 A 
ATOM     28  C21 <0> d          -5.581   0.577  -6.424  0.00  0.00    -0.059 A 
ATOM     29  C20 <0> d          -5.747  -0.666  -7.008  0.00  0.00     0.013 A 
ATOM     30  C23 <0> d          -6.174   1.799  -7.076  0.00  0.00     0.048 C 
ATOM     31  C19 <0> d          -5.203  -1.790  -6.414  0.00  0.00    -0.059 A 
ATOM     32  C18 <0> d          -4.492  -1.675  -5.235  0.00  0.00     0.036 A 
ATOM     33  C24 <0> d          -5.386  -3.142  -7.053  0.00  0.00     0.048 C 
ENDBRANCH  24  26
ENDBRANCH   3  24
TORSDOF 6
