REMARK  5 active torsions:
REMARK  status: ('A' for Active; 'I' for Inactive)
REMARK    1  A    between atoms: C2_2  and  C3_3 
REMARK    2  A    between atoms: C3_3  and  C6_6 
REMARK    3  A    between atoms: C9_9  and  C19_20 
REMARK    4  A    between atoms: C10_10  and  N1_12 
REMARK    5  A    between atoms: C19_20  and  N2_21 
ROOT
ATOM      1  C6  <0> d           0.977  -2.062  -0.992  0.00  0.00    -0.005 C 
ATOM      2  C7  <0> d           1.702  -2.771   0.154  0.00  0.00     0.006 C 
ATOM      3  C8  <0> d           1.494  -4.282   0.032  0.00  0.00     0.009 C 
ATOM      4  C9  <0> d           2.058  -4.767  -1.306  0.00  0.00     0.042 C 
ATOM      5  C10 <0> d           1.333  -4.058  -2.452  0.00  0.00     0.194 C 
ATOM      6  C11 <0> d           1.540  -2.547  -2.329  0.00  0.00     0.039 C 
ENDROOT
BRANCH   5   7
ATOM      7  N1  <0> d           1.874  -4.523  -3.736  0.00  0.00    -0.066 N 
ATOM      8  C18 <0> d           3.279  -4.109  -3.853  0.00  0.00     0.235 C 
ATOM      9  C17 <0> d           4.146  -5.335  -4.160  0.00  0.00     0.028 C 
ATOM     10  C16 <0> d           3.971  -5.726  -5.625  0.00  0.00     0.002 C 
ATOM     11  C15 <0> d           2.626  -6.429  -5.812  0.00  0.00     0.000 C 
ATOM     12  C14 <0> d           1.710  -5.540  -6.655  0.00  0.00     0.002 C 
ATOM     13  C13 <0> d           1.837  -4.095  -6.158  0.00  0.00     0.028 C 
ATOM     14  C12 <0> d           1.088  -3.946  -4.835  0.00  0.00     0.235 C 
ATOM     15  H39 <0> d           1.817  -5.530  -3.778  0.00  0.00     0.280 HD
ENDBRANCH   5   7
BRANCH   4  16
ATOM     16  C19 <0> d           1.850  -6.277  -1.429  0.00  0.00     0.236 C 
BRANCH  16  17
ATOM     17  N2  <0> d           2.619  -6.964  -0.382  0.00  0.00    -0.079 N 
ATOM     18  H37 <0> d           2.482  -7.960  -0.462  0.00  0.00     0.274 HD
ATOM     19  H38 <0> d           3.599  -6.749  -0.488  0.00  0.00     0.274 HD
ATOM     20  H40 <0> d           2.303  -6.654   0.525  0.00  0.00     0.274 HD
ENDBRANCH  16  17
ENDBRANCH   4  16
BRANCH   1  21
ATOM     21  C3  <0> d           1.184  -0.551  -0.869  0.00  0.00    -0.044 C 
ATOM     22  C4  <0> d           0.460   0.158  -2.015  0.00  0.00     0.015 C 
ATOM     23  C5  <0> d           2.680  -0.234  -0.938  0.00  0.00     0.015 C 
BRANCH  21  24
ATOM     24  C2  <0> d           0.621  -0.066   0.468  0.00  0.00     0.004 C 
ATOM     25  C1  <0> d           0.828   1.445   0.591  0.00  0.00     0.006 C 
ENDBRANCH  21  24
ENDBRANCH   1  21
TORSDOF 5
