REMARK  6 active torsions:
REMARK  status: ('A' for Active; 'I' for Inactive)
REMARK    1  A    between atoms: C4_4  and  C7_7 
REMARK    2  A    between atoms: C7_7  and  C8_8 
REMARK    3  A    between atoms: C7_7  and  O3_27 
REMARK    4  A    between atoms: C8_8  and  N4_29 
REMARK    5  A    between atoms: N1_11  and  C13_14 
REMARK    6  A    between atoms: C16_17  and  N3_24 
ROOT
ATOM      1  C9  <0> d           2.600   6.212   0.485  0.00  0.00     0.249 C 
ATOM      2  C10 <0> d           2.331   7.712   0.345  0.00  0.00     0.123 C 
ATOM      3  N1  <0> d           2.020   8.276   1.666  0.00  0.00    -0.280 NA
ATOM      4  C11 <0> d           0.841   7.622   2.250  0.00  0.00     0.123 C 
ATOM      5  C12 <0> d           1.109   6.122   2.390  0.00  0.00     0.249 C 
ATOM      6  N4  <0> d           1.399   5.563   1.052  0.00  0.00    -0.066 N 
ATOM      7  H23 <0> d           0.599   5.744   0.434  0.00  0.00     0.280 HD
ENDROOT
BRANCH   3   8
ATOM      8  C13 <0> d           1.839   9.655   1.590  0.00  0.00     0.022 A 
ATOM      9  C18 <0> d           1.769  10.431   2.764  0.00  0.00     0.001 A 
ATOM     10  C17 <0> d           1.585  11.834   2.665  0.00  0.00     0.026 A 
ATOM     11  C19 <0> d           1.875   9.862   4.045  0.00  0.00     0.033 A 
ATOM     12  C16 <0> d           1.477  12.428   1.398  0.00  0.00     0.115 A 
ATOM     13  C21 <0> d           1.518  12.587   3.849  0.00  0.00     0.131 A 
ATOM     14  C15 <0> d           1.548  11.655   0.279  0.00  0.00     0.039 A 
ATOM     15  C14 <0> d           1.733  10.279   0.364  0.00  0.00     0.027 A 
ATOM     16  N2  <0> d           1.625  11.989   5.012  0.00  0.00    -0.272 NA
ATOM     17  C20 <0> d           1.798  10.680   5.132  0.00  0.00     0.117 A 
BRANCH  12  18
ATOM     18  N3  <0> d           1.285  13.892   1.279  0.00  0.00    -0.115 N 
ATOM     19  O1  <0> d           0.549  14.341   0.420  0.00  0.00    -0.532 OA
ATOM     20  O2  <0> d           1.864  14.646   2.041  0.00  0.00    -0.532 OA
ENDBRANCH  12  18
ENDBRANCH   3   8
BRANCH   6  21
ATOM     21  C8  <0> d           1.611   4.103   1.149  0.00  0.00     0.271 C 
BRANCH  21  22
ATOM     22  C7  <0> d           0.249   3.417   1.276  0.00  0.00     0.177 C 
BRANCH  22  23
ATOM     23  C4  <0> d           0.446   1.927   1.394  0.00  0.00    -0.028 A 
ATOM     24  C3  <0> d           0.390   1.319   2.634  0.00  0.00     0.010 A 
ATOM     25  C2  <0> d           0.570  -0.048   2.741  0.00  0.00     0.001 A 
ATOM     26  C1  <0> d           0.807  -0.805   1.609  0.00  0.00     0.000 A 
ATOM     27  C6  <0> d           0.863  -0.196   0.370  0.00  0.00     0.001 A 
ATOM     28  C5  <0> d           0.682   1.170   0.262  0.00  0.00     0.010 A 
ENDBRANCH  22  23
BRANCH  22  29
ATOM     29  O3  <0> d          -0.539   3.703   0.119  0.00  0.00    -0.389 OA
ATOM     30  H22 <0> d          -0.143   3.401  -0.711  0.00  0.00     0.210 HD
ENDBRANCH  22  29
ENDBRANCH  21  22
ENDBRANCH   6  21
TORSDOF 6
