REMARK  6 active torsions:
REMARK  status: ('A' for Active; 'I' for Inactive)
REMARK    1  A    between atoms: C3_3  and  C7_9 
REMARK       I    between atoms: C7_9  and  N1_11 
REMARK    2  A    between atoms: C9_13  and  C16_21 
REMARK       I    between atoms: C16_21  and  N3_23 
REMARK    3  A    between atoms: N3_23  and  C17_24 
REMARK    4  A    between atoms: C17_24  and  C18_25 
REMARK    5  A    between atoms: C18_25  and  C19_26 
REMARK    6  A    between atoms: C18_25  and  N5_32 
ROOT
ATOM      1  C7  <0> d           3.578   2.106   0.238  0.00  0.00     0.255 C 
ATOM      2  O1  <0> d           4.640   1.520   0.153  0.00  0.00    -0.267 OA
ATOM      3  N1  <0> d           3.524   3.436   0.027  0.00  0.00    -0.346 N 
ATOM      4  C8  <0> d           2.355   4.333   0.180  0.00  0.00     0.141 C 
ATOM      5  C9  <0> d           2.932   5.624   0.804  0.00  0.00     0.106 C 
ATOM      6  C10 <0> d           4.419   5.618   0.411  0.00  0.00    -0.007 C 
ATOM      7  C11 <0> d           4.623   4.333  -0.405  0.00  0.00     0.136 C 
ATOM      8  C12 <0> d           4.745   6.842  -0.439  0.00  0.00     0.039 C 
ATOM      9  C13 <0> d           6.240   6.845  -0.768  0.00  0.00     0.233 C 
ATOM     10  N2  <0> d           7.018   6.868   0.476  0.00  0.00    -0.075 N 
ATOM     11  C14 <0> d           6.768   5.643   1.245  0.00  0.00     0.233 C 
ATOM     12  C15 <0> d           5.295   5.589   1.660  0.00  0.00     0.039 C 
ATOM     13  H14 <0> d           8.000   6.932   0.257  0.00  0.00     0.277 HD
ATOM     14  H34 <0> d           6.746   7.670   1.026  0.00  0.00     0.277 HD
ENDROOT
BRANCH   5  15
ATOM     15  C16 <0> d           2.240   6.836   0.235  0.00  0.00     0.224 C 
ATOM     16  O2  <0> d           1.790   6.804  -0.891  0.00  0.00    -0.273 OA
ATOM     17  N3  <0> d           2.123   7.955   0.977  0.00  0.00    -0.358 N 
ATOM     18  H19 <0> d           2.484   7.980   1.877  0.00  0.00     0.162 HD
BRANCH  17  19
ATOM     19  C17 <0> d           1.451   9.133   0.423  0.00  0.00     0.160 C 
BRANCH  19  20
ATOM     20  C18 <0> d           1.371  10.224   1.493  0.00  0.00     0.240 C 
BRANCH  20  21
ATOM     21  C19 <0> d           2.762  10.681   1.851  0.00  0.00    -0.008 A 
ATOM     22  C23 <0> d           3.433  11.578   1.042  0.00  0.00     0.125 A 
ATOM     23  N4  <0> d           4.648  11.987   1.352  0.00  0.00    -0.273 NA
ATOM     24  C22 <0> d           5.272  11.552   2.429  0.00  0.00     0.116 A 
ATOM     25  C21 <0> d           4.666  10.650   3.282  0.00  0.00     0.020 A 
ATOM     26  C20 <0> d           3.386  10.202   2.993  0.00  0.00     0.012 A 
ENDBRANCH  20  21
BRANCH  20  27
ATOM     27  N5  <0> d           0.600  11.362   0.976  0.00  0.00    -0.061 N 
ATOM     28  C27 <0> d           0.479  12.410   2.012  0.00  0.00     0.236 C 
ATOM     29  C26 <0> d          -0.916  13.044   1.853  0.00  0.00     0.029 C 
ATOM     30  C25 <0> d          -1.580  12.272   0.690  0.00  0.00     0.029 C 
ATOM     31  C24 <0> d          -0.789  10.940   0.663  0.00  0.00     0.236 C 
ATOM     32  H35 <0> d           1.044  11.738   0.151  0.00  0.00     0.280 HD
ENDBRANCH  20  27
ENDBRANCH  19  20
ENDBRANCH  17  19
ENDBRANCH   5  15
BRANCH   1  33
ATOM     33  C3  <0> d           2.347   1.360   0.572  0.00  0.00     0.055 A 
ATOM     34  C2  <0> d           1.131   1.715  -0.015  0.00  0.00     0.019 A 
ATOM     35  C1  <0> d          -0.015   1.015   0.300  0.00  0.00     0.003 A 
ATOM     36  C6  <0> d           0.037  -0.038   1.196  0.00  0.00     0.026 A 
ATOM     37  C5  <0> d           1.239  -0.397   1.782  0.00  0.00     0.056 A 
ATOM     38  C4  <0> d           2.395   0.296   1.476  0.00  0.00     0.071 A 
ATOM     39 Cl1  <0> d           1.294  -1.720   2.905  0.00  0.00    -0.083 Cl
ATOM     40 Cl2  <0> d           3.901  -0.154   2.211  0.00  0.00    -0.081 Cl
ENDBRANCH   1  33
TORSDOF 6
