REMARK  7 active torsions:
REMARK  status: ('A' for Active; 'I' for Inactive)
REMARK    1  A    between atoms: N2_4  and  C4_6 
REMARK    2  A    between atoms: C7_9  and  N3_12 
REMARK    3  A    between atoms: N3_12  and  C10_13 
REMARK    4  A    between atoms: N4_15  and  C11_16 
REMARK    5  A    between atoms: C11_16  and  C12_17 
REMARK    6  A    between atoms: C18_24  and  C19_25 
REMARK    7  A    between atoms: C19_25  and  N6_26 
ROOT
ATOM      1  C10 <0> d           3.516  -6.255   0.826  0.00  0.00     0.172 C 
ATOM      2  S1  <0> d           4.470  -4.835   0.889  0.00  0.00    -0.041 SA
ATOM      3  N4  <0> d           4.091  -7.440   0.540  0.00  0.00    -0.365 N 
ATOM      4  H12 <0> d           3.550  -8.245   0.504  0.00  0.00     0.161 HD
ENDROOT
BRANCH   3   5
ATOM      5  C11 <0> d           5.531  -7.513   0.284  0.00  0.00     0.155 C 
BRANCH   5   6
ATOM      6  C12 <0> d           5.924  -8.962  -0.012  0.00  0.00     0.206 C 
ATOM      7  N5  <0> d           5.476  -9.822   1.086  0.00  0.00    -0.065 N 
ATOM      8  C16 <0> d           6.090  -9.360   2.371  0.00  0.00     0.236 C 
ATOM      9  C17 <0> d           5.804 -11.223   0.812  0.00  0.00     0.242 C 
ATOM     10  H33 <0> d           4.473  -9.745   1.163  0.00  0.00     0.280 HD
ATOM     11  C15 <0> d           7.613  -9.487   2.284  0.00  0.00     0.032 C 
ATOM     12  C14 <0> d           7.986 -10.026   0.897  0.00  0.00    -0.003 C 
ATOM     13  C13 <0> d           7.444  -9.056  -0.161  0.00  0.00     0.040 C 
ATOM     14  C18 <0> d           7.318 -11.392   0.689  0.00  0.00     0.044 C 
BRANCH  14  15
ATOM     15  C19 <0> d           7.812 -12.372   1.755  0.00  0.00     0.279 C 
BRANCH  15  16
ATOM     16  N6  <0> d           7.215 -13.693   1.520  0.00  0.00     0.093 N 
ATOM     17  C23 <0> d           7.861 -14.368   0.385  0.00  0.00     0.298 C 
ATOM     18  C22 <0> d           7.171 -15.712   0.137  0.00  0.00     0.198 C 
ATOM     19  O1  <0> d           7.221 -16.495   1.333  0.00  0.00    -0.388 OA
ATOM     20  C21 <0> d           6.600 -15.868   2.458  0.00  0.00     0.198 C 
ATOM     21  C20 <0> d           7.284 -14.526   2.729  0.00  0.00     0.298 C 
ENDBRANCH  15  16
ENDBRANCH  14  15
ENDBRANCH   5   6
ENDBRANCH   3   5
BRANCH   1  22
ATOM     22  N3  <0> d           2.191  -6.188   1.061  0.00  0.00    -0.333 N 
ATOM     23  H11 <0> d           1.664  -7.001   1.106  0.00  0.00     0.168 HD
BRANCH  22  24
ATOM     24  C7  <0> d           1.574  -4.944   1.240  0.00  0.00     0.034 A 
ATOM     25  C6  <0> d           1.926  -3.871   0.431  0.00  0.00     0.032 A 
ATOM     26  C5  <0> d           1.317  -2.645   0.608  0.00  0.00     0.034 A 
ATOM     27  C4  <0> d           0.353  -2.484   1.594  0.00  0.00     0.058 A 
ATOM     28  C9  <0> d           0.006  -3.555   2.407  0.00  0.00     0.034 A 
ATOM     29  C8  <0> d           0.611  -4.782   2.227  0.00  0.00     0.032 A 
BRANCH  27  30
ATOM     30  N2  <0> d          -0.265  -1.238   1.774  0.00  0.00    -0.245 N 
ATOM     31  N1  <0> d          -1.244  -0.933   2.728  0.00  0.00    -0.180 NA
ATOM     32  C2  <0> d          -1.576   0.325   2.587  0.00  0.00     0.140 A 
ATOM     33  C1  <0> d          -0.821   0.862   1.539  0.00  0.00     0.040 A 
ATOM     34  C3  <0> d          -0.023  -0.118   1.055  0.00  0.00     0.120 A 
ENDBRANCH  27  30
ENDBRANCH  22  24
ENDBRANCH   1  22
TORSDOF 7
