REMARK  3 active torsions:
REMARK  status: ('A' for Active; 'I' for Inactive)
REMARK    1  A    between atoms: C2_2  and  N1_3 
REMARK    2  A    between atoms: C5_7  and  C6_8 
REMARK    3  A    between atoms: N2_11  and  C11_14 
ROOT
ATOM      1  N1  <0> d          -0.024   1.843  -2.737  0.00  0.00    -0.266 N 
ATOM      2  C3  <0> d           0.808   1.182  -1.907  0.00  0.00     0.267 A 
ATOM      3  O1  <0> d           0.907  -0.030  -1.957  0.00  0.00    -0.267 OA
ATOM      4  C4  <0> d           1.599   1.967  -0.942  0.00  0.00     0.101 A 
ATOM      5  C5  <0> d           2.478   1.358  -0.062  0.00  0.00     0.036 C 
ATOM      6  C15 <0> d           1.413   3.430  -0.955  0.00  0.00     0.265 A 
ATOM      7  O2  <0> d           2.030   4.145  -0.189  0.00  0.00    -0.267 OA
ATOM      8  N3  <0> d           0.540   3.954  -1.841  0.00  0.00    -0.274 N 
ATOM      9  C16 <0> d          -0.146   3.177  -2.691  0.00  0.00     0.332 A 
ATOM     10  O3  <0> d          -0.916   3.712  -3.464  0.00  0.00    -0.246 OA
ATOM     11  H19 <0> d           0.406   4.914  -1.862  0.00  0.00     0.173 HD
ENDROOT
BRANCH   5  12
ATOM     12  C6  <0> d           2.504  -0.053   0.050  0.00  0.00    -0.011 A 
ATOM     13  C9  <0> d           3.626  -0.867   0.108  0.00  0.00     0.018 A 
ATOM     14  N2  <0> d           3.211  -2.142   0.214  0.00  0.00    -0.349 N 
ATOM     15  C10 <0> d           5.059  -0.404   0.065  0.00  0.00     0.069 C 
ATOM     16  C8  <0> d           1.846  -2.201   0.218  0.00  0.00     0.009 A 
ATOM     17  C7  <0> d           1.348  -0.958   0.120  0.00  0.00     0.038 A 
ATOM     18  C14 <0> d           1.029  -3.463   0.318  0.00  0.00     0.068 C 
BRANCH  14  19
ATOM     19  C11 <0> d           4.098  -3.304   0.306  0.00  0.00     0.090 A 
ATOM     20  C13 <0> d           5.029  -3.387   1.517  0.00  0.00     0.028 A 
ATOM     21  C12 <0> d           3.820  -4.319   1.416  0.00  0.00     0.028 A 
ENDBRANCH  14  19
ENDBRANCH   5  12
BRANCH   1  22
ATOM     22  C2  <0> d          -0.816   1.086  -3.710  0.00  0.00     0.132 C 
ATOM     23  C1  <0> d          -2.156   0.696  -3.083  0.00  0.00     0.027 C 
ENDBRANCH   1  22
TORSDOF 3
