REMARK  7 active torsions:
REMARK  status: ('A' for Active; 'I' for Inactive)
REMARK    1  A    between atoms: C2_2  and  N1_3 
REMARK    2  A    between atoms: C3_4  and  C10_18 
REMARK    3  A    between atoms: N3_6  and  C5_9 
REMARK    4  A    between atoms: C5_9  and  C6_10 
REMARK    5  A    between atoms: C7_12  and  C8_15 
REMARK    6  A    between atoms: C8_15  and  O3_16 
REMARK    7  A    between atoms: C10_18  and  C11_19 
ROOT
ATOM      1  N1  <0> d          -1.372  -0.511   0.012  0.00  0.00    -0.285 N 
ATOM      2  C3  <0> d          -2.118  -0.790   1.132  0.00  0.00     0.131 A 
ATOM      3  N2  <0> d          -3.282  -1.218   0.762  0.00  0.00    -0.154 NA
ATOM      4  N3  <0> d          -3.319  -1.227  -0.639  0.00  0.00    -0.211 N 
ATOM      5  C4  <0> d          -2.123  -0.778  -1.075  0.00  0.00     0.346 A 
ATOM      6  O1  <0> d          -1.784  -0.642  -2.237  0.00  0.00    -0.245 OA
ENDROOT
BRANCH   2   7
ATOM      7  C10 <0> d          -1.656  -0.625   2.557  0.00  0.00     0.085 C 
BRANCH   7   8
ATOM      8  C11 <0> d          -2.779  -1.043   3.508  0.00  0.00    -0.004 C 
ATOM      9  C15 <0> d          -2.271  -0.995   4.952  0.00  0.00     0.032 C 
ATOM     10  C14 <0> d          -3.420  -1.336   5.903  0.00  0.00     0.232 C 
ATOM     11  N6  <0> d          -4.507  -0.364   5.732  0.00  0.00    -0.075 N 
ATOM     12  C13 <0> d          -5.047  -0.455   4.371  0.00  0.00     0.232 C 
ATOM     13  H20 <0> d          -4.152   0.567   5.891  0.00  0.00     0.277 HD
ATOM     14  H25 <0> d          -5.240  -0.560   6.398  0.00  0.00     0.277 HD
ATOM     15  C12 <0> d          -3.960  -0.079   3.361  0.00  0.00     0.032 C 
ENDBRANCH   7   8
ENDBRANCH   2   7
BRANCH   1  16
ATOM     16  C2  <0> d           0.002  -0.004   0.002  0.00  0.00     0.131 C 
ATOM     17  C1  <0> d          -0.019   1.526   0.010  0.00  0.00     0.027 C 
ENDBRANCH   1  16
BRANCH   4  18
ATOM     18  C5  <0> d          -4.449  -1.641  -1.475  0.00  0.00     0.239 C 
BRANCH  18  19
ATOM     19  C6  <0> d          -4.344  -3.116  -1.766  0.00  0.00     0.176 A 
ATOM     20  N5  <0> d          -4.858  -4.068  -1.042  0.00  0.00    -0.109 NA
ATOM     21  O2  <0> d          -4.521  -5.290  -1.683  0.00  0.00    -0.194 OA
ATOM     22  C7  <0> d          -3.805  -4.959  -2.765  0.00  0.00     0.196 A 
ATOM     23  N4  <0> d          -3.704  -3.660  -2.807  0.00  0.00    -0.205 NA
BRANCH  22  24
ATOM     24  C8  <0> d          -3.216  -5.923  -3.763  0.00  0.00     0.255 C 
BRANCH  24  25
ATOM     25  O3  <0> d          -1.899  -6.292  -3.349  0.00  0.00    -0.388 OA
ATOM     26  C9  <0> d          -1.248  -7.209  -4.231  0.00  0.00     0.202 C 
ENDBRANCH  24  25
ENDBRANCH  22  24
ENDBRANCH  18  19
ENDBRANCH   4  18
TORSDOF 7
