REMARK  2 active torsions:
REMARK  status: ('A' for Active; 'I' for Inactive)
REMARK    1  A    between atoms: C4_7  and  C8_14 
REMARK    2  A    between atoms: C6_9  and  C7_11 
ROOT
ATOM      1  C1  <0> d          -0.018   1.503   0.010  0.00  0.00     0.096 C 
ATOM      2  C2  <0> d           0.002  -0.004   0.002  0.00  0.00     0.162 A 
ATOM      3  N1  <0> d           0.008  -0.765  -1.088  0.00  0.00    -0.044 NA
ATOM      4  C3  <0> d           0.025  -2.031  -0.746  0.00  0.00     0.748 A 
ATOM      5  N2  <0> d           0.039  -2.085   0.623  0.00  0.00    -0.086 N 
ATOM      6  N3  <0> d           0.023  -0.769   1.073  0.00  0.00    -0.141 NA
ATOM      7  C4  <0> d           0.076  -3.347   1.363  0.00  0.00     0.168 C 
ATOM      8  C5  <0> d          -0.614  -4.416   0.506  0.00  0.00     0.100 C 
ATOM      9  C6  <0> d          -0.206  -4.296  -0.935  0.00  0.00     0.132 C 
ATOM     10  N4  <0> d           0.053  -3.151  -1.500  0.00  0.00    -0.059 NA
ENDROOT
BRANCH   7  11
ATOM     11  C8  <0> d           1.506  -3.744   1.621  0.00  0.00    -0.031 A 
ATOM     12  C13 <0> d           1.957  -3.895   2.919  0.00  0.00     0.028 A 
ATOM     13  C12 <0> d           3.269  -4.264   3.156  0.00  0.00     0.011 A 
ATOM     14  C11 <0> d           4.131  -4.473   2.095  0.00  0.00     0.019 A 
ATOM     15 Br1  <0> d           3.885  -4.479   4.931  0.00  0.00    -0.051 Br
ATOM     16  C10 <0> d           3.680  -4.317   0.798  0.00  0.00     0.002 A 
ATOM     17  C9  <0> d           2.368  -3.953   0.561  0.00  0.00     0.009 A 
ENDBRANCH   7  11
BRANCH   9  18
ATOM     18  C7  <0> d          -0.095  -5.523  -1.742  0.00  0.00     0.225 C 
ATOM     19  O1  <0> d           0.235  -5.454  -2.918  0.00  0.00    -0.643 OA
ATOM     20  O2  <0> d          -0.332  -6.612  -1.236  0.00  0.00    -0.643 OA
ENDBRANCH   9  18
TORSDOF 2
