REMARK  3 active torsions:
REMARK  status: ('A' for Active; 'I' for Inactive)
REMARK    1  A    between atoms: C2_2  and  C3_3 
REMARK    2  A    between atoms: C4_6  and  C7_10 
REMARK    3  A    between atoms: C12_17  and  C13_21 
ROOT
ATOM      1  C7  <0> d           4.119  -1.060   4.608  0.00  0.00     0.085 C 
ATOM      2  C8  <0> d           4.612  -2.505   4.491  0.00  0.00     0.119 C 
ATOM      3  C9  <0> d           6.105  -2.570   4.350  0.00  0.00     0.224 C 
ATOM      4  O1  <0> d           6.707  -3.448   4.931  0.00  0.00    -0.273 OA
ATOM      5  N3  <0> d           6.804  -1.690   3.603  0.00  0.00    -0.310 N 
ATOM      6  C10 <0> d           6.127  -0.562   3.111  0.00  0.00     0.159 A 
ATOM      7  C11 <0> d           4.835  -0.231   3.573  0.00  0.00     0.029 A 
ATOM      8  C12 <0> d           4.435   0.902   2.922  0.00  0.00     0.078 A 
ATOM      9  N4  <0> d           5.458   1.267   2.090  0.00  0.00    -0.274 N 
ATOM     10  N5  <0> d           6.497   0.334   2.244  0.00  0.00    -0.155 NA
ATOM     11  H3  <0> d           5.464   2.035   1.497  0.00  0.00     0.189 HD
ATOM     12  H14 <0> d           7.744  -1.832   3.411  0.00  0.00     0.170 HD
ENDROOT
BRANCH   1  13
ATOM     13  C4  <0> d           2.633  -1.008   4.362  0.00  0.00     0.042 A 
ATOM     14  N1  <0> d           1.966  -1.525   3.284  0.00  0.00    -0.347 N 
ATOM     15  C3  <0> d           0.654  -1.259   3.461  0.00  0.00     0.081 A 
ATOM     16  H1  <0> d           2.362  -1.995   2.533  0.00  0.00     0.167 HD
ATOM     17  N2  <0> d           0.506  -0.608   4.582  0.00  0.00    -0.348 N 
ATOM     18  C5  <0> d           1.706  -0.444   5.160  0.00  0.00     0.030 A 
ATOM     19  H18 <0> d          -0.338  -0.294   4.942  0.00  0.00     0.167 HD
ATOM     20  C6  <0> d           1.971   0.253   6.470  0.00  0.00     0.070 C 
BRANCH  15  21
ATOM     21  C2  <0> d          -0.456  -1.646   2.518  0.00  0.00     0.072 C 
ATOM     22  C1  <0> d          -0.667  -0.528   1.494  0.00  0.00     0.013 C 
ENDBRANCH  15  21
ENDBRANCH   1  13
BRANCH   8  23
ATOM     23  C13 <0> d           3.147   1.598   3.086  0.00  0.00     0.033 A 
ATOM     24  S1  <0> d           1.542   1.162   2.436  0.00  0.00    -0.100 SA
ATOM     25  C16 <0> d           0.614   2.525   3.121  0.00  0.00     0.050 A 
ATOM     26  C15 <0> d           1.574   3.219   3.785  0.00  0.00     0.008 A 
ATOM     27  C14 <0> d           2.869   2.752   3.772  0.00  0.00     0.021 A 
ENDBRANCH   8  23
TORSDOF 3
