REMARK  2 active torsions:
REMARK  status: ('A' for Active; 'I' for Inactive)
REMARK    1  A    between atoms: C7_7  and  C11_12 
REMARK       I    between atoms: C11_12  and  N2_14 
REMARK    2  A    between atoms: C13_18  and  C14_20 
ROOT
ATOM      1  C1  <0> d          -0.018   1.503   0.010  0.00  0.00     0.068 C 
ATOM      2  C2  <0> d           0.002  -0.004   0.002  0.00  0.00     0.009 A 
ATOM      3  C3  <0> d           0.005  -0.646  -1.184  0.00  0.00     0.080 A 
ATOM      4  C4  <0> d           0.025  -2.060  -1.225  0.00  0.00     0.186 A 
ATOM      5  C5  <0> d           0.041  -2.783   0.059  0.00  0.00     0.042 A 
ATOM      6  C6  <0> d           0.061  -4.174   0.108  0.00  0.00     0.035 A 
ATOM      7  C7  <0> d           0.077  -4.812   1.344  0.00  0.00     0.035 A 
ATOM      8  C8  <0> d           0.072  -4.057   2.525  0.00  0.00     0.019 A 
ATOM      9  C9  <0> d           0.052  -2.695   2.479  0.00  0.00     0.031 A 
ATOM     10  C10 <0> d           0.037  -2.035   1.251  0.00  0.00     0.046 A 
ATOM     11  N1  <0> d           0.022  -0.661   1.187  0.00  0.00    -0.359 N 
ATOM     12  O2  <0> d           0.027  -2.660  -2.287  0.00  0.00    -0.287 OA
ATOM     13  H16 <0> d           0.023  -0.150   2.011  0.00  0.00     0.166 HD
ENDROOT
BRANCH   7  14
ATOM     14  C11 <0> d           0.098  -6.290   1.413  0.00  0.00     0.279 C 
ATOM     15  O1  <0> d           0.101  -6.947   0.387  0.00  0.00    -0.265 OA
ATOM     16  N2  <0> d           0.113  -6.907   2.606  0.00  0.00    -0.181 NA
ATOM     17  C12 <0> d           0.131  -8.227   2.667  0.00  0.00     0.214 A 
ATOM     18  S1  <0> d           0.154  -9.292   4.107  0.00  0.00    -0.059 SA
ATOM     19  N3  <0> d           0.145  -9.145   1.640  0.00  0.00    -0.126 NA
ATOM     20  C13 <0> d           0.170 -10.882   3.172  0.00  0.00     0.203 A 
ATOM     21  N4  <0> d           0.162 -10.345   1.791  0.00  0.00    -0.174 NA
BRANCH  20  22
ATOM     22  C14 <0> d          -1.081 -11.717   3.455  0.00  0.00     0.014 C 
ATOM     23  C15 <0> d          -1.122 -12.913   2.502  0.00  0.00     0.012 C 
ATOM     24  C16 <0> d          -1.044 -12.218   4.900  0.00  0.00     0.012 C 
ENDBRANCH  20  22
ENDBRANCH   7  14
TORSDOF 2
