REMARK  5 active torsions:
REMARK  status: ('A' for Active; 'I' for Inactive)
REMARK    1  A    between atoms: C2_2  and  C3_3 
REMARK    2  A    between atoms: N1_6  and  C8_9 
REMARK    3  A    between atoms: C8_9  and  C9_10 
REMARK    4  A    between atoms: C8_9  and  C10_12 
REMARK    5  A    between atoms: C9_10  and  N2_11 
ROOT
ATOM      1  C8  <0> d          -4.818  -2.689   1.472  0.00  0.00     0.282 C 
ENDROOT
BRANCH   1   2
ATOM      2  N1  <0> d          -3.469  -2.111   1.427  0.00  0.00     0.099 N 
ATOM      3  C5  <0> d          -3.526  -0.644   1.396  0.00  0.00     0.274 C 
ATOM      4  C4  <0> d          -2.110  -0.074   1.497  0.00  0.00     0.039 C 
ATOM      5  C3  <0> d          -1.271  -0.595   0.327  0.00  0.00    -0.041 C 
ATOM      6  C7  <0> d          -1.267  -2.126   0.354  0.00  0.00     0.039 C 
ATOM      7  C16 <0> d          -1.874  -0.109  -0.993  0.00  0.00     0.015 C 
ATOM      8  C6  <0> d          -2.708  -2.636   0.286  0.00  0.00     0.274 C 
BRANCH   5   9
ATOM      9  C2  <0> d           0.163  -0.078   0.455  0.00  0.00     0.005 C 
ATOM     10  C1  <0> d           0.158   1.452   0.428  0.00  0.00     0.006 C 
ENDBRANCH   5   9
ENDBRANCH   1   2
BRANCH   1  11
ATOM     11  C9  <0> d          -4.725  -4.211   1.337  0.00  0.00     0.270 C 
BRANCH  11  12
ATOM     12  N2  <0> d          -3.817  -4.739   2.364  0.00  0.00    -0.077 N 
ATOM     13  H17 <0> d          -4.213  -4.579   3.278  0.00  0.00     0.274 HD
ATOM     14  H18 <0> d          -3.688  -5.729   2.221  0.00  0.00     0.274 HD
ATOM     15  H26 <0> d          -2.926  -4.271   2.297  0.00  0.00     0.274 HD
ENDBRANCH  11  12
ENDBRANCH   1  11
BRANCH   1  16
ATOM     16  C10 <0> d          -5.471  -2.341   2.784  0.00  0.00    -0.006 A 
ATOM     17  C15 <0> d          -6.847  -2.401   2.910  0.00  0.00     0.019 A 
ATOM     18  C14 <0> d          -7.446  -2.085   4.117  0.00  0.00     0.019 A 
ATOM     19 Br1  <0> d          -7.910  -2.922   1.435  0.00  0.00    -0.050 Br
ATOM     20  C13 <0> d          -6.670  -1.699   5.193  0.00  0.00     0.001 A 
ATOM     21  C12 <0> d          -5.295  -1.634   5.065  0.00  0.00     0.001 A 
ATOM     22  C11 <0> d          -4.696  -1.954   3.861  0.00  0.00     0.011 A 
ENDBRANCH   1  16
TORSDOF 5
