REMARK  6 active torsions:
REMARK  status: ('A' for Active; 'I' for Inactive)
REMARK    1  A    between atoms: C3_3  and  C6_8 
REMARK       I    between atoms: C6_8  and  N2_10 
REMARK    2  A    between atoms: C9_13  and  C12_16 
REMARK    3  A    between atoms: C12_16  and  C21_30 
REMARK    4  A    between atoms: N3_19  and  C15_23 
REMARK    5  A    between atoms: C15_23  and  C16_24 
REMARK    6  A    between atoms: C16_24  and  C17_25 
ROOT
ATOM      1  C12 <0> d           1.057  -4.919   4.280  0.00  0.00     0.164 A 
ATOM      2  C13 <0> d           0.838  -4.305   5.648  0.00  0.00     0.263 A 
ATOM      3  O3  <0> d           1.686  -4.007   6.461  0.00  0.00    -0.270 OA
ATOM      4  N3  <0> d          -0.500  -4.161   5.770  0.00  0.00    -0.267 N 
ATOM      5  C14 <0> d          -1.145  -4.596   4.681  0.00  0.00     0.326 A 
ATOM      6  O4  <0> d          -2.354  -4.571   4.557  0.00  0.00    -0.247 OA
ATOM      7  N4  <0> d          -0.306  -5.066   3.740  0.00  0.00    -0.319 N 
ATOM      8  H16 <0> d          -0.551  -5.430   2.875  0.00  0.00     0.166 HD
ENDROOT
BRANCH   1   9
ATOM      9  C9  <0> d           1.888  -3.985   3.398  0.00  0.00     0.033 C 
ATOM     10  C8  <0> d           1.179  -2.634   3.277  0.00  0.00     0.028 C 
ATOM     11  C7  <0> d           2.036  -1.688   2.421  0.00  0.00     0.126 C 
ATOM     12  N2  <0> d           2.311  -2.342   1.135  0.00  0.00    -0.348 N 
ATOM     13  C6  <0> d           2.026  -1.720  -0.026  0.00  0.00     0.258 C 
ATOM     14  C11 <0> d           2.909  -3.684   1.138  0.00  0.00     0.126 C 
ATOM     15  O2  <0> d           2.263  -2.270  -1.085  0.00  0.00    -0.267 OA
ATOM     16  C10 <0> d           2.048  -4.605   2.008  0.00  0.00     0.028 C 
BRANCH  13  17
ATOM     17  C3  <0> d           1.426  -0.374  -0.014  0.00  0.00     0.089 A 
ATOM     18  C2  <0> d           0.002  -0.004   0.002  0.00  0.00     0.076 A 
ATOM     19  C1  <0> d          -1.184  -0.934   0.009  0.00  0.00     0.074 C 
ATOM     20  N1  <0> d          -0.016   1.296   0.009  0.00  0.00    -0.132 NA
ATOM     21  O1  <0> d           1.094   1.769   0.001  0.00  0.00    -0.217 OA
ATOM     22  C4  <0> d           2.058   0.846  -0.013  0.00  0.00     0.092 A 
ATOM     23  C5  <0> d           3.545   1.092  -0.026  0.00  0.00     0.080 C 
ENDBRANCH  13  17
ENDBRANCH   1   9
BRANCH   1  24
ATOM     24  C21 <0> d           1.726  -6.264   4.403  0.00  0.00     0.072 A 
ATOM     25  N5  <0> d           2.914  -6.452   3.864  0.00  0.00    -0.262 NA
ATOM     26  C25 <0> d           3.540  -7.610   3.950  0.00  0.00     0.117 A 
ATOM     27  C24 <0> d           2.960  -8.679   4.606  0.00  0.00     0.019 A 
ATOM     28  C23 <0> d           1.708  -8.521   5.181  0.00  0.00     0.003 A 
ATOM     29  C22 <0> d           1.084  -7.287   5.074  0.00  0.00     0.030 A 
ENDBRANCH   1  24
BRANCH   4  30
ATOM     30  C15 <0> d          -1.163  -3.598   6.949  0.00  0.00     0.142 C 
BRANCH  30  31
ATOM     31  C16 <0> d          -1.481  -4.720   7.939  0.00  0.00     0.066 C 
BRANCH  31  32
ATOM     32  C17 <0> d          -2.163  -4.141   9.152  0.00  0.00    -0.016 A 
ATOM     33  S1  <0> d          -1.437  -3.524  10.662  0.00  0.00    -0.106 SA
ATOM     34  C20 <0> d          -2.946  -3.057  11.494  0.00  0.00     0.050 A 
ATOM     35  C19 <0> d          -3.887  -3.397  10.579  0.00  0.00     0.008 A 
ATOM     36  C18 <0> d          -3.485  -3.947   9.377  0.00  0.00     0.015 A 
ENDBRANCH  31  32
ENDBRANCH  30  31
ENDBRANCH   4  30
TORSDOF 6
