REMARK  5 active torsions:
REMARK  status: ('A' for Active; 'I' for Inactive)
REMARK    1  A    between atoms: C3_3  and  S1_8 
REMARK    2  A    between atoms: S1_8  and  N2_11 
REMARK    3  A    between atoms: N2_11  and  C6_12 
REMARK    4  A    between atoms: C6_12  and  C7_13 
REMARK    5  A    between atoms: C7_13  and  N3_14 
ROOT
ATOM      1  N2  <0> d           1.570  -0.091  -3.285  0.00  0.00    -0.314 N 
ATOM      2  H9  <0> d           1.915   0.789  -3.504  0.00  0.00     0.172 HD
ENDROOT
BRANCH   1   3
ATOM      3  S1  <0> d          -0.008  -0.267  -2.813  0.00  0.00     0.263 S 
ATOM      4  O2  <0> d          -0.547  -1.328  -3.589  0.00  0.00    -0.200 OA
ATOM      5  O3  <0> d          -0.577   1.035  -2.802  0.00  0.00    -0.200 OA
BRANCH   3   6
ATOM      6  C3  <0> d           0.008  -0.824  -1.141  0.00  0.00     0.137 A 
ATOM      7  C2  <0> d           0.002  -0.004   0.002  0.00  0.00     0.084 A 
ATOM      8  C1  <0> d          -0.018   1.503   0.010  0.00  0.00     0.074 C 
ATOM      9  N1  <0> d           0.023  -0.775   1.052  0.00  0.00    -0.132 NA
ATOM     10  O1  <0> d           0.034  -2.119   0.606  0.00  0.00    -0.216 OA
ATOM     11  C4  <0> d           0.027  -2.108  -0.735  0.00  0.00     0.100 A 
ATOM     12  C5  <0> d           0.039  -3.320  -1.631  0.00  0.00     0.081 C 
ENDBRANCH   3   6
ENDBRANCH   1   3
BRANCH   1  13
ATOM     13  C6  <0> d           2.444  -1.263  -3.371  0.00  0.00     0.160 C 
BRANCH  13  14
ATOM     14  C7  <0> d           3.700  -0.905  -4.169  0.00  0.00     0.255 C 
BRANCH  14  15
ATOM     15  N3  <0> d           4.577  -2.080  -4.256  0.00  0.00    -0.069 N 
ATOM     16  C12 <0> d           5.832  -1.705  -4.916  0.00  0.00     0.239 C 
ATOM     17  C11 <0> d           6.781  -2.905  -4.937  0.00  0.00     0.008 C 
ATOM     18  C10 <0> d           6.123  -4.055  -5.704  0.00  0.00     0.011 C 
ATOM     19  C13 <0> d           7.075  -3.350  -3.503  0.00  0.00     0.011 C 
ATOM     20  C9  <0> d           4.779  -4.389  -5.051  0.00  0.00     0.008 C 
ATOM     21  C8  <0> d           3.905  -3.134  -5.026  0.00  0.00     0.239 C 
ATOM     22  C14 <0> d           4.077  -5.485  -5.856  0.00  0.00     0.011 C 
ATOM     23  H26 <0> d           4.775  -2.420  -3.327  0.00  0.00     0.280 HD
ENDBRANCH  14  15
ENDBRANCH  13  14
ENDBRANCH   1  13
TORSDOF 5
