REMARK  4 active torsions:
REMARK  status: ('A' for Active; 'I' for Inactive)
REMARK    1  A    between atoms: C2_2  and  C3_3 
REMARK    2  A    between atoms: C2_2  and  N1_13 
REMARK       I    between atoms: N1_13  and  C11_14 
REMARK    3  A    between atoms: C11_14  and  C12_16 
REMARK    4  A    between atoms: C12_16  and  N2_17 
ROOT
ATOM      1  C1  <0> d          -4.266  -0.838  -1.400  0.00  0.00     0.037 C 
ATOM      2  C2  <0> d          -3.692  -0.803   0.018  0.00  0.00     0.113 C 
ENDROOT
BRANCH   2   3
ATOM      3  C3  <0> d          -2.397  -0.033   0.016  0.00  0.00    -0.033 A 
ATOM      4  C8  <0> d          -1.192  -0.710   0.004  0.00  0.00     0.049 A 
ATOM      5  C7  <0> d           0.002  -0.004   0.002  0.00  0.00     0.102 A 
ATOM      6  C6  <0> d          -0.017   1.385   0.010  0.00  0.00     0.102 A 
ATOM      7  O1  <0> d           1.181  -0.685  -0.007  0.00  0.00    -0.346 OA
ATOM      8  C5  <0> d          -1.229   2.059   0.019  0.00  0.00     0.040 A 
ATOM      9  O2  <0> d           1.143   2.098   0.002  0.00  0.00    -0.346 OA
ATOM     10  C4  <0> d          -2.415   1.349   0.026  0.00  0.00     0.012 A 
ATOM     11  C10 <0> d           2.334   1.392   0.364  0.00  0.00     0.202 C 
ATOM     12  C9  <0> d           2.347   0.053  -0.387  0.00  0.00     0.202 C 
ENDBRANCH   2   3
BRANCH   2  13
ATOM     13  N1  <0> d          -4.647  -0.149   0.915  0.00  0.00    -0.351 N 
ATOM     14  C11 <0> d          -5.643  -0.864   1.476  0.00  0.00     0.236 C 
ATOM     15  O3  <0> d          -5.749  -2.048   1.237  0.00  0.00    -0.272 OA
ATOM     16  H12 <0> d          -4.552   0.925   1.132  0.00  0.00     0.163 HD
BRANCH  14  17
ATOM     17  C12 <0> d          -6.626  -0.191   2.399  0.00  0.00     0.235 C 
BRANCH  17  18
ATOM     18  N2  <0> d          -7.603  -1.175   2.873  0.00  0.00    -0.299 N 
ATOM     19  C16 <0> d          -7.363  -1.871   4.000  0.00  0.00     0.348 A 
ATOM     20  N3  <0> d          -8.240  -2.772   4.450  0.00  0.00    -0.206 NA
ATOM     21  O4  <0> d          -6.331  -1.676   4.619  0.00  0.00    -0.244 OA
ATOM     22  C15 <0> d          -9.363  -3.003   3.802  0.00  0.00     0.123 A 
ATOM     23  C14 <0> d          -9.646  -2.299   2.627  0.00  0.00     0.037 A 
ATOM     24  C13 <0> d          -8.752  -1.379   2.177  0.00  0.00     0.098 A 
ENDBRANCH  17  18
ENDBRANCH  14  17
ENDBRANCH   2  13
TORSDOF 4
