REMARK  3 active torsions:
REMARK  status: ('A' for Active; 'I' for Inactive)
REMARK    1  A    between atoms: C6_6  and  C8_8 
REMARK    2  A    between atoms: C9_11  and  C11_16 
REMARK    3  A    between atoms: C13_18  and  C14_21 
ROOT
ATOM      1  C8  <0> d           0.051  -2.845   2.458  0.00  0.00     0.127 C 
ATOM      2  N1  <0> d           0.045  -2.370   3.669  0.00  0.00    -0.165 NA
ATOM      3  N2  <0> d           0.144  -3.168   4.788  0.00  0.00    -0.253 N 
ATOM      4  C9  <0> d           0.514  -3.190   6.222  0.00  0.00     0.223 C 
ATOM      5  N3  <0> d           1.197  -4.488   6.435  0.00  0.00    -0.232 NA
ATOM      6  N4  <0> d           1.110  -5.222   5.161  0.00  0.00    -0.226 NA
ATOM      7  C10 <0> d          -0.075  -4.624   4.515  0.00  0.00     0.261 C 
ATOM      8  S1  <0> d           0.075  -4.617   2.691  0.00  0.00    -0.064 SA
ATOM      9  H11 <0> d           0.762  -5.008   7.182  0.00  0.00     0.143 HD
ATOM     10  H12 <0> d           0.976  -6.209   5.321  0.00  0.00     0.143 HD
ENDROOT
BRANCH   4  11
ATOM     11  C11 <0> d           1.461  -2.032   6.543  0.00  0.00     0.196 A 
ATOM     12  N6  <0> d           0.757  -0.743   6.446  0.00  0.00    -0.180 NA
ATOM     13  N5  <0> d           0.787  -0.208   7.560  0.00  0.00    -0.154 NA
ATOM     14  C13 <0> d           1.435  -0.929   8.513  0.00  0.00     0.087 A 
ATOM     15  C12 <0> d           1.898  -2.083   7.996  0.00  0.00     0.039 A 
BRANCH  14  16
ATOM     16  C14 <0> d           1.609  -0.504   9.924  0.00  0.00    -0.006 A 
ATOM     17  C19 <0> d           1.089   0.715  10.356  0.00  0.00     0.014 A 
ATOM     18  C18 <0> d           1.249   1.103  11.671  0.00  0.00     0.001 A 
ATOM     19  C17 <0> d           1.933   0.290  12.556  0.00  0.00     0.000 A 
ATOM     20  C16 <0> d           2.455  -0.918  12.132  0.00  0.00     0.001 A 
ATOM     21  C15 <0> d           2.297  -1.319  10.821  0.00  0.00     0.014 A 
ENDBRANCH  14  16
ENDBRANCH   4  11
BRANCH   1  22
ATOM     22  C6  <0> d           0.036  -2.094   1.184  0.00  0.00     0.002 A 
ATOM     23  C5  <0> d           0.039  -2.778  -0.033  0.00  0.00     0.014 A 
ATOM     24  C4  <0> d           0.024  -2.071  -1.217  0.00  0.00     0.001 A 
ATOM     25  C3  <0> d           0.006  -0.688  -1.201  0.00  0.00     0.007 A 
ATOM     26  C2  <0> d           0.002  -0.004   0.002  0.00  0.00    -0.061 A 
ATOM     27  C1  <0> d          -0.018   1.503   0.010  0.00  0.00     0.048 C 
ATOM     28  C7  <0> d           0.023  -0.699   1.194  0.00  0.00     0.021 A 
ENDBRANCH   1  22
TORSDOF 3
