REMARK  7 active torsions:
REMARK  status: ('A' for Active; 'I' for Inactive)
REMARK    1  A    between atoms: C4_4  and  C7_8 
REMARK    2  A    between atoms: C7_8  and  N1_10 
REMARK    3  A    between atoms: N1_10  and  C9_11 
REMARK    4  A    between atoms: C9_11  and  C11_13 
REMARK    5  A    between atoms: C9_11  and  C16_19 
REMARK    6  A    between atoms: C11_13  and  C12_14 
REMARK    7  A    between atoms: C12_14  and  O1_17 
ROOT
ATOM      1  N1  <0> d          -3.124  -2.999  -0.071  0.00  0.00    -0.048 N 
ATOM      2  H12 <0> d          -2.876  -2.483   0.759  0.00  0.00     0.279 HD
ATOM      3  H27 <0> d          -3.704  -2.425  -0.664  0.00  0.00     0.279 HD
ENDROOT
BRANCH   1   4
ATOM      4  C7  <0> d          -1.903  -3.375  -0.797  0.00  0.00     0.217 C 
ATOM      5  C8  <0> d          -2.226  -3.547  -2.283  0.00  0.00     0.045 C 
BRANCH   4   6
ATOM      6  C4  <0> d          -0.867  -2.293  -0.630  0.00  0.00    -0.014 A 
ATOM      7  C3  <0> d          -1.240  -1.016  -0.255  0.00  0.00     0.024 A 
ATOM      8  C2  <0> d          -0.283  -0.067  -0.114  0.00  0.00    -0.020 A 
ATOM      9  C1  <0> d          -0.433   1.380   0.280  0.00  0.00     0.056 C 
ATOM     10  S1  <0> d           1.200  -0.973  -0.522  0.00  0.00    -0.100 SA
ATOM     11  C5  <0> d           0.445  -2.558  -0.845  0.00  0.00    -0.013 A 
ATOM     12  C6  <0> d           1.096  -3.853  -1.256  0.00  0.00     0.057 C 
ENDBRANCH   4   6
ENDBRANCH   1   4
BRANCH   1  13
ATOM     13  C9  <0> d          -3.861  -4.213   0.307  0.00  0.00     0.212 C 
ATOM     14  C10 <0> d          -4.067  -5.091  -0.929  0.00  0.00     0.058 C 
BRANCH  13  15
ATOM     15  C11 <0> d          -5.221  -3.822   0.889  0.00  0.00     0.087 C 
BRANCH  15  16
ATOM     16  C12 <0> d          -5.022  -2.803   2.012  0.00  0.00     0.056 C 
ATOM     17  C13 <0> d          -6.375  -2.468   2.642  0.00  0.00     0.045 C 
ATOM     18  C14 <0> d          -4.095  -3.391   3.077  0.00  0.00     0.045 C 
BRANCH  16  19
ATOM     19  O1  <0> d          -4.438  -1.613   1.477  0.00  0.00    -0.386 OA
ATOM     20  C15 <0> d          -4.209  -0.590   2.449  0.00  0.00     0.202 C 
ENDBRANCH  16  19
ENDBRANCH  15  16
ENDBRANCH  13  15
BRANCH  13  21
ATOM     21  C16 <0> d          -3.073  -4.977   1.340  0.00  0.00     0.210 C 
ATOM     22  O2  <0> d          -1.967  -4.587   1.675  0.00  0.00    -0.646 OA
ATOM     23  O3  <0> d          -3.542  -5.984   1.842  0.00  0.00    -0.646 OA
ENDBRANCH  13  21
ENDBRANCH   1  13
TORSDOF 7
