REMARK  5 active torsions:
REMARK  status: ('A' for Active; 'I' for Inactive)
REMARK    1  A    between atoms: C3_4  and  C5_7 
REMARK    2  A    between atoms: C5_7  and  N3_8 
REMARK    3  A    between atoms: N3_8  and  C7_10 
REMARK    4  A    between atoms: C12_15  and  C13_16 
REMARK    5  A    between atoms: C13_16  and  N4_17 
ROOT
ATOM      1  C7  <0> d           1.944  -3.144  -3.096  0.00  0.00     0.039 A 
ATOM      2  C8  <0> d           2.727  -1.997  -3.099  0.00  0.00     0.049 A 
ATOM      3  C9  <0> d           3.426  -1.643  -4.237  0.00  0.00     0.013 A 
ATOM      4  C10 <0> d           3.347  -2.430  -5.372  0.00  0.00     0.020 A 
ATOM      5  C11 <0> d           2.569  -3.573  -5.371  0.00  0.00     0.012 A 
ATOM      6  C12 <0> d           1.872  -3.935  -4.235  0.00  0.00    -0.006 A 
ATOM      7 Br1  <0> d           4.492  -0.081  -4.243  0.00  0.00    -0.051 Br
ENDROOT
BRANCH   1   8
ATOM      8  N3  <0> d           1.236  -3.505  -1.947  0.00  0.00    -0.380 N 
ATOM      9  C6  <0> d           1.806  -4.477  -1.010  0.00  0.00     0.150 C 
BRANCH   8  10
ATOM     10  C5  <0> d          -0.076  -2.912  -1.679  0.00  0.00     0.164 C 
BRANCH  10  11
ATOM     11  C3  <0> d           0.090  -1.703  -0.795  0.00  0.00    -0.004 A 
ATOM     12  C2  <0> d           0.283  -0.431  -1.214  0.00  0.00     0.122 A 
ATOM     13  N1  <0> d           0.383   0.352  -0.119  0.00  0.00    -0.285 N 
ATOM     14  C1  <0> d           0.596   1.801  -0.112  0.00  0.00     0.179 C 
ATOM     15  N2  <0> d           0.252  -0.467   1.010  0.00  0.00    -0.185 NA
ATOM     16  C4  <0> d           0.071  -1.698   0.604  0.00  0.00     0.149 A 
ENDBRANCH  10  11
ENDBRANCH   8  10
ENDBRANCH   1   8
BRANCH   6  17
ATOM     17  C13 <0> d           1.029  -5.185  -4.234  0.00  0.00     0.270 C 
BRANCH  17  18
ATOM     18  N4  <0> d          -0.383  -4.823  -4.416  0.00  0.00    -0.075 N 
ATOM     19  H16 <0> d          -0.703  -4.300  -3.615  0.00  0.00     0.274 HD
ATOM     20  H17 <0> d          -0.481  -4.259  -5.247  0.00  0.00     0.274 HD
ATOM     21  H18 <0> d          -0.936  -5.662  -4.512  0.00  0.00     0.274 HD
ENDBRANCH  17  18
ENDBRANCH   6  17
TORSDOF 5
