REMARK  3 active torsions:
REMARK  status: ('A' for Active; 'I' for Inactive)
REMARK    1  A    between atoms: C6_7  and  C7_8 
REMARK    2  A    between atoms: C9_12  and  C10_14 
REMARK    3  A    between atoms: C10_14  and  N4_15 
ROOT
ATOM      1  C7  <0> d           0.242   0.013   2.476  0.00  0.00     0.157 A 
ATOM      2  N2  <0> d           0.471  -0.550   3.698  0.00  0.00    -0.347 N 
ATOM      3  H1  <0> d           0.588  -1.494   3.885  0.00  0.00     0.167 HD
ATOM      4  C8  <0> d           0.504   0.470   4.608  0.00  0.00     0.118 A 
ATOM      5  C9  <0> d           0.297   1.616   3.926  0.00  0.00     0.077 A 
ATOM      6  N3  <0> d           0.146   1.315   2.632  0.00  0.00    -0.230 NA
ENDROOT
BRANCH   1   7
ATOM      7  C6  <0> d           0.128  -0.716   1.194  0.00  0.00     0.108 A 
ATOM      8  C2  <0> d          -0.234  -0.028   0.037  0.00  0.00    -0.029 A 
ATOM      9  C1  <0> d          -0.509   1.453   0.082  0.00  0.00     0.050 C 
ATOM     10  C3  <0> d          -0.331  -0.724  -1.156  0.00  0.00     0.011 A 
ATOM     11  C4  <0> d          -0.068  -2.086  -1.152  0.00  0.00     0.020 A 
ATOM     12  C5  <0> d           0.280  -2.707   0.034  0.00  0.00     0.117 A 
ATOM     13  N1  <0> d           0.366  -2.022   1.156  0.00  0.00    -0.257 NA
ENDBRANCH   1   7
BRANCH   5  14
ATOM     14  C10 <0> d           0.251   3.000   4.520  0.00  0.00     0.292 C 
BRANCH  14  15
ATOM     15  N4  <0> d           1.576   3.625   4.409  0.00  0.00    -0.074 N 
ATOM     16  C11 <0> d           1.530   4.974   4.988  0.00  0.00     0.267 C 
ATOM     17  H11 <0> d           2.254   3.068   4.906  0.00  0.00     0.277 HD
ATOM     18  H15 <0> d           1.838   3.685   3.436  0.00  0.00     0.277 HD
ENDBRANCH  14  15
ENDBRANCH   5  14
TORSDOF 3
