REMARK  5 active torsions:
REMARK  status: ('A' for Active; 'I' for Inactive)
REMARK    1  A    between atoms: C2_2  and  N1_3 
REMARK    2  A    between atoms: N1_3  and  C3_4 
REMARK    3  A    between atoms: C3_4  and  C4_5 
REMARK    4  A    between atoms: C5_6  and  N4_13 
REMARK    5  A    between atoms: C12_17  and  O1_19 
ROOT
ATOM      1  C4  <0> d          -2.781  -2.475   0.018  0.00  0.00     0.089 A 
ATOM      2  C5  <0> d          -3.476  -2.869   1.105  0.00  0.00     0.153 A 
ATOM      3  N2  <0> d          -4.681  -3.304   0.699  0.00  0.00    -0.204 NA
ATOM      4  C6  <0> d          -4.758  -3.196  -0.597  0.00  0.00     0.179 A 
ATOM      5  N3  <0> d          -3.596  -2.674  -1.100  0.00  0.00    -0.299 N 
ATOM      6  C7  <0> d          -3.531  -2.494  -2.464  0.00  0.00     0.106 A 
ATOM      7  C8  <0> d          -4.562  -2.816  -3.245  0.00  0.00     0.071 A 
ATOM      8  S1  <0> d          -5.745  -3.432  -2.057  0.00  0.00    -0.062 SA
ENDROOT
BRANCH   2   9
ATOM      9  N4  <0> d          -3.020  -2.829   2.431  0.00  0.00    -0.362 N 
ATOM     10  C13 <0> d          -3.307  -1.671   3.288  0.00  0.00     0.156 C 
ATOM     11  C12 <0> d          -3.970  -2.170   4.580  0.00  0.00     0.136 C 
ATOM     12  C11 <0> d          -3.074  -3.226   5.231  0.00  0.00     0.035 C 
ATOM     13  C10 <0> d          -2.912  -4.416   4.282  0.00  0.00     0.022 C 
ATOM     14  C9  <0> d          -2.241  -3.944   2.988  0.00  0.00     0.124 C 
BRANCH  11  15
ATOM     15  O1  <0> d          -4.146  -1.074   5.479  0.00  0.00    -0.394 OA
ATOM     16  H20 <0> d          -4.557  -1.317   6.320  0.00  0.00     0.210 HD
ENDBRANCH  11  15
ENDBRANCH   2   9
BRANCH   1  17
ATOM     17  C3  <0> d          -1.381  -1.917   0.011  0.00  0.00     0.293 C 
BRANCH  17  18
ATOM     18  N1  <0> d          -1.439  -0.449   0.020  0.00  0.00    -0.070 N 
ATOM     19  H7  <0> d          -1.921  -0.137   0.850  0.00  0.00     0.277 HD
ATOM     20  H21 <0> d          -1.934  -0.127  -0.798  0.00  0.00     0.277 HD
BRANCH  18  21
ATOM     21  C2  <0> d          -0.074   0.095   0.013  0.00  0.00     0.228 C 
ATOM     22  C1  <0> d          -0.135   1.624   0.023  0.00  0.00     0.034 C 
ENDBRANCH  18  21
ENDBRANCH  17  18
ENDBRANCH   1  17
TORSDOF 5
