REMARK  6 active torsions:
REMARK  status: ('A' for Active; 'I' for Inactive)
REMARK    1  A    between atoms: N2_5  and  C6_8 
REMARK    2  A    between atoms: N3_11  and  C11_15 
REMARK    3  A    between atoms: C10_13  and  O1_14 
REMARK    4  A    between atoms: C11_15  and  C12_16 
REMARK    5  A    between atoms: C15_19  and  O2_22 
REMARK    6  A    between atoms: O2_22  and  C18_23 
ROOT
ATOM      1  C6  <0> d          -0.856  -2.673   0.819  0.00  0.00     0.254 C 
ATOM      2  C7  <0> d          -1.457  -1.990  -0.412  0.00  0.00     0.066 C 
ATOM      3  C8  <0> d          -1.432  -0.473  -0.212  0.00  0.00     0.237 C 
ATOM      4  N3  <0> d          -0.048  -0.027  -0.010  0.00  0.00    -0.065 N 
ATOM      5  C9  <0> d           0.535  -0.633   1.194  0.00  0.00     0.269 C 
ATOM      6  C10 <0> d           0.569  -2.155   1.036  0.00  0.00     0.177 C 
ATOM      7  H30 <0> d           0.543  -0.365  -0.874  0.00  0.00     0.280 HD
ENDROOT
BRANCH   4   8
ATOM      8  C11 <0> d           0.031   1.438   0.049  0.00  0.00     0.273 C 
BRANCH   8   9
ATOM      9  C12 <0> d          -0.688   1.931   1.278  0.00  0.00    -0.032 A 
ATOM     10  C17 <0> d           0.001   2.078   2.468  0.00  0.00     0.011 A 
ATOM     11  C16 <0> d          -0.655   2.530   3.596  0.00  0.00     0.038 A 
ATOM     12  C15 <0> d          -2.006   2.837   3.535  0.00  0.00     0.079 A 
ATOM     13  C14 <0> d          -2.696   2.689   2.340  0.00  0.00     0.038 A 
ATOM     14  C13 <0> d          -2.034   2.242   1.213  0.00  0.00     0.011 A 
BRANCH  12  15
ATOM     15  O2  <0> d          -2.654   3.282   4.644  0.00  0.00    -0.277 OA
BRANCH  15  16
ATOM     16  C18 <0> d          -2.348   4.518   5.106  0.00  0.00     0.273 A 
ATOM     17  N5  <0> d          -2.877   4.930   6.247  0.00  0.00    -0.219 NA
ATOM     18  C21 <0> d          -2.599   6.130   6.727  0.00  0.00     0.122 A 
ATOM     19  C20 <0> d          -1.742   6.959   6.020  0.00  0.00     0.039 A 
ATOM     20  C19 <0> d          -1.206   6.495   4.829  0.00  0.00     0.122 A 
ATOM     21  N4  <0> d          -1.522   5.281   4.409  0.00  0.00    -0.219 NA
ENDBRANCH  15  16
ENDBRANCH  12  15
ENDBRANCH   8   9
ENDBRANCH   4   8
BRANCH   6  22
ATOM     22  O1  <0> d           1.117  -2.747   2.215  0.00  0.00    -0.392 OA
ATOM     23  H20 <0> d           2.139  -2.493   2.534  0.00  0.00     0.210 HD
ENDBRANCH   6  22
BRANCH   1  24
ATOM     24  N2  <0> d          -0.824  -4.126   0.608  0.00  0.00     0.099 N 
ATOM     25  C3  <0> d          -2.184  -4.674   0.507  0.00  0.00     0.300 C 
ATOM     26  C2  <0> d          -2.109  -6.196   0.368  0.00  0.00     0.264 C 
ATOM     27  N1  <0> d          -1.317  -6.538  -0.822  0.00  0.00    -0.072 N 
ATOM     28  C1  <0> d          -1.284  -7.991  -1.033  0.00  0.00     0.269 C 
ATOM     29  C5  <0> d           0.043  -5.990  -0.721  0.00  0.00     0.264 C 
ATOM     30  H31 <0> d          -1.803  -6.081  -1.697  0.00  0.00     0.279 HD
ATOM     31  C4  <0> d          -0.032  -4.468  -0.582  0.00  0.00     0.300 C 
ENDBRANCH   1  24
TORSDOF 6
