REMARK  4 active torsions:
REMARK  status: ('A' for Active; 'I' for Inactive)
REMARK    1  A    between atoms: C2_4  and  C8_11 
REMARK    2  A    between atoms: N3_5  and  C3_6 
REMARK    3  A    between atoms: C8_11  and  C9_12 
REMARK    4  A    between atoms: C8_11  and  N4_18 
ROOT
ATOM      1  C8  <0> d           1.851  -1.767  -0.025  0.00  0.00     0.258 C 
ENDROOT
BRANCH   1   2
ATOM      2  C2  <0> d           1.309  -0.361  -0.012  0.00  0.00     0.161 A 
ATOM      3  N2  <0> d           2.012   0.739  -0.013  0.00  0.00    -0.133 NA
ATOM      4  N1  <0> d           1.224   1.756  -0.000  0.00  0.00    -0.143 NA
ATOM      5  C1  <0> d          -0.016   1.351   0.009  0.00  0.00     0.236 A 
ATOM      6  N3  <0> d           0.002  -0.004   0.002  0.00  0.00    -0.320 N 
BRANCH   6   7
ATOM      7  C3  <0> d          -1.156  -0.901   0.009  0.00  0.00     0.092 C 
ATOM      8  C7  <0> d          -2.003  -0.659   1.270  0.00  0.00     0.026 C 
ATOM      9  C6  <0> d          -3.399  -0.216   0.785  0.00  0.00     0.002 C 
ATOM     10  C5  <0> d          -3.502  -0.790  -0.650  0.00  0.00     0.002 C 
ATOM     11  C4  <0> d          -2.067  -0.597  -1.199  0.00  0.00     0.026 C 
ENDBRANCH   6   7
ENDBRANCH   1   2
BRANCH   1  12
ATOM     12  C9  <0> d           2.370  -2.101  -1.425  0.00  0.00     0.024 C 
ATOM     13  C14 <0> d           2.806  -3.567  -1.472  0.00  0.00     0.007 C 
ATOM     14  C13 <0> d           3.325  -3.900  -2.872  0.00  0.00     0.000 C 
ATOM     15  C12 <0> d           4.519  -3.003  -3.200  0.00  0.00     0.000 C 
ATOM     16  C11 <0> d           4.084  -1.537  -3.154  0.00  0.00     0.000 C 
ATOM     17  C10 <0> d           3.565  -1.203  -1.754  0.00  0.00     0.007 C 
ENDBRANCH   1  12
BRANCH   1  18
ATOM     18  N4  <0> d           2.950  -1.877   0.944  0.00  0.00    -0.068 N 
ATOM     19  H23 <0> d           3.684  -1.231   0.694  0.00  0.00     0.275 HD
ATOM     20  H24 <0> d           2.608  -1.657   1.867  0.00  0.00     0.275 HD
ATOM     21  H25 <0> d           3.313  -2.818   0.935  0.00  0.00     0.275 HD
ENDBRANCH   1  18
TORSDOF 4
