REMARK  4 active torsions:
REMARK  status: ('A' for Active; 'I' for Inactive)
REMARK    1  A    between atoms: C3_3  and  C5_6 
REMARK    2  A    between atoms: N1_13  and  N3_16 
REMARK       I    between atoms: N3_16  and  C11_17 
REMARK    3  A    between atoms: C11_17  and  C12_19 
REMARK    4  A    between atoms: N4_23  and  C16_25 
ROOT
ATOM      1  C5  <0> d           1.422   3.506   0.007  0.00  0.00     0.006 A 
ATOM      2  C6  <0> d           0.788   4.317  -0.877  0.00  0.00     0.065 A 
ATOM      3  S2  <0> d           1.411   5.937  -0.469  0.00  0.00    -0.080 SA
ATOM      4  C7  <0> d           2.496   5.493   0.863  0.00  0.00     0.115 A 
ATOM      5  C8  <0> d           2.346   4.101   0.966  0.00  0.00     0.082 A 
ATOM      6  C9  <0> d           3.131   3.466   1.980  0.00  0.00     0.281 A 
ATOM      7  O1  <0> d           3.072   2.259   2.143  0.00  0.00    -0.265 OA
ATOM      8  N1  <0> d           3.929   4.222   2.756  0.00  0.00    -0.211 N 
ATOM      9  C10 <0> d           4.006   5.567   2.589  0.00  0.00     0.237 A 
ATOM     10  N2  <0> d           3.307   6.175   1.668  0.00  0.00    -0.234 NA
ENDROOT
BRANCH   8  11
ATOM     11  N3  <0> d           4.696   3.609   3.756  0.00  0.00    -0.259 N 
ATOM     12  C11 <0> d           4.333   3.723   5.049  0.00  0.00     0.242 C 
ATOM     13  O2  <0> d           3.342   4.356   5.347  0.00  0.00    -0.271 OA
ATOM     14  H7  <0> d           5.594   3.035   3.485  0.00  0.00     0.190 HD
BRANCH  12  15
ATOM     15  C12 <0> d           5.158   3.064   6.124  0.00  0.00     0.106 C 
ATOM     16  C15 <0> d           4.514   3.262   7.514  0.00  0.00     0.141 C 
ATOM     17  N4  <0> d           3.666   2.081   7.724  0.00  0.00    -0.347 N 
ATOM     18  C14 <0> d           3.993   1.089   6.879  0.00  0.00     0.221 C 
ATOM     19  C13 <0> d           5.128   1.525   5.978  0.00  0.00     0.118 C 
ATOM     20  O3  <0> d           3.457   0.001   6.844  0.00  0.00    -0.273 OA
BRANCH  17  21
ATOM     21  C16 <0> d           2.601   1.996   8.726  0.00  0.00     0.087 A 
ATOM     22  C18 <0> d           1.179   1.735   8.225  0.00  0.00     0.027 A 
ATOM     23  C17 <0> d           1.950   0.630   8.951  0.00  0.00     0.027 A 
ENDBRANCH  17  21
ENDBRANCH  12  15
ENDBRANCH   8  11
BRANCH   1  24
ATOM     24  C3  <0> d           1.175   2.049   0.002  0.00  0.00     0.016 A 
ATOM     25  C2  <0> d          -0.017   1.375   0.010  0.00  0.00     0.020 A 
ATOM     26  C1  <0> d           0.002  -0.004   0.002  0.00  0.00     0.008 A 
ATOM     27  C4  <0> d           1.196  -0.649  -0.013  0.00  0.00     0.050 A 
ATOM     28  S1  <0> d           2.355   0.708  -0.017  0.00  0.00    -0.101 SA
ENDBRANCH   1  24
TORSDOF 4
