REMARK  7 active torsions:
REMARK  status: ('A' for Active; 'I' for Inactive)
REMARK    1  A    between atoms: C2_2  and  C3_3 
REMARK    2  A    between atoms: C2_2  and  N2_13 
REMARK    3  A    between atoms: C6_6  and  S1_9 
REMARK    4  A    between atoms: S1_9  and  N1_12 
REMARK    5  A    between atoms: N2_13  and  C10_15 
REMARK    6  A    between atoms: C10_15  and  C11_16 
REMARK       I    between atoms: C11_16  and  N3_18 
REMARK    7  A    between atoms: N3_18  and  C12_19 
ROOT
ATOM      1  N2  <0> d          -3.476   4.365   4.618  0.00  0.00    -0.059 N 
ATOM      2  C9  <0> d          -2.289   5.220   4.486  0.00  0.00     0.271 C 
ATOM      3  H21 <0> d          -4.042   4.425   3.676  0.00  0.00     0.280 HD
ENDROOT
BRANCH   1   4
ATOM      4  C2  <0> d          -3.095   2.962   4.828  0.00  0.00     0.217 C 
ATOM      5  C1  <0> d          -2.091   2.541   3.753  0.00  0.00     0.045 C 
BRANCH   4   6
ATOM      6  C3  <0> d          -4.320   2.090   4.740  0.00  0.00    -0.028 A 
ATOM      7  C8  <0> d          -5.325   2.398   3.843  0.00  0.00     0.011 A 
ATOM      8  C7  <0> d          -6.447   1.594   3.758  0.00  0.00     0.025 A 
ATOM      9  C6  <0> d          -6.568   0.488   4.578  0.00  0.00     0.074 A 
ATOM     10  C5  <0> d          -5.563   0.180   5.475  0.00  0.00     0.025 A 
ATOM     11  C4  <0> d          -4.439   0.980   5.556  0.00  0.00     0.011 A 
BRANCH   9  12
ATOM     12  S1  <0> d          -8.000  -0.533   4.475  0.00  0.00     0.239 S 
ATOM     13  O1  <0> d          -7.622  -1.814   4.959  0.00  0.00    -0.206 OA
ATOM     14  O2  <0> d          -8.544  -0.339   3.176  0.00  0.00    -0.206 OA
BRANCH  12  15
ATOM     15  N1  <0> d          -9.109   0.069   5.547  0.00  0.00    -0.225 NA
ATOM     16  H9  <0> d         -10.022  -0.543   5.513  0.00  0.00     0.136 HD
ATOM     17  H10 <0> d          -9.354   1.107   5.278  0.00  0.00     0.136 HD
ENDBRANCH  12  15
ENDBRANCH   9  12
ENDBRANCH   4   6
ENDBRANCH   1   4
BRANCH   1  18
ATOM     18  C10 <0> d          -4.349   4.840   5.700  0.00  0.00     0.337 C 
BRANCH  18  19
ATOM     19  C11 <0> d          -4.916   6.188   5.332  0.00  0.00     0.248 C 
ATOM     20  O3  <0> d          -4.622   6.701   4.274  0.00  0.00    -0.271 OA
ATOM     21  N3  <0> d          -5.750   6.822   6.180  0.00  0.00    -0.325 N 
ATOM     22  H16 <0> d          -6.071   6.327   7.109  0.00  0.00     0.169 HD
BRANCH  21  23
ATOM     23  C12 <0> d          -6.208   8.109   5.879  0.00  0.00     0.051 A 
ATOM     24  C17 <0> d          -6.416   9.030   6.898  0.00  0.00     0.033 A 
ATOM     25  C16 <0> d          -6.868  10.301   6.598  0.00  0.00     0.020 A 
ATOM     26  I1  <0> d          -6.044   8.493   8.889  0.00  0.00    -0.042 I 
ATOM     27  C15 <0> d          -7.113  10.656   5.284  0.00  0.00     0.001 A 
ATOM     28  C14 <0> d          -6.907   9.741   4.267  0.00  0.00     0.002 A 
ATOM     29  C13 <0> d          -6.450   8.471   4.561  0.00  0.00     0.031 A 
ENDBRANCH  21  23
ENDBRANCH  18  19
ENDBRANCH   1  18
TORSDOF 7
