REMARK  4 active torsions:
REMARK  status: ('A' for Active; 'I' for Inactive)
REMARK    1  A    between atoms: C2_2  and  N1_3 
REMARK       I    between atoms: N1_3  and  C3_4 
REMARK    2  A    between atoms: C3_4  and  C4_6 
REMARK       I    between atoms: C4_6  and  N2_8 
REMARK    3  A    between atoms: N2_8  and  C5_9 
REMARK    4  A    between atoms: C10_14  and  S1_15 
ROOT
ATOM      1  C4  <0> d          -0.144  -0.009   0.579  0.00  0.00     0.314 C 
ATOM      2  O2  <0> d           0.778  -0.606   1.094  0.00  0.00    -0.262 OA
ATOM      3  N2  <0> d          -1.156  -0.694   0.009  0.00  0.00    -0.318 N 
ATOM      4  H7  <0> d          -1.931  -0.220  -0.331  0.00  0.00     0.169 HD
ENDROOT
BRANCH   3   5
ATOM      5  C5  <0> d          -1.087  -2.087  -0.092  0.00  0.00     0.052 A 
ATOM      6  C10 <0> d          -2.259  -2.841  -0.185  0.00  0.00     0.026 A 
ATOM      7  C9  <0> d          -2.183  -4.223  -0.285  0.00  0.00     0.021 A 
ATOM      8  C8  <0> d          -0.951  -4.849  -0.293  0.00  0.00     0.002 A 
ATOM      9  C7  <0> d           0.210  -4.101  -0.201  0.00  0.00     0.002 A 
ATOM     10  C6  <0> d           0.145  -2.724  -0.105  0.00  0.00     0.031 A 
BRANCH   6  11
ATOM     11  S1  <0> d          -3.828  -2.040  -0.176  0.00  0.00    -0.132 SA
ATOM     12  C11 <0> d          -5.017  -3.403  -0.315  0.00  0.00     0.095 C 
ENDBRANCH   6  11
ENDBRANCH   3   5
BRANCH   1  13
ATOM     13  C3  <0> d          -0.159   1.484   0.577  0.00  0.00     0.309 C 
ATOM     14  N1  <0> d           0.852   2.169   1.147  0.00  0.00    -0.353 N 
ATOM     15  H6  <0> d           1.590   1.692   1.558  0.00  0.00     0.162 HD
ATOM     16  O1  <0> d          -1.079   2.081   0.058  0.00  0.00    -0.262 OA
BRANCH  14  17
ATOM     17  C2  <0> d           0.838   3.634   1.144  0.00  0.00     0.118 C 
ATOM     18  C1  <0> d           2.091   4.157   1.849  0.00  0.00     0.026 C 
ENDBRANCH  14  17
ENDBRANCH   1  13
TORSDOF 4
