REMARK  7 active torsions:
REMARK  status: ('A' for Active; 'I' for Inactive)
REMARK    1  A    between atoms: C2_2  and  C3_3 
REMARK    2  A    between atoms: C2_2  and  S1_15 
REMARK       I    between atoms: C3_3  and  N1_5 
REMARK    3  A    between atoms: N1_5  and  C4_6 
REMARK    4  A    between atoms: C9_11  and  C10_12 
REMARK    5  A    between atoms: S1_15  and  C13_16 
REMARK    6  A    between atoms: C14_19  and  C15_22 
REMARK    7  A    between atoms: N4_20  and  N5_21 
ROOT
ATOM      1  C1  <0> d           0.001   1.510   0.003  0.00  0.00     0.031 C 
ATOM      2  C2  <0> d           0.009  -0.020  -0.002  0.00  0.00     0.143 C 
ENDROOT
BRANCH   2   3
ATOM      3  C3  <0> d          -1.409  -0.530   0.011  0.00  0.00     0.236 C 
ATOM      4  O1  <0> d          -1.938  -0.825   1.062  0.00  0.00    -0.272 OA
ATOM      5  N1  <0> d          -2.089  -0.659  -1.146  0.00  0.00    -0.326 N 
ATOM      6  H5  <0> d          -1.696  -0.349  -1.977  0.00  0.00     0.169 HD
BRANCH   5   7
ATOM      7  C4  <0> d          -3.363  -1.240  -1.147  0.00  0.00     0.041 A 
ATOM      8  C9  <0> d          -4.268  -0.927  -2.153  0.00  0.00    -0.028 A 
ATOM      9  C8  <0> d          -5.522  -1.507  -2.155  0.00  0.00     0.010 A 
ATOM     10  C7  <0> d          -5.880  -2.388  -1.151  0.00  0.00     0.001 A 
ATOM     11  C6  <0> d          -4.982  -2.696  -0.145  0.00  0.00     0.002 A 
ATOM     12  C5  <0> d          -3.725  -2.125  -0.141  0.00  0.00     0.030 A 
BRANCH   8  13
ATOM     13  C10 <0> d          -3.881   0.038  -3.244  0.00  0.00     0.013 C 
ATOM     14  C11 <0> d          -4.084  -0.626  -4.607  0.00  0.00     0.015 C 
ATOM     15  C12 <0> d          -4.755   1.290  -3.150  0.00  0.00     0.015 C 
ENDBRANCH   8  13
ENDBRANCH   5   7
ENDBRANCH   2   3
BRANCH   2  16
ATOM     16  S1  <0> d           0.882  -0.625   1.469  0.00  0.00    -0.075 SA
BRANCH  16  17
ATOM     17  C13 <0> d           2.540  -0.076   1.236  0.00  0.00     0.207 A 
ATOM     18  N4  <0> d           3.591  -0.287   2.084  0.00  0.00    -0.235 N 
ATOM     19  C14 <0> d           4.676   0.316   1.489  0.00  0.00     0.186 A 
ATOM     20  N3  <0> d           4.251   0.848   0.364  0.00  0.00    -0.127 NA
ATOM     21  N2  <0> d           2.995   0.617   0.216  0.00  0.00    -0.121 NA
BRANCH  18  22
ATOM     22  N5  <0> d           3.569  -0.959   3.274  0.00  0.00    -0.239 NA
ATOM     23  H17 <0> d           3.766  -1.939   3.139  0.00  0.00     0.143 HD
ATOM     24  H18 <0> d           4.214  -0.548   3.933  0.00  0.00     0.143 HD
ENDBRANCH  18  22
BRANCH  19  25
ATOM     25  C15 <0> d           6.050   0.363   2.014  0.00  0.00     0.054 A 
ATOM     26  S2  <0> d           6.791  -0.611   3.314  0.00  0.00    -0.098 SA
ATOM     27  C18 <0> d           8.425   0.104   3.266  0.00  0.00     0.050 A 
ATOM     28  C17 <0> d           8.302   1.032   2.281  0.00  0.00     0.009 A 
ATOM     29  C16 <0> d           7.093   1.170   1.637  0.00  0.00     0.023 A 
ENDBRANCH  19  25
ENDBRANCH  16  17
ENDBRANCH   2  16
TORSDOF 7
