REMARK  5 active torsions:
REMARK  status: ('A' for Active; 'I' for Inactive)
REMARK    1  A    between atoms: C4_4  and  C9_14 
REMARK    2  A    between atoms: N1_6  and  C6_7 
REMARK    3  A    between atoms: C11_17  and  N6_19 
REMARK    4  A    between atoms: N6_19  and  C12_20 
REMARK    5  A    between atoms: C12_20  and  C13_21 
ROOT
ATOM      1  C1  <0> d          -0.019   1.526   0.010  0.00  0.00     0.037 C 
ATOM      2  C2  <0> d           0.002  -0.004   0.002  0.00  0.00     0.122 A 
ATOM      3  C3  <0> d           0.765  -0.513   1.197  0.00  0.00     0.010 A 
ATOM      4  C4  <0> d           1.805  -1.223   0.796  0.00  0.00    -0.010 A 
ATOM      5  C5  <0> d           1.846  -1.264  -0.709  0.00  0.00     0.134 A 
ATOM      6  N1  <0> d           0.695  -0.488  -1.200  0.00  0.00    -0.198 N 
ATOM      7  C8  <0> d           1.743  -2.712  -1.193  0.00  0.00     0.038 C 
ENDROOT
BRANCH   4   8
ATOM      8  C9  <0> d           2.781  -1.878   1.690  0.00  0.00     0.049 A 
ATOM      9  N5  <0> d           2.399  -2.872   2.492  0.00  0.00    -0.336 N 
ATOM     10  C11 <0> d           3.260  -3.470   3.293  0.00  0.00     0.145 A 
ATOM     11  H19 <0> d           1.474  -3.162   2.484  0.00  0.00     0.168 HD
ATOM     12  S1  <0> d           4.767  -2.580   2.932  0.00  0.00    -0.064 SA
ATOM     13  C10 <0> d           4.086  -1.469   1.708  0.00  0.00     0.083 A 
BRANCH  10  14
ATOM     14  N6  <0> d           3.050  -4.511   4.183  0.00  0.00    -0.367 N 
ATOM     15  H13 <0> d           2.166  -4.901   4.273  0.00  0.00     0.161 HD
BRANCH  14  16
ATOM     16  C12 <0> d           4.162  -5.023   4.987  0.00  0.00     0.148 C 
BRANCH  16  17
ATOM     17  C13 <0> d           3.672  -6.145   5.867  0.00  0.00    -0.018 C 
ATOM     18  C14 <0> d           4.259  -7.315   5.825  0.00  0.00     0.008 C 
ENDBRANCH  16  17
ENDBRANCH  14  16
ENDBRANCH  10  14
ENDBRANCH   4   8
BRANCH   6  19
ATOM     19  C6  <0> d           0.339  -0.260  -2.517  0.00  0.00     0.721 A 
ATOM     20  N2  <0> d           0.974  -0.704  -3.580  0.00  0.00    -0.055 NA
ATOM     21  C7  <0> d           0.349  -0.291  -4.683  0.00  0.00     0.275 A 
ATOM     22  N3  <0> d          -0.691   0.421  -4.344  0.00  0.00    -0.152 NA
ATOM     23  N4  <0> d          -0.726   0.454  -2.940  0.00  0.00    -0.106 N 
ATOM     24  H3  <0> d          -1.384   0.901  -2.385  0.00  0.00     0.208 HD
ENDBRANCH   6  19
TORSDOF 5
