REMARK  4 active torsions:
REMARK  status: ('A' for Active; 'I' for Inactive)
REMARK    1  A    between atoms: C3_5  and  C13_19 
REMARK    2  A    between atoms: C4_6  and  O4_18 
REMARK    3  A    between atoms: N2_7  and  C6_10 
REMARK    4  A    between atoms: C9_13  and  O3_16 
ROOT
ATOM      1  C1  <0> d          -0.013   1.465  -0.021  0.00  0.00     0.164 C 
ATOM      2  N1  <0> d           0.006   0.000  -0.013  0.00  0.00    -0.274 N 
ATOM      3  C2  <0> d          -1.157  -0.677   0.004  0.00  0.00     0.238 C 
ATOM      4  O1  <0> d          -2.209  -0.079  -0.069  0.00  0.00    -0.272 OA
ATOM      5  C3  <0> d          -1.151  -2.181   0.113  0.00  0.00     0.166 C 
ATOM      6  C4  <0> d           0.068  -2.735  -0.628  0.00  0.00     0.245 C 
ATOM      7  N2  <0> d           1.258  -1.968  -0.254  0.00  0.00    -0.272 N 
ATOM      8  C5  <0> d           1.183  -0.647  -0.027  0.00  0.00     0.333 C 
ATOM      9  O2  <0> d           2.206  -0.022   0.175  0.00  0.00    -0.246 OA
ENDROOT
BRANCH   5  10
ATOM     10  C13 <0> d          -1.083  -2.587   1.587  0.00  0.00     0.287 C 
ATOM     11  N4  <0> d           0.078  -1.943   2.223  0.00  0.00     0.095 N 
ATOM     12  C23 <0> d           0.064  -2.134   3.681  0.00  0.00     0.275 C 
ATOM     13  H24 <0> d           0.942  -2.275   1.820  0.00  0.00     0.316 HD
ATOM     14  C22 <0> d          -1.060  -1.291   4.300  0.00  0.00     0.071 C 
ATOM     15  C15 <0> d          -2.322  -1.550   3.516  0.00  0.00    -0.019 A 
ATOM     16  C14 <0> d          -2.336  -2.134   2.296  0.00  0.00     0.051 A 
ATOM     17  C16 <0> d          -3.694  -1.256   3.866  0.00  0.00    -0.001 A 
ATOM     18  N3  <0> d          -3.625  -2.233   1.847  0.00  0.00    -0.357 N 
ATOM     19  H4  <0> d          -3.891  -2.618   0.997  0.00  0.00     0.166 HD
ATOM     20  C21 <0> d          -4.480  -1.709   2.774  0.00  0.00     0.043 A 
ATOM     21  C20 <0> d          -5.866  -1.573   2.794  0.00  0.00     0.030 A 
ATOM     22  C19 <0> d          -6.422  -0.983   3.916  0.00  0.00     0.002 A 
ATOM     23  C18 <0> d          -5.651  -0.543   4.979  0.00  0.00     0.001 A 
ATOM     24  C17 <0> d          -4.283  -0.664   4.987  0.00  0.00     0.014 A 
ENDBRANCH   5  10
BRANCH   6  25
ATOM     25  O4  <0> d          -0.142  -2.628  -2.038  0.00  0.00    -0.375 OA
ATOM     26  H15 <0> d           0.592  -2.961  -2.571  0.00  0.00     0.212 HD
ENDBRANCH   6  25
BRANCH   7  27
ATOM     27  C6  <0> d           2.492  -2.621  -0.136  0.00  0.00     0.041 A 
ATOM     28  C11 <0> d           3.534  -2.297  -0.994  0.00  0.00     0.032 A 
ATOM     29  C10 <0> d           4.752  -2.938  -0.874  0.00  0.00     0.039 A 
ATOM     30  C9  <0> d           4.930  -3.912   0.097  0.00  0.00     0.068 A 
ATOM     31  C8  <0> d           3.888  -4.239   0.952  0.00  0.00     0.039 A 
ATOM     32  C7  <0> d           2.671  -3.596   0.836  0.00  0.00     0.032 A 
BRANCH  30  33
ATOM     33  O3  <0> d           6.128  -4.546   0.212  0.00  0.00    -0.356 OA
ATOM     34  C12 <0> d           7.157  -4.158  -0.701  0.00  0.00     0.210 C 
ENDBRANCH  30  33
ENDBRANCH   7  27
TORSDOF 4
