REMARK  5 active torsions:
REMARK  status: ('A' for Active; 'I' for Inactive)
REMARK    1  A    between atoms: C4_4  and  C7_8 
REMARK    2  A    between atoms: C7_8  and  N1_10 
REMARK       I    between atoms: N1_10  and  C9_11 
REMARK    3  A    between atoms: C9_11  and  C10_13 
REMARK       I    between atoms: C10_13  and  N2_15 
REMARK    4  A    between atoms: N2_15  and  C11_16 
REMARK    5  A    between atoms: C14_19  and  C17_22 
ROOT
ATOM      1  N1  <0> d          -2.752  -3.099  -0.584  0.00  0.00    -0.345 N 
ATOM      2  C9  <0> d          -3.471  -4.085  -1.156  0.00  0.00     0.310 C 
ATOM      3  O2  <0> d          -3.025  -5.213  -1.202  0.00  0.00    -0.262 OA
ATOM      4  H12 <0> d          -3.109  -2.197  -0.548  0.00  0.00     0.163 HD
ENDROOT
BRANCH   2   5
ATOM      5  C10 <0> d          -4.816  -3.790  -1.736  0.00  0.00     0.314 C 
ATOM      6  O3  <0> d          -5.261  -2.662  -1.691  0.00  0.00    -0.262 OA
ATOM      7  N2  <0> d          -5.534  -4.776  -2.308  0.00  0.00    -0.319 N 
ATOM      8  H13 <0> d          -5.151  -5.662  -2.404  0.00  0.00     0.169 HD
BRANCH   7   9
ATOM      9  C11 <0> d          -6.825  -4.523  -2.762  0.00  0.00     0.035 A 
ATOM     10  C16 <0> d          -7.801  -5.511  -2.665  0.00  0.00     0.030 A 
ATOM     11  C15 <0> d          -9.071  -5.265  -3.104  0.00  0.00     0.017 A 
ATOM     12  C14 <0> d          -9.387  -4.021  -3.663  0.00  0.00     0.009 A 
ATOM     13  C13 <0> d          -8.401  -3.032  -3.765  0.00  0.00     0.017 A 
ATOM     14  C12 <0> d          -7.135  -3.285  -3.318  0.00  0.00     0.030 A 
BRANCH  12  15
ATOM     15  C17 <0> d         -10.750  -3.754  -4.142  0.00  0.00     0.155 C 
ATOM     16  O4  <0> d         -11.000  -2.711  -4.709  0.00  0.00    -0.293 OA
ATOM     17  C18 <0> d         -11.838  -4.775  -3.928  0.00  0.00     0.096 C 
ENDBRANCH  12  15
ENDBRANCH   7   9
ENDBRANCH   2   5
BRANCH   1  18
ATOM     18  C7  <0> d          -1.433  -3.389  -0.016  0.00  0.00     0.116 C 
ATOM     19  C8  <0> d          -1.597  -3.902   1.416  0.00  0.00     0.037 C 
BRANCH  18  20
ATOM     20  C4  <0> d          -0.603  -2.131  -0.007  0.00  0.00    -0.004 A 
ATOM     21  C3  <0> d          -1.086  -0.802   0.015  0.00  0.00     0.044 A 
ATOM     22  C2  <0> d          -0.010   0.004   0.015  0.00  0.00     0.050 A 
ATOM     23  C1  <0> d          -0.037   1.511   0.035  0.00  0.00     0.076 C 
ATOM     24  O1  <0> d           1.094  -0.761  -0.011  0.00  0.00    -0.320 OA
ATOM     25  C5  <0> d           0.740  -2.057  -0.019  0.00  0.00     0.058 A 
ATOM     26  C6  <0> d           1.687  -3.229  -0.042  0.00  0.00     0.077 C 
ENDBRANCH  18  20
ENDBRANCH   1  18
TORSDOF 5
