REMARK  3 active torsions:
REMARK  status: ('A' for Active; 'I' for Inactive)
REMARK    1  A    between atoms: C4_4  and  C9_10 
REMARK    2  A    between atoms: C7_7  and  O1_8 
REMARK    3  A    between atoms: C12_15  and  N2_19 
ROOT
ATOM      1  C9  <0> d           0.028  -2.817  -2.485  0.00  0.00     0.108 A 
ATOM      2  N1  <0> d           0.021  -2.348  -3.722  0.00  0.00    -0.244 NA
ATOM      3  C10 <0> d           0.026  -3.143  -4.785  0.00  0.00     0.051 A 
ATOM      4  C11 <0> d           0.039  -4.486  -4.556  0.00  0.00     0.040 A 
ATOM      5  S1  <0> d           0.051  -4.581  -2.784  0.00  0.00    -0.070 SA
ATOM      6  C12 <0> d           0.049  -5.588  -5.560  0.00  0.00     0.225 C 
ATOM      7  C13 <0> d           0.407  -4.989  -6.929  0.00  0.00     0.038 C 
ATOM      8  C14 <0> d          -0.443  -3.734  -7.152  0.00  0.00     0.008 C 
ATOM      9  C15 <0> d           0.016  -2.615  -6.217  0.00  0.00     0.060 C 
ENDROOT
BRANCH   1  10
ATOM     10  C4  <0> d           0.025  -2.082  -1.203  0.00  0.00     0.001 A 
ATOM     11  C3  <0> d           0.006  -0.686  -1.196  0.00  0.00     0.024 A 
ATOM     12  C2  <0> d           0.002  -0.004   0.002  0.00  0.00    -0.027 A 
ATOM     13  C1  <0> d          -0.018   1.503   0.010  0.00  0.00     0.051 C 
ATOM     14  C7  <0> d           0.023  -0.704   1.201  0.00  0.00     0.077 A 
ATOM     15  C6  <0> d           0.036  -2.093   1.199  0.00  0.00    -0.027 A 
ATOM     16  C5  <0> d           0.040  -2.782   0.005  0.00  0.00     0.024 A 
ATOM     17  C8  <0> d           0.052  -2.847   2.503  0.00  0.00     0.051 C 
BRANCH  14  18
ATOM     18  O1  <0> d           0.025  -0.028   2.380  0.00  0.00    -0.360 OA
ATOM     19  H7  <0> d          -0.857   0.155   2.730  0.00  0.00     0.217 HD
ENDBRANCH  14  18
ENDBRANCH   1  10
BRANCH   6  20
ATOM     20  N2  <0> d           1.050  -6.594  -5.181  0.00  0.00    -0.070 N 
ATOM     21  H17 <0> d           0.822  -6.971  -4.273  0.00  0.00     0.275 HD
ATOM     22  H18 <0> d           1.054  -7.338  -5.863  0.00  0.00     0.275 HD
ATOM     23  H19 <0> d           1.962  -6.164  -5.147  0.00  0.00     0.275 HD
ENDBRANCH   6  20
TORSDOF 3
