REMARK  6 active torsions:
REMARK  status: ('A' for Active; 'I' for Inactive)
REMARK    1  A    between atoms: C2_2  and  C3_3 
REMARK    2  A    between atoms: C5_6  and  C7_9 
REMARK    3  A    between atoms: C7_9  and  N6_30 
REMARK    4  A    between atoms: C8_10  and  N6_30 
REMARK    5  A    between atoms: C15_18  and  N5_20 
REMARK    6  A    between atoms: C18_23  and  O1_26 
ROOT
ATOM      1  C8  <0> d          -0.302   5.468  -0.113  0.00  0.00     0.223 C 
ATOM      2  C9  <0> d           1.139   5.914   0.126  0.00  0.00     0.047 C 
ATOM      3  C10 <0> d           2.047   5.178  -0.866  0.00  0.00    -0.040 C 
ATOM      4  C11 <0> d           2.099   3.702  -0.473  0.00  0.00     0.069 C 
ATOM      5  C12 <0> d           0.708   3.156  -0.299  0.00  0.00     0.048 A 
ATOM      6  C13 <0> d          -0.393   3.967  -0.128  0.00  0.00     0.015 A 
ATOM      7  C14 <0> d          -1.639   3.373   0.035  0.00  0.00     0.131 A 
ATOM      8  N3  <0> d          -1.737   2.055   0.013  0.00  0.00    -0.230 NA
ATOM      9  C15 <0> d          -0.659   1.302  -0.152  0.00  0.00     0.204 A 
ATOM     10  N4  <0> d           0.540   1.838  -0.306  0.00  0.00    -0.222 NA
ATOM     11  C21 <0> d           3.455   5.774  -0.815  0.00  0.00     0.015 C 
ATOM     12  C22 <0> d           1.483   5.313  -2.282  0.00  0.00     0.015 C 
ENDROOT
BRANCH   1  13
ATOM     13  N6  <0> d          -1.161   5.990   0.967  0.00  0.00    -0.063 N 
ATOM     14  H32 <0> d          -1.978   5.379   1.076  0.00  0.00     0.278 HD
ATOM     15  H33 <0> d          -0.628   6.008   1.845  0.00  0.00     0.278 HD
BRANCH  13  16
ATOM     16  C7  <0> d          -1.614   7.357   0.646  0.00  0.00     0.274 C 
BRANCH  16  17
ATOM     17  C5  <0> d          -2.587   7.815   1.701  0.00  0.00     0.003 A 
ATOM     18  C4  <0> d          -2.145   8.479   2.835  0.00  0.00     0.129 A 
ATOM     19  N1  <0> d          -3.030   8.866   3.740  0.00  0.00    -0.245 NA
ATOM     20  C3  <0> d          -4.315   8.628   3.573  0.00  0.00     0.124 A 
ATOM     21  N2  <0> d          -4.772   8.000   2.508  0.00  0.00    -0.245 NA
ATOM     22  C6  <0> d          -3.947   7.588   1.558  0.00  0.00     0.129 A 
BRANCH  20  23
ATOM     23  C2  <0> d          -5.289   9.086   4.628  0.00  0.00     0.076 C 
ATOM     24  C1  <0> d          -5.764  10.504   4.303  0.00  0.00     0.013 C 
ENDBRANCH  20  23
ENDBRANCH  16  17
ENDBRANCH  13  16
ENDBRANCH   1  13
BRANCH   9  25
ATOM     25  N5  <0> d          -0.793  -0.075  -0.168  0.00  0.00    -0.251 NA
ATOM     26  C20 <0> d          -2.195  -0.470   0.019  0.00  0.00     0.101 C 
ATOM     27  C19 <0> d          -2.326  -1.986  -0.149  0.00  0.00     0.046 C 
ATOM     28  C18 <0> d          -1.437  -2.687   0.881  0.00  0.00     0.120 C 
ATOM     29  C17 <0> d           0.010  -2.222   0.697  0.00  0.00     0.046 C 
ATOM     30  C16 <0> d           0.073  -0.700   0.840  0.00  0.00     0.101 C 
BRANCH  28  31
ATOM     31  O1  <0> d          -1.511  -4.102   0.692  0.00  0.00    -0.395 OA
ATOM     32  H25 <0> d          -0.971  -4.611   1.312  0.00  0.00     0.210 HD
ENDBRANCH  28  31
ENDBRANCH   9  25
TORSDOF 6
