REMARK  3 active torsions:
REMARK  status: ('A' for Active; 'I' for Inactive)
REMARK    1  A    between atoms: C4_4  and  N2_9 
REMARK    2  A    between atoms: N2_9  and  C8_10 
REMARK    3  A    between atoms: C8_10  and  C13_18 
ROOT
ATOM      1  C8  <0> d           5.586   1.740   0.442  0.00  0.00     0.246 C 
ATOM      2  C9  <0> d           5.825   3.004   1.264  0.00  0.00     0.068 C 
ATOM      3  C10 <0> d           5.181   4.207   0.571  0.00  0.00     0.143 C 
ATOM      4  S1  <0> d           5.988   4.461  -1.038  0.00  0.00     0.144 S 
ATOM      5  O1  <0> d           7.366   4.727  -0.815  0.00  0.00    -0.228 OA
ATOM      6  O2  <0> d           5.216   5.388  -1.789  0.00  0.00    -0.228 OA
ATOM      7  C11 <0> d           5.832   2.820  -1.803  0.00  0.00     0.143 C 
ATOM      8  C12 <0> d           6.404   1.771  -0.846  0.00  0.00     0.068 C 
ENDROOT
BRANCH   1   9
ATOM      9  N2  <0> d           4.159   1.644   0.107  0.00  0.00     0.110 N 
ATOM     10  H13 <0> d           3.868   2.424  -0.463  0.00  0.00     0.318 HD
BRANCH   9  11
ATOM     11  C4  <0> d           3.858   0.367  -0.554  0.00  0.00     0.254 C 
ATOM     12  C3  <0> d           2.947   0.596  -1.765  0.00  0.00     0.221 C 
ATOM     13  C2  <0> d           2.090   1.857  -1.580  0.00  0.00     0.037 C 
ATOM     14  N1  <0> d           2.013  -0.544  -1.847  0.00  0.00    -0.065 N 
ATOM     15  C1  <0> d           0.780   1.506  -2.320  0.00  0.00     0.030 C 
ATOM     16  C7  <0> d           0.686  -0.026  -2.237  0.00  0.00     0.235 C 
ATOM     17  C6  <0> d           1.912  -1.120  -0.469  0.00  0.00     0.237 C 
ATOM     18  H22 <0> d           2.346  -1.231  -2.507  0.00  0.00     0.280 HD
ATOM     19  C5  <0> d           3.051  -0.547   0.384  0.00  0.00     0.065 C 
ENDBRANCH   9  11
ENDBRANCH   1   9
BRANCH   1  20
ATOM     20  C13 <0> d           5.987   0.537   1.256  0.00  0.00     0.213 C 
ATOM     21  O3  <0> d           5.138  -0.247   1.643  0.00  0.00    -0.646 OA
ATOM     22  O4  <0> d           7.160   0.348   1.527  0.00  0.00    -0.646 OA
ENDBRANCH   1  20
TORSDOF 3
