REMARK  7 active torsions:
REMARK  status: ('A' for Active; 'I' for Inactive)
REMARK    1  A    between atoms: C2_2  and  C3_3 
REMARK    2  A    between atoms: C2_2  and  N2_11 
REMARK       I    between atoms: C3_3  and  N1_5 
REMARK    3  A    between atoms: N1_5  and  C4_6 
REMARK    4  A    between atoms: C4_6  and  C5_7 
REMARK    5  A    between atoms: C5_7  and  C6_8 
REMARK    6  A    between atoms: C6_8  and  O2_9 
REMARK       I    between atoms: N2_11  and  C8_12 
REMARK    7  A    between atoms: C8_12  and  C9_14 
ROOT
ATOM      1  C1  <0> d          -0.019   1.526   0.010  0.00  0.00     0.042 C 
ATOM      2  C2  <0> d           0.002  -0.004   0.002  0.00  0.00     0.172 C 
ENDROOT
BRANCH   2   3
ATOM      3  C3  <0> d          -1.412  -0.526   0.013  0.00  0.00     0.240 C 
ATOM      4  O1  <0> d          -1.790  -1.233   0.922  0.00  0.00    -0.271 OA
ATOM      5  N1  <0> d          -2.256  -0.206  -0.988  0.00  0.00    -0.359 N 
ATOM      6  H5  <0> d          -1.953   0.360  -1.716  0.00  0.00     0.162 HD
BRANCH   5   7
ATOM      7  C4  <0> d          -3.630  -0.713  -0.978  0.00  0.00     0.125 C 
BRANCH   7   8
ATOM      8  C5  <0> d          -4.370  -0.206  -2.217  0.00  0.00     0.046 C 
BRANCH   8   9
ATOM      9  C6  <0> d          -5.805  -0.736  -2.207  0.00  0.00     0.168 C 
BRANCH   9  10
ATOM     10  O2  <0> d          -6.497  -0.262  -3.364  0.00  0.00    -0.396 OA
ATOM     11  C7  <0> d          -7.853  -0.702  -3.451  0.00  0.00     0.201 C 
ENDBRANCH   9  10
ENDBRANCH   8   9
ENDBRANCH   7   8
ENDBRANCH   5   7
ENDBRANCH   2   3
BRANCH   2  12
ATOM     12  N2  <0> d           0.711  -0.489   1.189  0.00  0.00    -0.344 N 
ATOM     13  C8  <0> d           2.054  -0.600   1.174  0.00  0.00     0.259 C 
ATOM     14  O3  <0> d           2.678  -0.296   0.174  0.00  0.00    -0.267 OA
ATOM     15  H15 <0> d           0.213  -0.731   1.986  0.00  0.00     0.163 HD
BRANCH  13  16
ATOM     16  C9  <0> d           2.762  -1.085   2.361  0.00  0.00     0.073 A 
ATOM     17  S1  <0> d           2.099  -1.591   3.936  0.00  0.00    -0.077 SA
ATOM     18  C12 <0> d           3.534  -1.995   4.712  0.00  0.00     0.052 A 
ATOM     19  C11 <0> d           4.495  -1.740   3.787  0.00  0.00     0.028 A 
ATOM     20 Br1  <0> d           3.759  -2.648   6.472  0.00  0.00    -0.043 Br
ATOM     21  C10 <0> d           4.124  -1.265   2.553  0.00  0.00     0.026 A 
ENDBRANCH  13  16
ENDBRANCH   2  12
TORSDOF 7
