REMARK  7 active torsions:
REMARK  status: ('A' for Active; 'I' for Inactive)
REMARK       I    between atoms: C2_2  and  N1_4 
REMARK    1  A    between atoms: N1_4  and  C3_5 
REMARK    2  A    between atoms: N2_9  and  C8_11 
REMARK    3  A    between atoms: C8_11  and  C9_12 
REMARK    4  A    between atoms: C10_14  and  C11_17 
REMARK    5  A    between atoms: C11_17  and  N5_20 
REMARK       I    between atoms: N5_20  and  C14_21 
REMARK    6  A    between atoms: C14_21  and  O4_23 
REMARK    7  A    between atoms: O4_23  and  C15_24 
ROOT
ATOM      1  C9  <0> d          -3.548  -6.165   1.380  0.00  0.00     0.198 A 
ATOM      2  N3  <0> d          -3.038  -6.833   2.377  0.00  0.00    -0.204 NA
ATOM      3  C10 <0> d          -3.134  -8.148   2.146  0.00  0.00     0.183 A 
ATOM      4  N4  <0> d          -3.710  -8.332   0.992  0.00  0.00    -0.108 NA
ATOM      5  O2  <0> d          -3.996  -7.042   0.473  0.00  0.00    -0.194 OA
ENDROOT
BRANCH   1   6
ATOM      6  C8  <0> d          -3.625  -4.664   1.271  0.00  0.00     0.323 C 
BRANCH   6   7
ATOM      7  N2  <0> d          -2.416  -4.158   0.608  0.00  0.00    -0.062 N 
ATOM      8  C6  <0> d          -2.376  -4.647  -0.775  0.00  0.00     0.235 C 
ATOM      9  C5  <0> d          -1.078  -4.191  -1.445  0.00  0.00     0.030 C 
ATOM     10  C4  <0> d          -1.019  -2.660  -1.441  0.00  0.00     0.028 C 
ATOM     11  C3  <0> d          -1.136  -2.159   0.001  0.00  0.00     0.110 C 
ATOM     12  C7  <0> d          -2.431  -2.691   0.618  0.00  0.00     0.260 C 
ATOM     13  H32 <0> d          -1.601  -4.488   1.104  0.00  0.00     0.280 HD
BRANCH  11  14
ATOM     14  N1  <0> d          -1.156  -0.694   0.009  0.00  0.00    -0.355 N 
ATOM     15  C2  <0> d           0.002  -0.004   0.002  0.00  0.00     0.213 C 
ATOM     16  C1  <0> d          -0.018   1.503   0.010  0.00  0.00     0.117 C 
ATOM     17  O1  <0> d           1.060  -0.596  -0.011  0.00  0.00    -0.274 OA
ATOM     18  H5  <0> d          -2.002  -0.220   0.020  0.00  0.00     0.162 HD
ENDBRANCH  11  14
ENDBRANCH   6   7
ENDBRANCH   1   6
BRANCH   3  19
ATOM     19  C11 <0> d          -2.654  -9.237   3.069  0.00  0.00     0.092 C 
ATOM     20  C12 <0> d          -1.148  -9.091   3.291  0.00  0.00     0.047 C 
ATOM     21  C13 <0> d          -3.380  -9.125   4.411  0.00  0.00     0.047 C 
BRANCH  19  22
ATOM     22  N5  <0> d          -2.935 -10.544   2.470  0.00  0.00    -0.321 N 
ATOM     23  C14 <0> d          -2.591 -11.672   3.122  0.00  0.00     0.362 C 
ATOM     24  O3  <0> d          -2.048 -11.606   4.207  0.00  0.00    -0.238 OA
ATOM     25  H22 <0> d          -3.369 -10.598   1.604  0.00  0.00     0.166 HD
BRANCH  23  26
ATOM     26  O4  <0> d          -2.849 -12.874   2.572  0.00  0.00    -0.294 OA
BRANCH  26  27
ATOM     27  C15 <0> d          -2.457 -14.027   3.318  0.00  0.00     0.061 C 
ATOM     28  C16 <0> d          -3.178 -14.030   4.668  0.00  0.00     0.046 C 
ATOM     29  C17 <0> d          -2.829 -15.290   2.539  0.00  0.00     0.046 C 
ATOM     30  C18 <0> d          -0.945 -13.997   3.547  0.00  0.00     0.046 C 
ENDBRANCH  26  27
ENDBRANCH  23  26
ENDBRANCH  19  22
ENDBRANCH   3  19
TORSDOF 7
