REMARK  0 active torsions:
REMARK  status: ('A' for Active; 'I' for Inactive)
ROOT
ATOM      1  C1  <0> d          -3.564   1.774  -0.455  0.00  0.00     0.022 A 
ATOM      2  C2  <0> d          -2.371   1.068  -0.522  0.00  0.00     0.034 A 
ATOM      3  C3  <0> d          -1.233   1.646   0.017  0.00  0.00     0.076 A 
ATOM      4  C4  <0> d          -1.329   2.922   0.593  0.00  0.00     0.160 A 
ATOM      5  N1  <0> d          -2.487   3.547   0.652  0.00  0.00    -0.241 NA
ATOM      6  C5  <0> d          -3.587   3.015   0.149  0.00  0.00     0.119 A 
ATOM      7  N2  <0> d          -0.160   3.492   1.109  0.00  0.00    -0.306 N 
ATOM      8  C6  <0> d           0.003   4.585   1.893  0.00  0.00     0.099 A 
ATOM      9  C7  <0> d           1.321   4.719   2.161  0.00  0.00     0.020 A 
ATOM     10  C8  <0> d           1.998   3.666   1.506  0.00  0.00     0.029 A 
ATOM     11  C9  <0> d           1.078   2.938   0.864  0.00  0.00     0.046 A 
ATOM     12  C10 <0> d           1.253   1.715  -0.001  0.00  0.00     0.076 C 
ATOM     13  N3  <0> d          -0.011   0.966   0.007  0.00  0.00    -0.372 N 
ATOM     14  C11 <0> d           1.597   2.133  -1.430  0.00  0.00     0.065 C 
ATOM     15  C12 <0> d           1.827   0.883  -2.283  0.00  0.00     0.235 C 
ATOM     16  C13 <0> d           2.577  -0.372  -0.350  0.00  0.00     0.235 C 
ATOM     17  C14 <0> d           2.373   0.840   0.563  0.00  0.00     0.065 C 
ATOM     18  H7  <0> d           0.002  -0.004   0.002  0.00  0.00     0.161 HD
ATOM     19  N4  <0> d           2.927   0.085  -1.709  0.00  0.00    -0.075 N 
ATOM     20  H16 <0> d           3.775   0.661  -1.665  0.00  0.00     0.277 HD
ATOM     21  H17 <0> d           3.099  -0.732  -2.307  0.00  0.00     0.277 HD
ENDROOT
TORSDOF 0
