REMARK  8 active torsions:
REMARK  status: ('A' for Active; 'I' for Inactive)
REMARK    1  A    between atoms: C2_2  and  N1_5 
REMARK       I    between atoms: N1_5  and  C5_6 
REMARK    2  A    between atoms: C5_6  and  C6_8 
REMARK    3  A    between atoms: C6_8  and  S1_9 
REMARK    4  A    between atoms: S1_9  and  C7_10 
REMARK    5  A    between atoms: C10_15  and  C11_17 
REMARK    6  A    between atoms: C11_17  and  C12_18 
REMARK       I    between atoms: C12_18  and  N4_20 
REMARK    7  A    between atoms: N4_20  and  C13_21 
REMARK    8  A    between atoms: C13_21  and  C14_22 
ROOT
ATOM      1  C7  <0> d          -2.696   2.519   2.330  0.00  0.00     0.192 A 
ATOM      2  N2  <0> d          -2.027   2.860   3.467  0.00  0.00    -0.184 NA
ATOM      3  C8  <0> d          -0.681   2.767   3.506  0.00  0.00     0.271 A 
ATOM      4  O2  <0> d          -0.066   3.068   4.516  0.00  0.00    -0.266 OA
ATOM      5  C9  <0> d          -0.001   2.311   2.363  0.00  0.00     0.104 A 
ATOM      6  C10 <0> d          -0.724   1.989   1.250  0.00  0.00     0.051 A 
ATOM      7  N3  <0> d          -2.050   2.097   1.260  0.00  0.00    -0.227 NA
ENDROOT
BRANCH   1   8
ATOM      8  S1  <0> d          -4.453   2.644   2.288  0.00  0.00    -0.081 SA
BRANCH   8   9
ATOM      9  C6  <0> d          -4.767   2.083   0.596  0.00  0.00     0.185 C 
BRANCH   9  10
ATOM     10  C5  <0> d          -6.250   2.108   0.327  0.00  0.00     0.228 C 
ATOM     11  N1  <0> d          -6.722   1.728  -0.878  0.00  0.00    -0.352 N 
ATOM     12  H10 <0> d          -6.025   1.401  -1.663  0.00  0.00     0.163 HD
ATOM     13  O1  <0> d          -7.018   2.469   1.193  0.00  0.00    -0.273 OA
BRANCH  11  14
ATOM     14  C2  <0> d          -8.163   1.752  -1.140  0.00  0.00     0.022 C 
ATOM     15  C1  <0> d          -8.689   3.179  -0.969  0.00  0.00     0.037 C 
ATOM     16  C3  <0> d          -8.429   1.278  -2.570  0.00  0.00     0.037 C 
ATOM     17  C4  <0> d          -8.876   0.824  -0.154  0.00  0.00     0.037 C 
ENDBRANCH  11  14
ENDBRANCH   9  10
ENDBRANCH   8   9
ENDBRANCH   1   8
BRANCH   6  18
ATOM     18  C11 <0> d          -0.018   1.509   0.008  0.00  0.00     0.162 C 
BRANCH  18  19
ATOM     19  C12 <0> d           0.009   0.002  -0.004  0.00  0.00     0.223 C 
ATOM     20  O3  <0> d          -0.496  -0.621   0.906  0.00  0.00    -0.273 OA
ATOM     21  N4  <0> d           0.593  -0.653  -1.026  0.00  0.00    -0.357 N 
ATOM     22  H16 <0> d           1.051  -0.088  -1.852  0.00  0.00     0.162 HD
BRANCH  21  23
ATOM     23  C13 <0> d           0.619  -2.118  -1.038  0.00  0.00     0.149 C 
BRANCH  23  24
ATOM     24  C14 <0> d           1.325  -2.598  -2.280  0.00  0.00    -0.018 C 
ATOM     25  C15 <0> d           2.345  -3.413  -2.180  0.00  0.00     0.008 C 
ENDBRANCH  23  24
ENDBRANCH  21  23
ENDBRANCH  18  19
ENDBRANCH   6  18
TORSDOF 8
