REMARK  3 active torsions:
REMARK  status: ('A' for Active; 'I' for Inactive)
REMARK    1  A    between atoms: C4_4  and  S1_7 
REMARK    2  A    between atoms: S1_7  and  N1_10 
REMARK    3  A    between atoms: C10_16  and  C11_17 
ROOT
ATOM      1  N1  <0> d           4.314  -1.170   1.374  0.00  0.00    -0.287 N 
ATOM      2  C7  <0> d           5.193  -0.121   1.917  0.00  0.00     0.156 C 
ATOM      3  C8  <0> d           4.489   0.520   3.115  0.00  0.00     0.143 C 
ATOM      4  N2  <0> d           3.945  -0.500   4.000  0.00  0.00    -0.357 N 
ATOM      5  C9  <0> d           3.667  -1.752   3.633  0.00  0.00     0.245 C 
ATOM      6  O3  <0> d           3.141  -2.489   4.440  0.00  0.00    -0.271 OA
ATOM      7  C10 <0> d           3.970  -2.288   2.265  0.00  0.00     0.220 C 
ATOM      8  H11 <0> d           3.772  -0.252   4.922  0.00  0.00     0.162 HD
ENDROOT
BRANCH   1   9
ATOM      9  S1  <0> d           3.731  -1.090  -0.174  0.00  0.00     0.262 S 
ATOM     10  O1  <0> d           3.419  -2.422  -0.559  0.00  0.00    -0.200 OA
ATOM     11  O2  <0> d           4.636  -0.277  -0.907  0.00  0.00    -0.200 OA
BRANCH   9  12
ATOM     12  C4  <0> d           2.204  -0.213  -0.110  0.00  0.00     0.079 A 
ATOM     13  C3  <0> d           2.190   1.161  -0.253  0.00  0.00     0.025 A 
ATOM     14  C2  <0> d           0.992   1.849  -0.204  0.00  0.00     0.002 A 
ATOM     15  C1  <0> d          -0.193   1.162  -0.014  0.00  0.00     0.000 A 
ATOM     16  C6  <0> d          -0.179  -0.213   0.128  0.00  0.00     0.002 A 
ATOM     17  C5  <0> d           1.020  -0.901   0.081  0.00  0.00     0.025 A 
ENDBRANCH   9  12
ENDBRANCH   1   9
BRANCH   7  18
ATOM     18  C11 <0> d           5.132  -3.244   2.348  0.00  0.00    -0.026 A 
ATOM     19  C16 <0> d           4.995  -4.541   1.891  0.00  0.00     0.011 A 
ATOM     20  C15 <0> d           6.063  -5.415   1.962  0.00  0.00     0.024 A 
ATOM     21  C14 <0> d           7.266  -4.996   2.502  0.00  0.00     0.034 A 
ATOM     22  C13 <0> d           7.401  -3.699   2.965  0.00  0.00     0.024 A 
ATOM     23 Cl1  <0> d           8.605  -6.096   2.598  0.00  0.00    -0.084 Cl
ATOM     24  C12 <0> d           6.334  -2.824   2.888  0.00  0.00     0.011 A 
ENDBRANCH   7  18
TORSDOF 3
