REMARK  3 active torsions:
REMARK  status: ('A' for Active; 'I' for Inactive)
REMARK    1  A    between atoms: N1_2  and  C2_3 
REMARK    2  A    between atoms: N1_2  and  C9_12 
REMARK    3  A    between atoms: C5_6  and  C8_9 
ROOT
ATOM      1  C2  <0> d           0.023  -0.706   1.203  0.00  0.00     0.030 A 
ATOM      2  C3  <0> d           0.124  -0.016   2.408  0.00  0.00     0.030 A 
ATOM      3  C4  <0> d           0.146  -0.707   3.598  0.00  0.00     0.017 A 
ATOM      4  C5  <0> d           0.065  -2.103   3.596  0.00  0.00     0.002 A 
ATOM      5  C6  <0> d          -0.038  -2.792   2.384  0.00  0.00     0.017 A 
ATOM      6  C7  <0> d          -0.063  -2.095   1.198  0.00  0.00     0.030 A 
ENDROOT
BRANCH   1   7
ATOM      7  N1  <0> d           0.002  -0.004   0.002  0.00  0.00    -0.371 N 
ATOM      8  C1  <0> d          -0.034   1.460   0.010  0.00  0.00     0.150 C 
BRANCH   7   9
ATOM      9  C9  <0> d           0.016  -0.730  -1.270  0.00  0.00     0.185 C 
ATOM     10  C12 <0> d           1.256  -0.376  -2.071  0.00  0.00     0.281 C 
ATOM     11  O1  <0> d           0.874   0.121  -3.267  0.00  0.00    -0.320 OA
ATOM     12  O2  <0> d           2.396  -0.516  -1.697  0.00  0.00    -0.263 OA
ATOM     13  C11 <0> d          -0.428   0.726  -3.112  0.00  0.00     0.181 C 
ATOM     14  C10 <0> d          -1.158  -0.270  -2.172  0.00  0.00     0.062 C 
ENDBRANCH   7   9
ENDBRANCH   1   7
BRANCH   4  15
ATOM     15  C8  <0> d           0.087  -2.846   4.868  0.00  0.00     0.104 C 
ATOM     16  S1  <0> d          -0.655  -2.182   6.261  0.00  0.00    -0.060 SA
ATOM     17  N2  <0> d           0.692  -4.049   4.936  0.00  0.00    -0.390 N 
ATOM     18  H9  <0> d           1.113  -4.425   4.147  0.00  0.00     0.157 HD
ATOM     19  H10 <0> d           0.707  -4.538   5.773  0.00  0.00     0.157 HD
ENDBRANCH   4  15
TORSDOF 3
