REMARK  2 active torsions:
REMARK  status: ('A' for Active; 'I' for Inactive)
REMARK    1  A    between atoms: C4_4  and  C8_9 
REMARK    2  A    between atoms: C7_7  and  N1_8 
REMARK       I    between atoms: C8_9  and  N2_11 
ROOT
ATOM      1  C1  <0> d           1.201  -1.944  -5.095  0.00  0.00     0.012 C 
ATOM      2  C2  <0> d           0.564  -1.645  -3.736  0.00  0.00     0.013 C 
ATOM      3  C3  <0> d           1.375  -2.326  -2.632  0.00  0.00     0.020 C 
ATOM      4  C4  <0> d           0.739  -2.027  -1.274  0.00  0.00     0.078 C 
ATOM      5  C5  <0> d           0.727  -0.515  -1.038  0.00  0.00     0.016 C 
ATOM      6  C6  <0> d          -0.084   0.167  -2.142  0.00  0.00     0.034 C 
ATOM      7  C7  <0> d           0.553  -0.133  -3.501  0.00  0.00     0.187 C 
ENDROOT
BRANCH   4   8
ATOM      8  C8  <0> d          -0.675  -2.549  -1.254  0.00  0.00     0.224 C 
ATOM      9  O1  <0> d          -1.605  -1.778  -1.143  0.00  0.00    -0.273 OA
ATOM     10  N2  <0> d          -0.906  -3.873  -1.361  0.00  0.00    -0.347 N 
ATOM     11  C12 <0> d          -2.277  -4.397  -1.463  0.00  0.00     0.163 C 
ATOM     12  C9  <0> d           0.206  -4.837  -1.373  0.00  0.00     0.157 C 
ATOM     13  C11 <0> d          -2.452  -5.510  -0.429  0.00  0.00     0.070 C 
ATOM     14  O2  <0> d          -1.395  -6.461  -0.577  0.00  0.00    -0.373 OA
ATOM     15  C13 <0> d          -2.405  -4.908   0.977  0.00  0.00     0.047 C 
ATOM     16  C14 <0> d          -3.798  -6.203  -0.645  0.00  0.00     0.047 C 
ATOM     17  C10 <0> d          -0.090  -5.929  -0.339  0.00  0.00     0.136 C 
ATOM     18  C15 <0> d           0.949  -7.045  -0.462  0.00  0.00     0.041 C 
ENDBRANCH   4   8
BRANCH   7  19
ATOM     19  N1  <0> d          -0.226   0.522  -4.561  0.00  0.00    -0.075 N 
ATOM     20  H14 <0> d          -1.172   0.172  -4.549  0.00  0.00     0.274 HD
ATOM     21  H15 <0> d          -0.233   1.519  -4.406  0.00  0.00     0.274 HD
ATOM     22  H29 <0> d           0.194   0.324  -5.457  0.00  0.00     0.274 HD
ENDBRANCH   7  19
TORSDOF 2
