REMARK  4 active torsions:
REMARK  status: ('A' for Active; 'I' for Inactive)
REMARK    1  A    between atoms: C2_2  and  N1_3 
REMARK    2  A    between atoms: C8_12  and  N3_13 
REMARK    3  A    between atoms: N4_16  and  C13_19 
REMARK    4  A    between atoms: C13_19  and  C14_20 
REMARK       I    between atoms: C14_20  and  N5_22 
ROOT
ATOM      1  N1  <0> d          -1.336  -0.624  -0.002  0.00  0.00    -0.145 N 
ATOM      2  C3  <0> d          -1.909  -0.954   1.171  0.00  0.00     0.275 A 
ATOM      3  O1  <0> d          -1.263  -0.931   2.204  0.00  0.00    -0.266 OA
ATOM      4  C4  <0> d          -3.289  -1.330   1.185  0.00  0.00     0.076 A 
ATOM      5  C5  <0> d          -4.109  -1.724   2.343  0.00  0.00    -0.026 A 
ATOM      6  C6  <0> d          -5.392  -2.036   2.100  0.00  0.00    -0.008 A 
ATOM      7  S1  <0> d          -5.593  -1.828   0.346  0.00  0.00    -0.073 SA
ATOM      8  C7  <0> d          -3.942  -1.322  -0.056  0.00  0.00     0.133 A 
ATOM      9  N2  <0> d          -3.317  -0.987  -1.180  0.00  0.00    -0.056 NA
ATOM     10  C8  <0> d          -2.047  -0.639  -1.166  0.00  0.00     0.708 A 
ATOM     11  C15 <0> d          -6.129  -2.427   3.353  0.00  0.00     0.047 C 
ATOM     12  C16 <0> d          -5.015  -2.735   4.378  0.00  0.00     0.010 C 
ATOM     13  C17 <0> d          -3.853  -1.873   3.846  0.00  0.00     0.041 C 
ENDROOT
BRANCH  10  14
ATOM     14  N3  <0> d          -1.428  -0.292  -2.341  0.00  0.00    -0.212 N 
ATOM     15  C12 <0> d          -1.433   1.101  -2.815  0.00  0.00     0.169 C 
ATOM     16  C11 <0> d          -1.895   1.120  -4.272  0.00  0.00     0.256 C 
ATOM     17  N4  <0> d          -1.055   0.212  -5.064  0.00  0.00    -0.060 N 
ATOM     18  C10 <0> d          -1.244  -1.170  -4.607  0.00  0.00     0.256 C 
ATOM     19  H24 <0> d          -0.086   0.472  -4.956  0.00  0.00     0.280 HD
ATOM     20  C9  <0> d          -0.746  -1.302  -3.164  0.00  0.00     0.169 C 
BRANCH  17  21
ATOM     21  C13 <0> d          -1.431   0.312  -6.481  0.00  0.00     0.336 C 
BRANCH  21  22
ATOM     22  C14 <0> d          -1.123   1.699  -6.985  0.00  0.00     0.241 C 
ATOM     23  O2  <0> d          -0.638   2.522  -6.238  0.00  0.00    -0.272 OA
ATOM     24  N5  <0> d          -1.385   2.023  -8.267  0.00  0.00    -0.369 N 
ATOM     25  H16 <0> d          -1.773   1.365  -8.864  0.00  0.00     0.159 HD
ATOM     26  H17 <0> d          -1.187   2.916  -8.591  0.00  0.00     0.159 HD
ENDBRANCH  21  22
ENDBRANCH  17  21
ENDBRANCH  10  14
BRANCH   1  27
ATOM     27  C2  <0> d           0.076  -0.237  -0.028  0.00  0.00     0.146 C 
ATOM     28  C1  <0> d           0.203   1.252   0.304  0.00  0.00     0.027 C 
ENDBRANCH   1  27
TORSDOF 4
