REMARK  5 active torsions:
REMARK  status: ('A' for Active; 'I' for Inactive)
REMARK    1  A    between atoms: C2_2  and  N1_3 
REMARK    2  A    between atoms: N2_6  and  C7_9 
REMARK    3  A    between atoms: C10_12  and  N3_16 
REMARK       I    between atoms: N3_16  and  C14_17 
REMARK       I    between atoms: C14_17  and  N4_19 
REMARK    4  A    between atoms: N4_19  and  C15_20 
REMARK    5  A    between atoms: C15_20  and  C17_22 
ROOT
ATOM      1  C7  <0> d          -4.371  -2.834   1.711  0.00  0.00     0.030 A 
ATOM      2  C8  <0> d          -5.017  -2.367   2.848  0.00  0.00     0.031 A 
ATOM      3  C9  <0> d          -5.746  -3.238   3.634  0.00  0.00     0.032 A 
ATOM      4  C10 <0> d          -5.833  -4.579   3.287  0.00  0.00     0.042 A 
ATOM      5  C11 <0> d          -5.187  -5.046   2.150  0.00  0.00    -0.033 A 
ATOM      6  C12 <0> d          -4.463  -4.175   1.361  0.00  0.00     0.038 A 
ATOM      7  C13 <0> d          -5.282  -6.502   1.774  0.00  0.00     0.050 C 
ENDROOT
BRANCH   4   8
ATOM      8  N3  <0> d          -6.573  -5.463   4.085  0.00  0.00    -0.308 N 
ATOM      9  C14 <0> d          -6.762  -5.194   5.392  0.00  0.00     0.321 C 
ATOM     10  O1  <0> d          -6.351  -4.151   5.863  0.00  0.00    -0.247 OA
ATOM     11  N4  <0> d          -7.405  -6.081   6.177  0.00  0.00    -0.334 N 
ATOM     12  H22 <0> d          -7.732  -6.913   5.801  0.00  0.00     0.165 HD
ATOM     13  H21 <0> d          -6.950  -6.268   3.696  0.00  0.00     0.170 HD
BRANCH  11  14
ATOM     14  C15 <0> d          -7.610  -5.788   7.598  0.00  0.00     0.119 C 
ATOM     15  C16 <0> d          -8.874  -4.943   7.767  0.00  0.00     0.037 C 
BRANCH  14  16
ATOM     16  C17 <0> d          -7.763  -7.079   8.359  0.00  0.00     0.007 A 
ATOM     17  C19 <0> d          -7.589  -7.243   9.691  0.00  0.00     0.036 A 
ATOM     18  N6  <0> d          -7.820  -8.541   9.980  0.00  0.00    -0.278 N 
ATOM     19  C20 <0> d          -7.210  -6.168  10.677  0.00  0.00     0.070 C 
ATOM     20  N5  <0> d          -8.138  -9.198   8.784  0.00  0.00    -0.184 NA
ATOM     21  C21 <0> d          -7.746  -9.155  11.308  0.00  0.00     0.179 C 
ATOM     22  C18 <0> d          -8.103  -8.322   7.814  0.00  0.00     0.150 A 
ENDBRANCH  14  16
ENDBRANCH  11  14
ENDBRANCH   4   8
BRANCH   1  23
ATOM     23  N2  <0> d          -3.632  -1.952   0.915  0.00  0.00    -0.378 N 
ATOM     24  C4  <0> d          -3.615  -0.509   1.199  0.00  0.00     0.150 C 
ATOM     25  C3  <0> d          -2.157  -0.038   1.239  0.00  0.00     0.254 C 
ATOM     26  N1  <0> d          -1.487  -0.417  -0.011  0.00  0.00    -0.068 N 
ATOM     27  C6  <0> d          -1.427  -1.880  -0.123  0.00  0.00     0.254 C 
ATOM     28  H33 <0> d          -2.002  -0.043  -0.793  0.00  0.00     0.280 HD
ATOM     29  C5  <0> d          -2.849  -2.442  -0.230  0.00  0.00     0.150 C 
BRANCH  26  30
ATOM     30  C2  <0> d          -0.123   0.129  -0.018  0.00  0.00     0.230 C 
ATOM     31  C1  <0> d          -0.186   1.657  -0.028  0.00  0.00     0.034 C 
ENDBRANCH  26  30
ENDBRANCH   1  23
TORSDOF 5
