REMARK  3 active torsions:
REMARK  status: ('A' for Active; 'I' for Inactive)
REMARK    1  A    between atoms: C5_6  and  N3_10 
REMARK    2  A    between atoms: C9_13  and  C11_15 
REMARK    3  A    between atoms: C11_15  and  O1_16 
ROOT
ATOM      1  C1  <0> d          -1.710  -3.448  -0.156  0.00  0.00     0.025 A 
ATOM      2  C2  <0> d          -1.209  -4.690  -0.229  0.00  0.00     0.053 A 
ATOM      3  S1  <0> d           0.554  -4.432  -0.196  0.00  0.00    -0.081 SA
ATOM      4  C3  <0> d           0.572  -2.662  -0.086  0.00  0.00     0.112 A 
ATOM      5  C4  <0> d          -0.798  -2.320  -0.077  0.00  0.00     0.046 A 
ATOM      6  C5  <0> d          -1.078  -0.928   0.007  0.00  0.00     0.140 A 
ATOM      7  N1  <0> d          -0.073  -0.070   0.070  0.00  0.00    -0.224 NA
ATOM      8  C6  <0> d           1.188  -0.463   0.058  0.00  0.00     0.236 A 
ATOM      9  N2  <0> d           1.511  -1.739  -0.020  0.00  0.00    -0.234 NA
ENDROOT
BRANCH   6  10
ATOM     10  N3  <0> d          -2.386  -0.477   0.022  0.00  0.00    -0.365 N 
ATOM     11  C10 <0> d          -3.585  -1.322  -0.075  0.00  0.00     0.131 C 
ATOM     12  C9  <0> d          -4.810  -0.384  -0.040  0.00  0.00     0.029 C 
ATOM     13  C8  <0> d          -4.219   0.974  -0.503  0.00  0.00     0.028 C 
ATOM     14  C7  <0> d          -2.808   0.931   0.133  0.00  0.00     0.125 C 
BRANCH  12  15
ATOM     15  C11 <0> d          -5.889  -0.865  -1.013  0.00  0.00     0.170 C 
BRANCH  15  16
ATOM     16  O1  <0> d          -7.008   0.022  -0.961  0.00  0.00    -0.400 OA
ATOM     17  H13 <0> d          -7.731  -0.222  -1.554  0.00  0.00     0.209 HD
ENDBRANCH  15  16
ENDBRANCH  12  15
ENDBRANCH   6  10
TORSDOF 3
