REMARK  7 active torsions:
REMARK  status: ('A' for Active; 'I' for Inactive)
REMARK    1  A    between atoms: C2_2  and  C3_3 
REMARK    2  A    between atoms: C3_3  and  N2_19 
REMARK    3  A    between atoms: C4_4  and  C5_5 
REMARK    4  A    between atoms: C4_4  and  N2_19 
REMARK    5  A    between atoms: C10_10  and  O1_11 
REMARK    6  A    between atoms: O1_11  and  C11_12 
REMARK    7  A    between atoms: C11_12  and  C12_13 
REMARK       I    between atoms: C12_13  and  N1_15 
ROOT
ATOM      1  C5  <0> d           1.158   3.173   0.008  0.00  0.00     0.002 A 
ATOM      2  C6  <0> d          -0.050   3.844   0.023  0.00  0.00     0.030 A 
ATOM      3  C7  <0> d          -1.237   3.134   0.030  0.00  0.00     0.011 A 
ATOM      4  C8  <0> d          -1.218   1.751   0.017  0.00  0.00     0.022 A 
ATOM      5  C9  <0> d          -0.013   1.076   0.008  0.00  0.00     0.039 A 
ATOM      6  C10 <0> d           1.179   1.786   0.000  0.00  0.00     0.077 A 
ATOM      7 Br1  <0> d          -2.888   4.055   0.050  0.00  0.00    -0.051 Br
ENDROOT
BRANCH   1   8
ATOM      8  C4  <0> d           2.450   3.947   0.000  0.00  0.00     0.274 C 
BRANCH   8   9
ATOM      9  N2  <0> d           2.977   3.996  -1.377  0.00  0.00    -0.068 N 
ATOM     10  H15 <0> d           3.142   3.038  -1.710  0.00  0.00     0.277 HD
ATOM     11  H16 <0> d           2.291   4.457  -1.986  0.00  0.00     0.277 HD
BRANCH   9  12
ATOM     12  C3  <0> d           4.245   4.749  -1.414  0.00  0.00     0.259 C 
BRANCH  12  13
ATOM     13  C2  <0> d           4.758   4.782  -2.831  0.00  0.00    -0.010 C 
ATOM     14  C1  <0> d           5.024   5.929  -3.405  0.00  0.00     0.008 C 
ENDBRANCH  12  13
ENDBRANCH   9  12
ENDBRANCH   8   9
ENDBRANCH   1   8
BRANCH   6  15
ATOM     15  O1  <0> d           2.366   1.124  -0.015  0.00  0.00    -0.342 OA
BRANCH  15  16
ATOM     16  C11 <0> d           2.312  -0.304  -0.023  0.00  0.00     0.278 C 
BRANCH  16  17
ATOM     17  C12 <0> d           3.713  -0.859  -0.040  0.00  0.00     0.239 C 
ATOM     18  O2  <0> d           4.664  -0.106  -0.044  0.00  0.00    -0.271 OA
ATOM     19  N1  <0> d           3.909  -2.192  -0.049  0.00  0.00    -0.368 N 
ATOM     20  H13 <0> d           3.149  -2.795  -0.045  0.00  0.00     0.159 HD
ATOM     21  H14 <0> d           4.811  -2.550  -0.060  0.00  0.00     0.159 HD
ENDBRANCH  16  17
ENDBRANCH  15  16
ENDBRANCH   6  15
TORSDOF 7
