REMARK  2 active torsions:
REMARK  status: ('A' for Active; 'I' for Inactive)
REMARK    1  A    between atoms: C8_9  and  C10_13 
REMARK       I    between atoms: C10_13  and  N3_15 
REMARK    2  A    between atoms: N3_15  and  C11_16 
ROOT
ATOM      1  C1  <0> d          -0.016   1.491   0.030  0.00  0.00     0.310 C 
ATOM      2  N1  <0> d           0.002   0.022   0.010  0.00  0.00     0.095 N 
ATOM      3  C2  <0> d          -1.374  -0.528   0.102  0.00  0.00     0.227 C 
ATOM      4  C3  <0> d          -1.169  -1.976   0.603  0.00  0.00     0.038 C 
ATOM      5  C4  <0> d           0.191  -1.967   1.328  0.00  0.00     0.039 C 
ATOM      6  C5  <0> d           0.716  -0.520   1.201  0.00  0.00     0.241 C 
ATOM      7  C6  <0> d           0.208   0.285   2.404  0.00  0.00     0.117 A 
ATOM      8  C7  <0> d          -1.298   0.026   2.475  0.00  0.00    -0.043 A 
ATOM      9  C8  <0> d          -1.746  -0.468   3.614  0.00  0.00     0.070 A 
ATOM     10  C9  <0> d          -0.796  -0.822   4.693  0.00  0.00     0.101 A 
ATOM     11  S1  <0> d           0.797  -0.442   3.976  0.00  0.00    -0.098 SA
ATOM     12  N2  <0> d          -1.058  -1.297   5.879  0.00  0.00    -0.292 NA
ATOM     13  C14 <0> d          -2.135   0.249   1.200  0.00  0.00     0.072 C 
ATOM     14  H10 <0> d          -1.969  -1.528   6.119  0.00  0.00     0.187 HD
ENDROOT
BRANCH   9  15
ATOM     15  C10 <0> d          -3.195  -0.667   3.812  0.00  0.00     0.255 C 
ATOM     16  O1  <0> d          -3.680  -1.774   3.684  0.00  0.00    -0.268 OA
ATOM     17  N3  <0> d          -3.981   0.380   4.135  0.00  0.00    -0.352 N 
ATOM     18  H12 <0> d          -3.609   1.275   4.163  0.00  0.00     0.163 HD
BRANCH  17  19
ATOM     19  C11 <0> d          -5.397   0.165   4.442  0.00  0.00     0.084 A 
ATOM     20  C13 <0> d          -6.091   1.195   5.334  0.00  0.00     0.027 A 
ATOM     21  C12 <0> d          -6.407   1.143   3.838  0.00  0.00     0.027 A 
ENDBRANCH  17  19
ENDBRANCH   9  15
TORSDOF 2
