REMARK  6 active torsions:
REMARK  status: ('A' for Active; 'I' for Inactive)
REMARK    1  A    between atoms: O1_2  and  C2_3 
REMARK    2  A    between atoms: C2_3  and  C3_5 
REMARK    3  A    between atoms: C6_9  and  N1_10 
REMARK    4  A    between atoms: N2_12  and  C10_15 
REMARK    5  A    between atoms: C10_15  and  C11_16 
REMARK    6  A    between atoms: C11_16  and  N3_17 
ROOT
ATOM      1  C3  <0> d           0.659  -2.062  -1.123  0.00  0.00     0.080 A 
ATOM      2  C4  <0> d          -0.387  -2.830  -1.775  0.00  0.00    -0.022 A 
ATOM      3  C5  <0> d          -0.187  -4.166  -1.759  0.00  0.00     0.020 A 
ATOM      4  S1  <0> d           1.345  -4.380  -0.903  0.00  0.00    -0.074 SA
ATOM      5  C6  <0> d           1.719  -2.776  -0.577  0.00  0.00     0.085 A 
ATOM      6  C7  <0> d          -1.091  -5.203  -2.347  0.00  0.00     0.319 C 
ATOM      7  N2  <0> d          -2.396  -4.572  -2.624  0.00  0.00     0.095 N 
ATOM      8  C8  <0> d          -2.221  -3.313  -3.360  0.00  0.00     0.277 C 
ATOM      9  C9  <0> d          -1.624  -2.243  -2.440  0.00  0.00     0.071 C 
ENDROOT
BRANCH   7  10
ATOM     10  C10 <0> d          -3.280  -5.490  -3.354  0.00  0.00     0.300 C 
BRANCH  10  11
ATOM     11  C11 <0> d          -3.633  -6.679  -2.457  0.00  0.00     0.265 C 
BRANCH  11  12
ATOM     12  N3  <0> d          -4.518  -7.597  -3.187  0.00  0.00    -0.069 N 
ATOM     13  C16 <0> d          -4.759  -8.793  -2.371  0.00  0.00     0.235 C 
ATOM     14  C15 <0> d          -5.614  -9.788  -3.159  0.00  0.00     0.028 C 
ATOM     15  C14 <0> d          -6.951  -9.134  -3.516  0.00  0.00     0.003 C 
ATOM     16  C13 <0> d          -6.685  -7.847  -4.303  0.00  0.00     0.028 C 
ATOM     17  C12 <0> d          -5.790  -6.924  -3.473  0.00  0.00     0.235 C 
ATOM     18  H26 <0> d          -4.079  -7.866  -4.055  0.00  0.00     0.279 HD
ENDBRANCH  11  12
ENDBRANCH  10  11
ENDBRANCH   7  10
BRANCH   1  19
ATOM     19  C2  <0> d           0.601  -0.603  -1.048  0.00  0.00     0.296 C 
ATOM     20  O2  <0> d           1.094   0.072  -1.933  0.00  0.00    -0.259 OA
BRANCH  19  21
ATOM     21  O1  <0> d           0.002  -0.004   0.002  0.00  0.00    -0.322 OA
ATOM     22  C1  <0> d          -0.017   1.425   0.010  0.00  0.00     0.213 C 
ENDBRANCH  19  21
ENDBRANCH   1  19
BRANCH   5  23
ATOM     23  N1  <0> d           2.826  -2.279   0.083  0.00  0.00    -0.393 N 
ATOM     24  H4  <0> d           2.927  -1.323   0.210  0.00  0.00     0.156 HD
ATOM     25  H5  <0> d           3.503  -2.887   0.420  0.00  0.00     0.156 HD
ENDBRANCH   5  23
TORSDOF 6
