REMARK  4 active torsions:
REMARK  status: ('A' for Active; 'I' for Inactive)
REMARK    1  A    between atoms: C6_6  and  C11_13 
REMARK    2  A    between atoms: C11_13  and  N1_14 
REMARK    3  A    between atoms: C15_18  and  C17_20 
REMARK       I    between atoms: C17_20  and  N2_22 
REMARK    4  A    between atoms: N2_22  and  C18_23 
ROOT
ATOM      1  N1  <0> d          -1.315  -5.176  -1.798  0.00  0.00    -0.066 N 
ATOM      2  C12 <0> d          -1.882  -3.864  -2.130  0.00  0.00     0.235 C 
ATOM      3  C13 <0> d          -3.345  -4.027  -2.547  0.00  0.00     0.029 C 
ATOM      4  C14 <0> d          -3.422  -4.943  -3.772  0.00  0.00     0.017 C 
ATOM      5  C15 <0> d          -2.761  -6.283  -3.437  0.00  0.00     0.104 C 
ATOM      6  C16 <0> d          -1.319  -6.036  -2.987  0.00  0.00     0.249 C 
ATOM      7  H26 <0> d          -1.868  -5.605  -1.071  0.00  0.00     0.280 HD
ENDROOT
BRANCH   1   8
ATOM      8  C11 <0> d           0.066  -5.006  -1.324  0.00  0.00     0.274 C 
BRANCH   8   9
ATOM      9  C6  <0> d           0.061  -4.226  -0.035  0.00  0.00    -0.014 A 
ATOM     10  C5  <0> d           0.040  -2.760  -0.042  0.00  0.00     0.006 A 
ATOM     11  C4  <0> d           0.024  -2.044  -1.243  0.00  0.00     0.015 A 
ATOM     12  C9  <0> d           0.036  -2.072   1.185  0.00  0.00     0.090 A 
ATOM     13  C3  <0> d           0.004  -0.678  -1.217  0.00  0.00     0.007 A 
ATOM     14  C2  <0> d           0.001   0.004  -0.009  0.00  0.00    -0.059 A 
ATOM     15  C1  <0> d          -0.020   1.511  -0.002  0.00  0.00     0.048 C 
ATOM     16  C10 <0> d           0.022  -0.683   1.187  0.00  0.00     0.045 A 
ATOM     17  O2  <0> d           0.053  -2.765   2.344  0.00  0.00    -0.275 OA
ATOM     18  C8  <0> d           0.072  -4.107   2.358  0.00  0.00     0.288 A 
ATOM     19  C7  <0> d           0.077  -4.861   1.164  0.00  0.00     0.092 A 
ATOM     20  O1  <0> d           0.086  -4.689   3.427  0.00  0.00    -0.260 OA
ENDBRANCH   8   9
ENDBRANCH   1   8
BRANCH   5  21
ATOM     21  C17 <0> d          -2.764  -7.165  -4.659  0.00  0.00     0.229 C 
ATOM     22  O3  <0> d          -1.716  -7.561  -5.124  0.00  0.00    -0.273 OA
ATOM     23  N2  <0> d          -3.931  -7.513  -5.236  0.00  0.00    -0.311 N 
ATOM     24  H19 <0> d          -4.771  -7.258  -4.823  0.00  0.00     0.170 HD
BRANCH  23  25
ATOM     25  C18 <0> d          -3.931  -8.240  -6.426  0.00  0.00     0.130 A 
ATOM     26  N3  <0> d          -2.786  -8.666  -6.934  0.00  0.00    -0.236 NA
ATOM     27  C22 <0> d          -2.741  -9.361  -8.054  0.00  0.00     0.033 A 
ATOM     28  C21 <0> d          -3.897  -9.661  -8.748  0.00  0.00     0.027 A 
ATOM     29  C23 <0> d          -1.412  -9.829  -8.587  0.00  0.00     0.070 C 
ATOM     30  C20 <0> d          -5.119  -9.227  -8.251  0.00  0.00     0.006 A 
ATOM     31  C19 <0> d          -5.134  -8.505  -7.071  0.00  0.00     0.050 A 
ENDBRANCH  23  25
ENDBRANCH   5  21
TORSDOF 4
