REMARK  7 active torsions:
REMARK  status: ('A' for Active; 'I' for Inactive)
REMARK    1  A    between atoms: C2_2  and  C4_4 
REMARK    2  A    between atoms: C4_4  and  C5_5 
REMARK    3  A    between atoms: C5_5  and  C6_6 
REMARK    4  A    between atoms: C5_5  and  N4_23 
REMARK    5  A    between atoms: C7_8  and  C8_11 
REMARK    6  A    between atoms: C8_11  and  O2_12 
REMARK    7  A    between atoms: O2_12  and  C9_13 
ROOT
ATOM      1  C6  <0> d           6.368   5.107  -0.701  0.00  0.00     0.203 A 
ATOM      2  N1  <0> d           5.326   4.464  -1.172  0.00  0.00    -0.204 NA
ATOM      3  C7  <0> d           4.713   3.933  -0.100  0.00  0.00     0.180 A 
ATOM      4  N2  <0> d           5.404   4.267   0.949  0.00  0.00    -0.109 NA
ATOM      5  O1  <0> d           6.359   4.941   0.625  0.00  0.00    -0.194 OA
ENDROOT
BRANCH   3   6
ATOM      6  C8  <0> d           3.458   3.099  -0.112  0.00  0.00     0.258 C 
BRANCH   6   7
ATOM      7  O2  <0> d           2.318   3.951   0.018  0.00  0.00    -0.341 OA
BRANCH   7   8
ATOM      8  C9  <0> d           1.099   3.353   0.025  0.00  0.00     0.098 A 
ATOM      9  C14 <0> d          -0.072   4.130   0.150  0.00  0.00     0.100 A 
ATOM     10  C13 <0> d          -1.331   3.481   0.153  0.00  0.00    -0.005 A 
ATOM     11  N3  <0> d          -0.008   5.460   0.264  0.00  0.00    -0.257 NA
ATOM     12  C12 <0> d          -1.393   2.084   0.028  0.00  0.00     0.014 A 
ATOM     13  C17 <0> d          -2.498   4.258   0.278  0.00  0.00     0.015 A 
ATOM     14  C11 <0> d          -0.242   1.365  -0.086  0.00  0.00     0.004 A 
ATOM     15  C10 <0> d           0.999   1.995  -0.090  0.00  0.00     0.039 A 
ATOM     16  C16 <0> d          -2.362   5.612   0.391  0.00  0.00     0.020 A 
ATOM     17  C15 <0> d          -1.092   6.187   0.380  0.00  0.00     0.117 A 
ENDBRANCH   7   8
ENDBRANCH   6   7
ENDBRANCH   3   6
BRANCH   1  18
ATOM     18  C5  <0> d           7.384   5.879  -1.503  0.00  0.00     0.262 C 
BRANCH  18  19
ATOM     19  C4  <0> d           8.679   5.070  -1.599  0.00  0.00     0.045 C 
BRANCH  19  20
ATOM     20  C2  <0> d           9.682   5.817  -2.481  0.00  0.00    -0.020 C 
ATOM     21  C1  <0> d          11.024   5.083  -2.461  0.00  0.00     0.009 C 
ATOM     22  C3  <0> d           9.155   5.876  -3.916  0.00  0.00     0.009 C 
ENDBRANCH  19  20
ENDBRANCH  18  19
BRANCH  18  23
ATOM     23  N4  <0> d           7.656   7.162  -0.841  0.00  0.00    -0.068 N 
ATOM     24  H19 <0> d           6.725   7.744  -0.772  0.00  0.00     0.275 HD
ATOM     25  H20 <0> d           8.398   7.726  -1.426  0.00  0.00     0.275 HD
ATOM     26  H21 <0> d           8.050   6.978   0.169  0.00  0.00     0.275 HD
ENDBRANCH  18  23
ENDBRANCH   1  18
TORSDOF 7
