REMARK  8 active torsions:
REMARK  status: ('A' for Active; 'I' for Inactive)
REMARK    1  A    between atoms: C2_2  and  N1_4 
REMARK    2  A    between atoms: N1_4  and  C4_5 
REMARK    3  A    between atoms: N1_4  and  C7_9 
REMARK    4  A    between atoms: C4_5  and  C5_6 
REMARK    5  A    between atoms: C5_6  and  C6_7 
REMARK    6  A    between atoms: C6_7  and  O1_8 
REMARK    7  A    between atoms: C8_10  and  C15_18 
REMARK    8  A    between atoms: C15_18  and  N3_19 
ROOT
ATOM      1  C7  <0> d          -2.266  -0.224   1.150  0.00  0.00     0.112 A 
ATOM      2  C8  <0> d          -3.518  -0.824   1.239  0.00  0.00     0.012 A 
ATOM      3  C9  <0> d          -4.309  -0.559   2.341  0.00  0.00     0.021 A 
ATOM      4  C10 <0> d          -3.823   0.299   3.321  0.00  0.00    -0.035 A 
ATOM      5  C11 <0> d          -2.571   0.861   3.171  0.00  0.00     0.017 A 
ATOM      6  N2  <0> d          -1.836   0.583   2.105  0.00  0.00    -0.345 N 
ATOM      7  C12 <0> d          -2.267   1.751   4.359  0.00  0.00     0.058 C 
ATOM      8  C13 <0> d          -3.634   2.015   5.027  0.00  0.00     0.011 C 
ATOM      9  C14 <0> d          -4.448   0.770   4.615  0.00  0.00     0.041 C 
ATOM     10  H27 <0> d          -0.958   0.986   2.021  0.00  0.00     0.167 HD
ENDROOT
BRANCH   1  11
ATOM     11  N1  <0> d          -1.457  -0.479   0.048  0.00  0.00    -0.363 N 
BRANCH  11  12
ATOM     12  C2  <0> d          -1.447   0.450  -1.084  0.00  0.00     0.077 C 
ATOM     13  C1  <0> d          -2.876   0.647  -1.595  0.00  0.00     0.032 C 
ATOM     14  C3  <0> d          -0.876   1.797  -0.634  0.00  0.00     0.032 C 
ENDBRANCH  11  12
BRANCH  11  15
ATOM     15  C4  <0> d          -0.615  -1.677   0.020  0.00  0.00     0.127 C 
BRANCH  15  16
ATOM     16  C5  <0> d           0.796  -1.320   0.491  0.00  0.00     0.046 C 
BRANCH  16  17
ATOM     17  C6  <0> d           1.707  -2.541   0.344  0.00  0.00     0.165 C 
BRANCH  17  18
ATOM     18  O1  <0> d           2.994  -2.243   0.890  0.00  0.00    -0.401 OA
ATOM     19  H14 <0> d           3.624  -2.974   0.831  0.00  0.00     0.209 HD
ENDBRANCH  17  18
ENDBRANCH  16  17
ENDBRANCH  15  16
ENDBRANCH  11  15
ENDBRANCH   1  11
BRANCH   2  20
ATOM     20  C15 <0> d          -4.005  -1.747   0.152  0.00  0.00     0.271 C 
BRANCH  20  21
ATOM     21  N3  <0> d          -3.492  -3.102   0.394  0.00  0.00    -0.075 N 
ATOM     22  H24 <0> d          -3.750  -3.702  -0.375  0.00  0.00     0.274 HD
ATOM     23  H25 <0> d          -2.487  -3.072   0.475  0.00  0.00     0.274 HD
ATOM     24  H26 <0> d          -3.888  -3.463   1.250  0.00  0.00     0.274 HD
ENDBRANCH  20  21
ENDBRANCH   2  20
TORSDOF 8
