REMARK  2 active torsions:
REMARK  status: ('A' for Active; 'I' for Inactive)
REMARK    1  A    between atoms: C6_6  and  C10_11 
REMARK       I    between atoms: C10_11  and  N1_13 
REMARK    2  A    between atoms: N1_13  and  N2_14 
REMARK       I    between atoms: N2_14  and  C11_15 
ROOT
ATOM      1  C1  <0> d          -0.019   1.526   0.010  0.00  0.00     0.010 C 
ATOM      2  C2  <0> d           0.002  -0.004   0.002  0.00  0.00    -0.014 C 
ATOM      3  C3  <0> d          -1.434  -0.536   0.019  0.00  0.00     0.009 C 
ATOM      4  C4  <0> d          -1.433  -2.045  -0.238  0.00  0.00     0.041 C 
ATOM      5  C5  <0> d          -0.465  -2.704   0.733  0.00  0.00    -0.029 A 
ATOM      6  C6  <0> d          -0.459  -4.117   1.061  0.00  0.00     0.047 A 
ATOM      7  C7  <0> d           0.484  -4.556   1.961  0.00  0.00     0.067 A 
ATOM      8  S1  <0> d           1.339  -3.171   2.371  0.00  0.00    -0.105 SA
ATOM      9  C8  <0> d           0.484  -1.986   1.374  0.00  0.00    -0.010 A 
ATOM     10  C9  <0> d           0.740  -0.515   1.249  0.00  0.00     0.051 C 
ENDROOT
BRANCH   6  11
ATOM     11  C10 <0> d          -1.425  -5.046   0.453  0.00  0.00     0.271 C 
ATOM     12  O1  <0> d          -2.250  -4.633  -0.341  0.00  0.00    -0.266 OA
ATOM     13  N1  <0> d          -1.397  -6.354   0.775  0.00  0.00    -0.263 N 
ATOM     14  H12 <0> d          -0.740  -6.684   1.408  0.00  0.00     0.190 HD
BRANCH  13  15
ATOM     15  N2  <0> d          -2.317  -7.238   0.197  0.00  0.00    -0.268 N 
ATOM     16  C11 <0> d          -2.289  -8.547   0.519  0.00  0.00     0.232 C 
ATOM     17  O2  <0> d          -1.467  -8.959   1.310  0.00  0.00    -0.272 OA
ATOM     18  C12 <0> d          -3.278  -9.498  -0.103  0.00  0.00     0.119 C 
ATOM     19  H13 <0> d          -2.974  -6.909  -0.436  0.00  0.00     0.190 HD
ENDBRANCH  13  15
ENDBRANCH   6  11
TORSDOF 2
