REMARK  2 active torsions:
REMARK  status: ('A' for Active; 'I' for Inactive)
REMARK    1  A    between atoms: C2_2  and  C3_3 
REMARK    2  A    between atoms: C2_2  and  N2_6 
ROOT
ATOM      1  N2  <0> d           0.306  -0.555   1.330  0.00  0.00     0.104 N 
ATOM      2  C4  <0> d          -0.680  -0.106   2.324  0.00  0.00     0.299 C 
ATOM      3  C5  <0> d          -0.293  -0.653   3.701  0.00  0.00     0.199 C 
ATOM      4  O1  <0> d          -0.202  -2.078   3.634  0.00  0.00    -0.377 OA
ATOM      5  C6  <0> d           0.749  -2.550   2.675  0.00  0.00     0.080 C 
ATOM      6  C7  <0> d           0.373  -2.023   1.288  0.00  0.00     0.310 C 
ATOM      7  C8  <0> d           2.145  -2.048   3.051  0.00  0.00     0.047 C 
ATOM      8  C9  <0> d           0.743  -4.080   2.659  0.00  0.00     0.047 C 
ENDROOT
BRANCH   1   9
ATOM      9  C2  <0> d           0.002  -0.004   0.002  0.00  0.00     0.279 C 
ATOM     10  C1  <0> d          -1.470  -0.257  -0.330  0.00  0.00     0.050 C 
BRANCH   9  11
ATOM     11  C3  <0> d           0.270   1.479  -0.000  0.00  0.00     0.104 C 
ATOM     12  S1  <0> d           0.950   2.170   1.272  0.00  0.00    -0.064 SA
ATOM     13  N1  <0> d          -0.062   2.222  -1.074  0.00  0.00    -0.392 N 
ATOM     14  H5  <0> d          -0.474   1.803  -1.845  0.00  0.00     0.156 HD
ATOM     15  H6  <0> d           0.111   3.177  -1.075  0.00  0.00     0.156 HD
ENDBRANCH   9  11
ENDBRANCH   1   9
TORSDOF 2
