REMARK  7 active torsions:
REMARK  status: ('A' for Active; 'I' for Inactive)
REMARK    1  A    between atoms: C2_2  and  C3_3 
REMARK    2  A    between atoms: C3_3  and  C4_4 
REMARK    3  A    between atoms: C4_4  and  C5_5 
REMARK    4  A    between atoms: C8_8  and  N1_11 
REMARK    5  A    between atoms: C12_13  and  C15_17 
REMARK       I    between atoms: C15_17  and  N2_19 
REMARK    6  A    between atoms: N2_19  and  C16_20 
REMARK    7  A    between atoms: C19_23  and  N3_26 
ROOT
ATOM      1  C15 <0> d           3.481  -6.481   7.781  0.00  0.00     0.228 C 
ATOM      2  O2  <0> d           2.508  -6.795   7.128  0.00  0.00    -0.273 OA
ATOM      3  N2  <0> d           4.230  -7.431   8.375  0.00  0.00    -0.327 N 
ATOM      4  H19 <0> d           4.957  -7.178   8.965  0.00  0.00     0.169 HD
ENDROOT
BRANCH   1   5
ATOM      5  C12 <0> d           3.852  -5.028   7.928  0.00  0.00     0.105 C 
ATOM      6  C11 <0> d           2.857  -4.123   7.167  0.00  0.00     0.146 C 
ATOM      7  N1  <0> d           3.445  -3.928   5.837  0.00  0.00    -0.317 N 
ATOM      8  C14 <0> d           4.748  -4.255   5.826  0.00  0.00     0.225 C 
ATOM      9  C13 <0> d           5.180  -4.718   7.200  0.00  0.00     0.119 C 
ATOM     10  O1  <0> d           5.474  -4.185   4.857  0.00  0.00    -0.273 OA
BRANCH   7  11
ATOM     11  C8  <0> d           2.737  -3.466   4.721  0.00  0.00     0.037 A 
ATOM     12  C7  <0> d           3.405  -3.208   3.532  0.00  0.00     0.030 A 
ATOM     13  C6  <0> d           2.704  -2.752   2.432  0.00  0.00     0.009 A 
ATOM     14  C5  <0> d           1.338  -2.555   2.515  0.00  0.00    -0.058 A 
ATOM     15  C10 <0> d           0.670  -2.807   3.700  0.00  0.00     0.009 A 
ATOM     16  C9  <0> d           1.365  -3.266   4.801  0.00  0.00     0.030 A 
BRANCH  14  17
ATOM     17  C4  <0> d           0.576  -2.058   1.314  0.00  0.00     0.038 C 
BRANCH  17  18
ATOM     18  C3  <0> d           0.546  -0.528   1.325  0.00  0.00     0.004 C 
BRANCH  18  19
ATOM     19  C2  <0> d          -0.228  -0.024   0.105  0.00  0.00    -0.004 C 
ATOM     20  C1  <0> d          -0.257   1.505   0.117  0.00  0.00     0.005 C 
ENDBRANCH  18  19
ENDBRANCH  17  18
ENDBRANCH  14  17
ENDBRANCH   7  11
ENDBRANCH   1   5
BRANCH   3  21
ATOM     21  C16 <0> d           3.958  -8.785   8.139  0.00  0.00     0.034 A 
ATOM     22  C21 <0> d           3.505  -9.196   6.893  0.00  0.00     0.032 A 
ATOM     23  C20 <0> d           3.243 -10.531   6.660  0.00  0.00     0.032 A 
ATOM     24  C19 <0> d           3.422 -11.461   7.675  0.00  0.00     0.045 A 
ATOM     25  C18 <0> d           3.870 -11.050   8.923  0.00  0.00     0.032 A 
ATOM     26  C17 <0> d           4.138  -9.716   9.155  0.00  0.00     0.032 A 
BRANCH  24  27
ATOM     27  N3  <0> d           3.150 -12.818   7.439  0.00  0.00    -0.252 N 
ATOM     28  C26 <0> d           3.785 -13.437   6.433  0.00  0.00     0.231 C 
ATOM     29  C25 <0> d           3.533 -14.889   6.125  0.00  0.00     0.104 C 
ATOM     30  O4  <0> d           4.581 -12.816   5.761  0.00  0.00    -0.273 OA
ATOM     31  C24 <0> d           3.126 -15.615   7.411  0.00  0.00     0.019 C 
ATOM     32  C23 <0> d           1.917 -14.894   8.017  0.00  0.00     0.104 C 
ATOM     33  C22 <0> d           2.261 -13.443   8.226  0.00  0.00     0.231 C 
ATOM     34  O3  <0> d           1.724 -12.828   9.122  0.00  0.00    -0.273 OA
ENDBRANCH  24  27
ENDBRANCH   3  21
TORSDOF 7
