REMARK  5 active torsions:
REMARK  status: ('A' for Active; 'I' for Inactive)
REMARK    1  A    between atoms: C8_11  and  C9_13 
REMARK    2  A    between atoms: C9_13  and  N3_14 
REMARK    3  A    between atoms: N3_14  and  C10_15 
REMARK       I    between atoms: N3_14  and  C15_21 
REMARK    4  A    between atoms: C10_15  and  C11_16 
REMARK    5  A    between atoms: C15_21  and  C16_23 
ROOT
ATOM      1  N3  <0> d           0.112  -0.006  -0.187  0.00  0.00    -0.337 N 
ATOM      2  C15 <0> d           1.078  -0.668   0.480  0.00  0.00     0.274 C 
ATOM      3  O3  <0> d           1.041  -1.881   0.560  0.00  0.00    -0.266 OA
ENDROOT
BRANCH   1   4
ATOM      4  C9  <0> d           0.218   1.441  -0.385  0.00  0.00     0.204 C 
BRANCH   4   5
ATOM      5  C8  <0> d          -0.344   2.155   0.817  0.00  0.00     0.125 A 
ATOM      6  N1  <0> d          -0.330   3.514   0.824  0.00  0.00    -0.309 N 
ATOM      7  C7  <0> d          -0.829   4.202   1.878  0.00  0.00     0.259 A 
ATOM      8  H1  <0> d           0.052   4.010   0.045  0.00  0.00     0.170 HD
ATOM      9  C5  <0> d          -1.368   3.422   3.002  0.00  0.00     0.061 A 
ATOM     10  O1  <0> d          -0.827   5.419   1.896  0.00  0.00    -0.267 OA
ATOM     11  C4  <0> d          -1.336   2.013   2.907  0.00  0.00     0.074 A 
ATOM     12  C6  <0> d          -1.900   4.033   4.135  0.00  0.00     0.019 A 
ATOM     13  C3  <0> d          -1.841   1.245   3.958  0.00  0.00     0.032 A 
ATOM     14  N2  <0> d          -0.813   1.440   1.794  0.00  0.00    -0.233 NA
ATOM     15  C2  <0> d          -2.362   1.869   5.069  0.00  0.00     0.002 A 
ATOM     16  C1  <0> d          -2.392   3.254   5.159  0.00  0.00     0.001 A 
ENDBRANCH   4   5
ENDBRANCH   1   4
BRANCH   1  17
ATOM     17  C10 <0> d          -1.044  -0.735  -0.715  0.00  0.00     0.158 C 
BRANCH  17  18
ATOM     18  C11 <0> d          -0.696  -1.320  -2.086  0.00  0.00     0.139 C 
ATOM     19  O2  <0> d          -0.396  -0.259  -3.008  0.00  0.00    -0.384 OA
ATOM     20  C14 <0> d          -0.864  -0.684  -4.306  0.00  0.00     0.168 C 
ATOM     21  C13 <0> d          -2.211  -1.384  -3.994  0.00  0.00     0.029 C 
ATOM     22  C12 <0> d          -1.907  -2.089  -2.650  0.00  0.00     0.035 C 
ENDBRANCH  17  18
ENDBRANCH   1  17
BRANCH   2  23
ATOM     23  C16 <0> d           2.182   0.080   1.114  0.00  0.00     0.142 A 
ATOM     24  N5  <0> d           2.288   1.419   1.188  0.00  0.00    -0.224 NA
ATOM     25  C22 <0> d           3.404   1.729   1.827  0.00  0.00     0.134 A 
ATOM     26  N4  <0> d           4.044   0.564   2.169  0.00  0.00    -0.315 N 
ATOM     27  C21 <0> d           3.983   2.969   2.171  0.00  0.00     0.051 A 
ATOM     28  C17 <0> d           3.276  -0.468   1.721  0.00  0.00     0.135 A 
ATOM     29  C18 <0> d           5.234   0.601   2.839  0.00  0.00     0.098 A 
ATOM     30  C19 <0> d           5.798   1.779   3.174  0.00  0.00     0.018 A 
ATOM     31  C20 <0> d           5.167   2.989   2.838  0.00  0.00     0.005 A 
ENDBRANCH   2  23
TORSDOF 5
