REMARK  3 active torsions:
REMARK  status: ('A' for Active; 'I' for Inactive)
REMARK       I    between atoms: N1_6  and  C6_7 
REMARK    1  A    between atoms: C6_7  and  C7_9 
REMARK    2  A    between atoms: C9_11  and  N3_19 
REMARK    3  A    between atoms: C12_14  and  N2_15 
ROOT
ATOM      1  C7  <0> d           2.535  -0.677   2.843  0.00  0.00     0.067 A 
ATOM      2  C8  <0> d           1.897  -0.311   4.030  0.00  0.00     0.052 A 
ATOM      3  C9  <0> d           2.352  -0.812   5.238  0.00  0.00     0.067 A 
ATOM      4  C10 <0> d           3.442  -1.678   5.266  0.00  0.00     0.145 A 
ATOM      5  C11 <0> d           4.074  -2.040   4.089  0.00  0.00     0.081 A 
ATOM      6  C12 <0> d           3.624  -1.550   2.881  0.00  0.00     0.121 A 
ATOM      7  F1  <0> d           3.885  -2.166   6.446  0.00  0.00    -0.204 F 
ENDROOT
BRANCH   1   8
ATOM      8  C6  <0> d           2.055  -0.146   1.551  0.00  0.00     0.257 C 
ATOM      9  N1  <0> d           0.791  -0.388   1.151  0.00  0.00    -0.339 N 
ATOM     10  C2  <0> d           0.155   0.158  -0.057  0.00  0.00     0.028 C 
ATOM     11  C5  <0> d          -0.184  -1.243   1.852  0.00  0.00     0.127 C 
ATOM     12  C1  <0> d           0.106   1.685   0.025  0.00  0.00     0.038 C 
ATOM     13  C3  <0> d          -1.278  -0.410  -0.118  0.00  0.00     0.032 C 
ATOM     14  C14 <0> d           0.942  -0.270  -1.298  0.00  0.00     0.038 C 
ATOM     15  C4  <0> d          -1.181  -1.690   0.754  0.00  0.00     0.022 C 
ATOM     16  O1  <0> d           2.800   0.508   0.848  0.00  0.00    -0.267 OA
ENDBRANCH   1   8
BRANCH   6  17
ATOM     17  N2  <0> d           4.298  -1.945   1.624  0.00  0.00    -0.115 N 
ATOM     18  O2  <0> d           5.223  -2.723   1.653  0.00  0.00    -0.532 OA
ATOM     19  O3  <0> d           3.925  -1.490   0.568  0.00  0.00    -0.532 OA
ENDBRANCH   6  17
BRANCH   3  20
ATOM     20  N3  <0> d           1.716  -0.449   6.430  0.00  0.00    -0.392 N 
ATOM     21  C13 <0> d           0.570   0.462   6.401  0.00  0.00     0.146 C 
ATOM     22  H12 <0> d           2.035  -0.800   7.277  0.00  0.00     0.159 HD
ENDBRANCH   3  20
TORSDOF 3
