REMARK  6 active torsions:
REMARK  status: ('A' for Active; 'I' for Inactive)
REMARK    1  A    between atoms: C2_2  and  C3_3 
REMARK    2  A    between atoms: C8_10  and  C12_14 
REMARK    3  A    between atoms: C12_14  and  C13_15 
REMARK    4  A    between atoms: C12_14  and  N6_24 
REMARK    5  A    between atoms: N5_19  and  C14_20 
REMARK    6  A    between atoms: N7_27  and  C22_30 
ROOT
ATOM      1  C12 <0> d           5.407  -3.382  -3.379  0.00  0.00     0.281 C 
ENDROOT
BRANCH   1   2
ATOM      2  C8  <0> d           4.791  -2.166  -4.072  0.00  0.00     0.138 A 
ATOM      3  C7  <0> d           5.890  -1.459  -4.833  0.00  0.00     0.232 A 
ATOM      4  N1  <0> d           5.774  -1.281  -6.138  0.00  0.00    -0.326 N 
ATOM      5  O1  <0> d           6.876  -1.055  -4.247  0.00  0.00    -0.272 OA
ATOM      6  C6  <0> d           4.719  -1.698  -6.839  0.00  0.00     0.044 A 
ATOM      7  H42 <0> d           6.490  -0.825  -6.608  0.00  0.00     0.169 HD
ATOM      8  C5  <0> d           4.664  -1.475  -8.227  0.00  0.00     0.031 A 
ATOM      9  C10 <0> d           3.588  -2.398  -6.205  0.00  0.00    -0.012 A 
ATOM     10  C4  <0> d           3.595  -1.895  -8.951  0.00  0.00     0.009 A 
ATOM     11  C3  <0> d           2.511  -2.559  -8.377  0.00  0.00    -0.058 A 
ATOM     12  C11 <0> d           2.466  -2.819  -7.045  0.00  0.00     0.020 A 
ATOM     13  C9  <0> d           3.589  -2.642  -4.864  0.00  0.00     0.003 A 
BRANCH  11  14
ATOM     14  C2  <0> d           1.363  -2.993  -9.252  0.00  0.00     0.034 C 
ATOM     15  C1  <0> d           0.324  -1.871  -9.323  0.00  0.00     0.010 C 
ENDBRANCH  11  14
ENDBRANCH   1   2
BRANCH   1  16
ATOM     16  C13 <0> d           6.372  -2.913  -2.288  0.00  0.00     0.262 A 
ATOM     17  N5  <0> d           5.623  -2.381  -1.130  0.00  0.00    -0.176 NA
ATOM     18  N4  <0> d           5.981  -3.200  -0.088  0.00  0.00    -0.218 N 
ATOM     19  N3  <0> d           6.880  -4.163  -0.547  0.00  0.00    -0.060 NA
ATOM     20  H13 <0> d           5.661  -3.121   0.824  0.00  0.00     0.206 HD
ATOM     21  N2  <0> d           7.130  -4.051  -1.749  0.00  0.00    -0.149 NA
BRANCH  17  22
ATOM     22  C14 <0> d           5.995  -0.986  -0.859  0.00  0.00     0.025 C 
ATOM     23  C15 <0> d           5.368  -0.076  -1.917  0.00  0.00     0.033 C 
ATOM     24  C16 <0> d           5.485  -0.583   0.527  0.00  0.00     0.033 C 
ATOM     25  C17 <0> d           7.518  -0.846  -0.902  0.00  0.00     0.033 C 
ENDBRANCH  17  22
ENDBRANCH   1  16
BRANCH   1  26
ATOM     26  N6  <0> d           6.138  -4.189  -4.365  0.00  0.00     0.101 N 
ATOM     27  C21 <0> d           5.369  -4.324  -5.610  0.00  0.00     0.300 C 
ATOM     28  C20 <0> d           6.135  -5.218  -6.586  0.00  0.00     0.265 C 
ATOM     29  N7  <0> d           7.450  -4.625  -6.864  0.00  0.00    -0.064 N 
ATOM     30  C19 <0> d           8.216  -4.521  -5.616  0.00  0.00     0.265 C 
ATOM     31  H43 <0> d           7.327  -3.706  -7.261  0.00  0.00     0.280 HD
ATOM     32  C18 <0> d           7.467  -3.620  -4.631  0.00  0.00     0.300 C 
BRANCH  29  33
ATOM     33  C22 <0> d           8.179  -5.476  -7.816  0.00  0.00     0.188 C 
ATOM     34  C27 <0> d           7.381  -5.585  -9.117  0.00  0.00     0.033 C 
ATOM     35  C26 <0> d           8.140  -6.470 -10.107  0.00  0.00     0.002 C 
ATOM     36  C25 <0> d           9.509  -5.852 -10.399  0.00  0.00     0.000 C 
ATOM     37  C24 <0> d          10.306  -5.742  -9.098  0.00  0.00     0.002 C 
ATOM     38  C23 <0> d           9.548  -4.857  -8.107  0.00  0.00     0.033 C 
ENDBRANCH  29  33
ENDBRANCH   1  26
TORSDOF 6
