REMARK  3 active torsions:
REMARK  status: ('A' for Active; 'I' for Inactive)
REMARK    1  A    between atoms: C6_6  and  N1_8 
REMARK       I    between atoms: N1_8  and  C8_9 
REMARK    2  A    between atoms: C8_9  and  C9_11 
REMARK       I    between atoms: N2_16  and  C16_19 
REMARK    3  A    between atoms: C16_19  and  C17_21 
ROOT
ATOM      1  C9  <0> d          -1.386   1.375  -6.432  0.00  0.00     0.087 A 
ATOM      2  C10 <0> d           0.127   1.592  -6.494  0.00  0.00     0.025 A 
ATOM      3  C11 <0> d          -0.605   1.685  -5.156  0.00  0.00    -0.025 A 
ATOM      4  C12 <0> d          -0.778   3.074  -4.534  0.00  0.00     0.030 C 
ATOM      5  C13 <0> d           0.428   3.364  -3.632  0.00  0.00     0.126 C 
ATOM      6  N2  <0> d           0.613   2.236  -2.711  0.00  0.00    -0.350 N 
ATOM      7  C14 <0> d           0.804   0.887  -3.258  0.00  0.00     0.126 C 
ATOM      8  C15 <0> d          -0.399   0.545  -4.152  0.00  0.00     0.030 C 
ATOM      9  C16 <0> d           0.612   2.437  -1.378  0.00  0.00     0.251 C 
ATOM     10  O2  <0> d           0.344   3.532  -0.930  0.00  0.00    -0.271 OA
ENDROOT
BRANCH   1  11
ATOM     11  C8  <0> d          -2.269   2.462  -6.989  0.00  0.00     0.227 C 
ATOM     12  N1  <0> d          -3.560   2.542  -6.609  0.00  0.00    -0.327 N 
ATOM     13  H9  <0> d          -3.899   1.954  -5.916  0.00  0.00     0.169 HD
ATOM     14  O1  <0> d          -1.818   3.265  -7.778  0.00  0.00    -0.273 OA
BRANCH  12  15
ATOM     15  C6  <0> d          -4.411   3.472  -7.216  0.00  0.00     0.035 A 
ATOM     16  C5  <0> d          -4.245   3.797  -8.556  0.00  0.00     0.036 A 
ATOM     17  C4  <0> d          -5.087   4.716  -9.152  0.00  0.00    -0.059 A 
ATOM     18  C3  <0> d          -6.094   5.312  -8.415  0.00  0.00     0.013 A 
ATOM     19  C24 <0> d          -4.907   5.069 -10.605  0.00  0.00     0.048 C 
ATOM     20  C2  <0> d          -6.262   4.991  -7.081  0.00  0.00    -0.059 A 
ATOM     21  C1  <0> d          -7.361   5.643  -6.282  0.00  0.00     0.048 C 
ATOM     22  C7  <0> d          -5.427   4.068  -6.481  0.00  0.00     0.036 A 
ENDBRANCH  12  15
ENDBRANCH   1  11
BRANCH   9  23
ATOM     23  C17 <0> d           0.944   1.302  -0.444  0.00  0.00     0.279 C 
ATOM     24  C18 <0> d          -0.325   0.862   0.309  0.00  0.00     0.043 C 
ATOM     25  C19 <0> d          -0.223  -0.493   0.839  0.00  0.00     0.003 C 
ATOM     26  C20 <0> d           0.929  -0.621   1.861  0.00  0.00     0.002 C 
ATOM     27  C21 <0> d           2.235  -0.693   1.116  0.00  0.00     0.028 C 
ATOM     28  C22 <0> d           2.885   0.687   0.911  0.00  0.00     0.235 C 
ATOM     29  N3  <0> d           1.907   1.769   0.566  0.00  0.00    -0.062 N 
ATOM     30  C23 <0> d           2.613   2.949   0.066  0.00  0.00     0.270 C 
ATOM     31  H36 <0> d           1.393   2.027   1.415  0.00  0.00     0.280 HD
ENDBRANCH   9  23
TORSDOF 3
