REMARK  5 active torsions:
REMARK  status: ('A' for Active; 'I' for Inactive)
REMARK    1  A    between atoms: C3_4  and  C5_7 
REMARK    2  A    between atoms: C5_7  and  N2_8 
REMARK       I    between atoms: N2_8  and  C6_9 
REMARK    3  A    between atoms: C6_9  and  C7_11 
REMARK    4  A    between atoms: C7_11  and  C8_12 
REMARK    5  A    between atoms: C11_15  and  N3_18 
ROOT
ATOM      1  N2  <0> d          -2.447  -3.317   1.371  0.00  0.00    -0.355 N 
ATOM      2  C6  <0> d          -3.484  -4.141   1.617  0.00  0.00     0.222 C 
ATOM      3  O1  <0> d          -4.046  -4.699   0.698  0.00  0.00    -0.273 OA
ATOM      4  H7  <0> d          -1.997  -2.871   2.106  0.00  0.00     0.162 HD
ENDROOT
BRANCH   2   5
ATOM      5  C7  <0> d          -3.944  -4.371   3.033  0.00  0.00     0.141 C 
BRANCH   5   6
ATOM      6  C8  <0> d          -5.110  -5.327   3.034  0.00  0.00    -0.049 A 
ATOM      7  C13 <0> d          -4.886  -6.688   3.130  0.00  0.00     0.010 A 
ATOM      8  C12 <0> d          -5.952  -7.566   3.137  0.00  0.00     0.029 A 
ATOM      9  C11 <0> d          -7.249  -7.081   3.034  0.00  0.00     0.025 A 
ATOM     10  C10 <0> d          -7.471  -5.714   2.932  0.00  0.00     0.029 A 
ATOM     11  C9  <0> d          -6.400  -4.841   2.932  0.00  0.00     0.010 A 
BRANCH   9  12
ATOM     12  N3  <0> d          -8.329  -7.967   3.035  0.00  0.00    -0.399 N 
ATOM     13  H14 <0> d          -9.235  -7.627   2.964  0.00  0.00     0.156 HD
ATOM     14  H15 <0> d          -8.174  -8.922   3.107  0.00  0.00     0.156 HD
ENDBRANCH   9  12
ENDBRANCH   5   6
ENDBRANCH   2   5
BRANCH   1  15
ATOM     15  C5  <0> d          -1.999  -3.093  -0.006  0.00  0.00     0.182 C 
BRANCH  15  16
ATOM     16  C3  <0> d          -0.834  -2.137  -0.006  0.00  0.00     0.059 A 
ATOM     17  N1  <0> d          -1.013  -0.832   0.002  0.00  0.00    -0.249 NA
ATOM     18  C2  <0> d           0.002  -0.004   0.002  0.00  0.00     0.071 A 
ATOM     19  C1  <0> d          -0.018   1.503   0.010  0.00  0.00     0.078 C 
ATOM     20  S1  <0> d           1.335  -1.032  -0.017  0.00  0.00    -0.085 SA
ATOM     21  C4  <0> d           0.449  -2.582  -0.014  0.00  0.00     0.080 A 
ENDBRANCH  15  16
ENDBRANCH   1  15
TORSDOF 5
