REMARK  4 active torsions:
REMARK  status: ('A' for Active; 'I' for Inactive)
REMARK    1  A    between atoms: C4_4  and  C14_16 
REMARK    2  A    between atoms: C7_7  and  N1_8 
REMARK    3  A    between atoms: C14_16  and  N3_19 
REMARK    4  A    between atoms: N2_17  and  O2_18 
ROOT
ATOM      1  C1  <0> d          -0.018   1.503   0.010  0.00  0.00     0.050 C 
ATOM      2  C2  <0> d           0.002  -0.004   0.002  0.00  0.00    -0.035 A 
ATOM      3  C3  <0> d           0.006  -0.686  -1.195  0.00  0.00     0.024 A 
ATOM      4  C4  <0> d           0.025  -2.081  -1.202  0.00  0.00     0.012 A 
ATOM      5  C5  <0> d           0.040  -2.783   0.005  0.00  0.00     0.017 A 
ATOM      6  C6  <0> d           0.036  -2.096   1.199  0.00  0.00     0.031 A 
ATOM      7  C7  <0> d           0.023  -0.705   1.203  0.00  0.00     0.036 A 
ENDROOT
BRANCH   7   8
ATOM      8  N1  <0> d           0.025  -0.013   2.413  0.00  0.00    -0.371 N 
ATOM      9  C11 <0> d           1.288   0.380   3.058  0.00  0.00     0.104 C 
ATOM     10  C10 <0> d           1.204   1.876   3.403  0.00  0.00     0.193 C 
ATOM     11  C12 <0> d           2.455   0.136   2.099  0.00  0.00     0.034 C 
ATOM     12  O1  <0> d           0.008   2.119   4.147  0.00  0.00    -0.383 OA
ATOM     13  C9  <0> d          -1.196   1.833   3.431  0.00  0.00     0.135 C 
ATOM     14  C8  <0> d          -1.235   0.341   3.085  0.00  0.00     0.155 C 
ATOM     15  C13 <0> d          -2.405   2.189   4.299  0.00  0.00     0.041 C 
ENDBRANCH   7   8
BRANCH   4  16
ATOM     16  C14 <0> d           0.028  -2.816  -2.486  0.00  0.00     0.158 C 
ATOM     17  N2  <0> d           0.013  -2.161  -3.610  0.00  0.00    -0.118 NA
BRANCH  17  18
ATOM     18  O2  <0> d           0.017  -2.864  -4.840  0.00  0.00    -0.264 OA
ATOM     19  H19 <0> d           0.005  -2.293  -5.620  0.00  0.00     0.247 HD
ENDBRANCH  17  18
BRANCH  16  20
ATOM     20  N3  <0> d           0.047  -4.200  -2.491  0.00  0.00    -0.382 N 
ATOM     21  H20 <0> d           0.058  -4.689  -1.653  0.00  0.00     0.157 HD
ATOM     22  H21 <0> d           0.049  -4.682  -3.333  0.00  0.00     0.157 HD
ENDBRANCH  16  20
ENDBRANCH   4  16
TORSDOF 4
