REMARK  5 active torsions:
REMARK  status: ('A' for Active; 'I' for Inactive)
REMARK    1  A    between atoms: C2_3  and  C10_15 
REMARK    2  A    between atoms: C3_4  and  O3_14 
REMARK    3  A    between atoms: C10_15  and  C11_16 
REMARK    4  A    between atoms: C13_20  and  C14_21 
REMARK    5  A    between atoms: C17_24  and  O4_27 
ROOT
ATOM      1  C1  <0> d           0.449   1.483  -0.025  0.00  0.00     0.163 C 
ATOM      2  N1  <0> d           0.196   0.050   0.146  0.00  0.00    -0.303 N 
ATOM      3  C2  <0> d          -1.170  -0.506   0.215  0.00  0.00     0.130 C 
ATOM      4  C3  <0> d          -1.401  -1.087   1.600  0.00  0.00     0.176 C 
ATOM      5  C4  <0> d          -0.411  -2.144   1.991  0.00  0.00    -0.004 A 
ATOM      6  C5  <0> d          -0.827  -3.103   2.911  0.00  0.00     0.011 A 
ATOM      7  C6  <0> d           0.034  -4.091   3.336  0.00  0.00     0.001 A 
ATOM      8  C7  <0> d           1.329  -4.139   2.852  0.00  0.00     0.002 A 
ATOM      9  C8  <0> d           1.745  -3.197   1.933  0.00  0.00     0.026 A 
ATOM     10  C9  <0> d           0.875  -2.213   1.498  0.00  0.00     0.088 A 
ATOM     11  S1  <0> d           1.430  -1.063   0.269  0.00  0.00     0.261 S 
ATOM     12  O1  <0> d           2.551  -0.382   0.815  0.00  0.00    -0.200 OA
ATOM     13  O2  <0> d           1.482  -1.764  -0.966  0.00  0.00    -0.200 OA
ENDROOT
BRANCH   3  14
ATOM     14  C10 <0> d          -1.327  -1.607  -0.836  0.00  0.00     0.045 C 
BRANCH  14  15
ATOM     15  C11 <0> d          -1.322  -0.983  -2.233  0.00  0.00     0.085 A 
ATOM     16  C13 <0> d          -2.456   0.014  -2.376  0.00  0.00     0.076 A 
ATOM     17  N3  <0> d          -1.883   1.167  -2.610  0.00  0.00    -0.154 NA
ATOM     18  N2  <0> d          -0.496   1.068  -2.645  0.00  0.00    -0.166 NA
ATOM     19  C12 <0> d          -0.080  -0.139  -2.437  0.00  0.00     0.125 A 
BRANCH  16  20
ATOM     20  C14 <0> d          -3.896  -0.261  -2.273  0.00  0.00    -0.009 A 
ATOM     21  C19 <0> d          -4.808   0.798  -2.182  0.00  0.00     0.016 A 
ATOM     22  C18 <0> d          -6.156   0.535  -2.090  0.00  0.00     0.037 A 
ATOM     23  C17 <0> d          -6.612  -0.778  -2.076  0.00  0.00     0.068 A 
ATOM     24  C16 <0> d          -5.711  -1.832  -2.161  0.00  0.00     0.037 A 
ATOM     25  C15 <0> d          -4.361  -1.581  -2.259  0.00  0.00     0.016 A 
BRANCH  23  26
ATOM     26  O4  <0> d          -7.942  -1.031  -1.981  0.00  0.00    -0.356 OA
ATOM     27  C20 <0> d          -8.813   0.099  -1.897  0.00  0.00     0.210 C 
ENDBRANCH  23  26
ENDBRANCH  16  20
ENDBRANCH  14  15
ENDBRANCH   3  14
BRANCH   4  28
ATOM     28  O3  <0> d          -1.334  -0.028   2.556  0.00  0.00    -0.389 OA
ATOM     29  H11 <0> d          -1.472  -0.312   3.470  0.00  0.00     0.210 HD
ENDBRANCH   4  28
TORSDOF 5
