REMARK  2 active torsions:
REMARK  status: ('A' for Active; 'I' for Inactive)
REMARK    1  A    between atoms: C3_3  and  C5_6 
REMARK    2  A    between atoms: C10_13  and  C11_15 
ROOT
ATOM      1  C5  <0> d           3.492   1.498  -0.994  0.00  0.00     0.257 C 
ATOM      2  C6  <0> d           3.471   1.407   0.534  0.00  0.00     0.192 A 
ATOM      3  C7  <0> d           4.795   2.004   1.002  0.00  0.00     0.043 A 
ATOM      4  N1  <0> d           4.494   2.943   1.811  0.00  0.00    -0.249 NA
ATOM      5  C8  <0> d           3.153   3.128   1.887  0.00  0.00     0.227 A 
ATOM      6  N2  <0> d           2.470   2.281   1.146  0.00  0.00    -0.269 NA
ATOM      7  C9  <0> d           6.111   1.550   0.422  0.00  0.00     0.101 C 
ATOM      8  C10 <0> d           5.925   1.561  -1.107  0.00  0.00     0.292 C 
ATOM      9  N3  <0> d           4.710   0.832  -1.479  0.00  0.00    -0.050 N 
ATOM     10  H10 <0> d           4.754  -0.097  -1.087  0.00  0.00     0.279 HD
ATOM     11  H11 <0> d           4.666   0.759  -2.484  0.00  0.00     0.279 HD
ENDROOT
BRANCH   1  12
ATOM     12  C3  <0> d           2.276   0.811  -1.560  0.00  0.00     0.015 A 
ATOM     13  C2  <0> d           1.121   1.356  -2.014  0.00  0.00     0.017 A 
ATOM     14  C1  <0> d           0.130   0.521  -2.495  0.00  0.00     0.008 A 
ATOM     15  C4  <0> d           0.342  -0.818  -2.499  0.00  0.00     0.050 A 
ATOM     16  S1  <0> d           1.984  -0.933  -1.807  0.00  0.00    -0.104 SA
ENDBRANCH   1  12
BRANCH   8  17
ATOM     17  C11 <0> d           5.812   2.985  -1.586  0.00  0.00     0.205 C 
ATOM     18  O1  <0> d           6.640   3.812  -1.243  0.00  0.00    -0.646 OA
ATOM     19  O2  <0> d           4.892   3.311  -2.317  0.00  0.00    -0.646 OA
ENDBRANCH   8  17
TORSDOF 2
