REMARK  2 active torsions:
REMARK  status: ('A' for Active; 'I' for Inactive)
REMARK    1  A    between atoms: C11_12  and  O2_14 
REMARK    2  A    between atoms: C14_16  and  O4_20 
ROOT
ATOM      1  C1  <0> d          -0.018   1.503   0.010  0.00  0.00     0.052 C 
ATOM      2  C2  <0> d           0.002  -0.004   0.002  0.00  0.00    -0.016 C 
ATOM      3  C3  <0> d           0.022  -0.717   1.130  0.00  0.00    -0.010 C 
ATOM      4  C4  <0> d          -0.009  -2.204   1.176  0.00  0.00     0.036 C 
ATOM      5  C5  <0> d           0.370  -2.925  -0.097  0.00  0.00     0.048 C 
ATOM      6  C6  <0> d          -0.778  -3.809  -0.599  0.00  0.00     0.058 C 
ATOM      7  C7  <0> d          -2.039  -2.959  -0.637  0.00  0.00    -0.021 C 
ATOM      8  C8  <0> d          -2.364  -2.377   0.513  0.00  0.00    -0.013 C 
ATOM      9  C9  <0> d          -1.395  -2.676   1.655  0.00  0.00     0.045 C 
ATOM     10  C10 <0> d          -1.334  -4.197   1.752  0.00  0.00     0.173 C 
ATOM     11  O1  <0> d          -1.534  -4.788   2.787  0.00  0.00    -0.293 OA
ATOM     12  C11 <0> d          -1.004  -4.916   0.453  0.00  0.00     0.122 C 
ATOM     13  C12 <0> d          -2.173  -5.810   0.034  0.00  0.00     0.055 C 
ATOM     14  C13 <0> d          -1.807  -2.023   2.977  0.00  0.00     0.029 C 
ATOM     15  C14 <0> d           0.871  -2.025  -1.213  0.00  0.00     0.124 C 
ATOM     16  C15 <0> d          -0.006  -0.780  -1.256  0.00  0.00     0.189 C 
ATOM     17  O3  <0> d          -0.649  -0.453  -2.231  0.00  0.00    -0.289 OA
ATOM     18  C16 <0> d           2.323  -1.627  -0.941  0.00  0.00     0.055 C 
ENDROOT
BRANCH  12  19
ATOM     19  O2  <0> d           0.182  -5.698   0.608  0.00  0.00    -0.382 OA
ATOM     20  H13 <0> d           0.101  -6.411   1.257  0.00  0.00     0.211 HD
ENDBRANCH  12  19
BRANCH  15  21
ATOM     21  O4  <0> d           0.784  -2.714  -2.462  0.00  0.00    -0.382 OA
ATOM     22  H20 <0> d           1.088  -2.196  -3.219  0.00  0.00     0.211 HD
ENDBRANCH  15  21
TORSDOF 2
