REMARK  6 active torsions:
REMARK  status: ('A' for Active; 'I' for Inactive)
REMARK    1  A    between atoms: O1_2  and  C2_3 
REMARK    2  A    between atoms: C5_6  and  C8_9 
REMARK    3  A    between atoms: C9_10  and  C10_11 
REMARK       I    between atoms: C10_11  and  N1_13 
REMARK    4  A    between atoms: N1_13  and  C11_14 
REMARK    5  A    between atoms: C12_15  and  C19_23 
REMARK       I    between atoms: C19_23  and  N2_25 
REMARK    6  A    between atoms: N2_25  and  C20_26 
ROOT
ATOM      1  C11 <0> d          -1.363   5.325  -1.991  0.00  0.00     0.093 A 
ATOM      2  C12 <0> d          -1.227   3.967  -2.245  0.00  0.00     0.073 A 
ATOM      3  C13 <0> d          -0.928   3.100  -1.118  0.00  0.00    -0.026 A 
ATOM      4  C14 <0> d          -0.813   3.724   0.074  0.00  0.00    -0.008 A 
ATOM      5  S1  <0> d          -1.096   5.435  -0.283  0.00  0.00    -0.075 SA
ATOM      6  C15 <0> d          -0.514   3.094   1.399  0.00  0.00     0.047 C 
ATOM      7  C16 <0> d          -0.726   1.578   1.271  0.00  0.00     0.005 C 
ATOM      8  C17 <0> d          -0.013   1.086   0.008  0.00  0.00     0.005 C 
ATOM      9  C18 <0> d          -0.749   1.591  -1.234  0.00  0.00     0.041 C 
ENDROOT
BRANCH   1  10
ATOM     10  N1  <0> d          -1.644   6.344  -2.886  0.00  0.00    -0.317 N 
ATOM     11  C10 <0> d          -1.739   7.616  -2.451  0.00  0.00     0.246 C 
ATOM     12  O2  <0> d          -1.577   7.869  -1.271  0.00  0.00    -0.268 OA
ATOM     13  H11 <0> d          -1.773   6.142  -3.826  0.00  0.00     0.169 HD
BRANCH  11  14
ATOM     14  C9  <0> d          -2.035   8.691  -3.395  0.00  0.00     0.075 C 
ATOM     15  C8  <0> d          -2.130   9.966  -2.959  0.00  0.00     0.017 C 
BRANCH  15  16
ATOM     16  C5  <0> d          -2.429  11.047  -3.909  0.00  0.00    -0.036 A 
ATOM     17  C4  <0> d          -2.527  12.369  -3.459  0.00  0.00     0.014 A 
ATOM     18  C3  <0> d          -2.807  13.379  -4.353  0.00  0.00     0.037 A 
ATOM     19  C2  <0> d          -2.990  13.087  -5.699  0.00  0.00     0.068 A 
ATOM     20  C7  <0> d          -2.893  11.775  -6.151  0.00  0.00     0.037 A 
ATOM     21  C6  <0> d          -2.609  10.759  -5.266  0.00  0.00     0.014 A 
BRANCH  19  22
ATOM     22  O1  <0> d          -3.265  14.085  -6.576  0.00  0.00    -0.356 OA
ATOM     23  C1  <0> d          -3.442  13.716  -7.945  0.00  0.00     0.210 C 
ENDBRANCH  19  22
ENDBRANCH  15  16
ENDBRANCH  11  14
ENDBRANCH   1  10
BRANCH   2  24
ATOM     24  C19 <0> d          -1.381   3.428  -3.600  0.00  0.00     0.255 C 
ATOM     25  O3  <0> d          -2.476   3.069  -3.992  0.00  0.00    -0.268 OA
ATOM     26  N2  <0> d          -0.309   3.329  -4.411  0.00  0.00    -0.351 N 
ATOM     27  H20 <0> d           0.564   3.615  -4.099  0.00  0.00     0.163 HD
BRANCH  26  28
ATOM     28  C20 <0> d          -0.463   2.790  -5.765  0.00  0.00     0.099 C 
ATOM     29  C23 <0> d           0.888   2.202  -6.240  0.00  0.00     0.165 C 
ATOM     30  S2  <0> d           0.841   2.497  -8.054  0.00  0.00     0.146 S 
ATOM     31  C22 <0> d          -0.759   3.402  -8.175  0.00  0.00     0.142 C 
ATOM     32  O4  <0> d           1.899   3.379  -8.407  0.00  0.00    -0.228 OA
ATOM     33  O5  <0> d           0.719   1.249  -8.723  0.00  0.00    -0.228 OA
ATOM     34  C21 <0> d          -0.907   3.915  -6.715  0.00  0.00     0.041 C 
ENDBRANCH  26  28
ENDBRANCH   2  24
TORSDOF 6
