REMARK  7 active torsions:
REMARK  status: ('A' for Active; 'I' for Inactive)
REMARK    1  A    between atoms: C3_4  and  N2_9 
REMARK    2  A    between atoms: C4_5  and  C5_6 
REMARK       I    between atoms: C5_6  and  N1_8 
REMARK       I    between atoms: N2_9  and  C6_10 
REMARK    3  A    between atoms: C6_10  and  C7_12 
REMARK    4  A    between atoms: C7_12  and  C8_13 
REMARK    5  A    between atoms: C8_13  and  S2_14 
REMARK    6  A    between atoms: S2_14  and  C9_15 
REMARK    7  A    between atoms: C10_18  and  N5_20 
ROOT
ATOM      1  N2  <0> d           1.543  -1.963  -0.023  0.00  0.00    -0.320 N 
ATOM      2  C6  <0> d           2.826  -2.376  -0.037  0.00  0.00     0.223 C 
ATOM      3  O2  <0> d           3.725  -1.562  -0.041  0.00  0.00    -0.273 OA
ATOM      4  H5  <0> d           0.824  -2.614  -0.020  0.00  0.00     0.169 HD
ENDROOT
BRANCH   2   5
ATOM      5  C7  <0> d           3.143  -3.849  -0.048  0.00  0.00     0.113 C 
BRANCH   5   6
ATOM      6  C8  <0> d           4.660  -4.044  -0.063  0.00  0.00     0.091 C 
BRANCH   6   7
ATOM      7  S2  <0> d           5.042  -5.817  -0.076  0.00  0.00    -0.101 SA
BRANCH   7   8
ATOM      8  C9  <0> d           6.803  -5.874  -0.093  0.00  0.00     0.160 A 
ATOM      9  S3  <0> d           7.890  -7.292  -0.110  0.00  0.00    -0.022 SA
ATOM     10  C10 <0> d           9.439  -6.402  -0.121  0.00  0.00     0.193 A 
ATOM     11  N4  <0> d           9.020  -5.152  -0.104  0.00  0.00    -0.123 NA
ATOM     12  N3  <0> d           7.672  -4.881  -0.089  0.00  0.00    -0.133 NA
BRANCH  10  13
ATOM     13  N5  <0> d          10.738  -6.896  -0.138  0.00  0.00    -0.355 N 
ATOM     14  C14 <0> d          11.894  -5.986  -0.137  0.00  0.00     0.151 C 
ATOM     15  C13 <0> d          12.838  -6.396  -1.268  0.00  0.00     0.187 C 
ATOM     16  O3  <0> d          13.128  -7.792  -1.159  0.00  0.00    -0.388 OA
ATOM     17  C12 <0> d          11.985  -8.639  -1.298  0.00  0.00     0.187 C 
ATOM     18  C11 <0> d          10.998  -8.344  -0.163  0.00  0.00     0.151 C 
ENDBRANCH  10  13
ENDBRANCH   7   8
ENDBRANCH   6   7
ENDBRANCH   5   6
ENDBRANCH   2   5
BRANCH   1  19
ATOM     19  C3  <0> d           1.251  -0.607  -0.013  0.00  0.00     0.092 A 
ATOM     20  S1  <0> d           2.328   0.679  -0.017  0.00  0.00    -0.083 SA
ATOM     21  C2  <0> d           1.186   2.044   0.002  0.00  0.00     0.053 A 
ATOM     22  C1  <0> d          -0.018   1.441   0.010  0.00  0.00     0.027 A 
ATOM     23  C4  <0> d           0.002  -0.004   0.002  0.00  0.00     0.066 A 
BRANCH  23  24
ATOM     24  C5  <0> d          -1.234  -0.792   0.010  0.00  0.00     0.252 C 
ATOM     25  O1  <0> d          -1.181  -2.008   0.003  0.00  0.00    -0.268 OA
ATOM     26  N1  <0> d          -2.430  -0.170   0.024  0.00  0.00    -0.366 N 
ATOM     27  H3  <0> d          -2.472   0.800   0.029  0.00  0.00     0.159 HD
ATOM     28  H4  <0> d          -3.248  -0.691   0.029  0.00  0.00     0.159 HD
ENDBRANCH  23  24
ENDBRANCH   1  19
TORSDOF 7
