REMARK  2 active torsions:
REMARK  status: ('A' for Active; 'I' for Inactive)
REMARK    1  A    between atoms: C3_3  and  N2_8 
REMARK       I    between atoms: N2_8  and  C6_9 
REMARK    2  A    between atoms: C6_9  and  C7_11 
ROOT
ATOM      1  N2  <0> d           3.524   1.904   1.250  0.00  0.00    -0.347 N 
ATOM      2  C6  <0> d           4.234   2.143   2.371  0.00  0.00     0.223 C 
ATOM      3  O2  <0> d           3.677   2.163   3.448  0.00  0.00    -0.273 OA
ATOM      4  H10 <0> d           3.969   1.888   0.388  0.00  0.00     0.163 HD
ENDROOT
BRANCH   1   5
ATOM      5  C3  <0> d           2.081   1.666   1.333  0.00  0.00     0.176 C 
ATOM      6  C2  <0> d           1.427   2.036  -0.001  0.00  0.00     0.036 C 
ATOM      7  C1  <0> d          -0.019   1.525   0.010  0.00  0.00     0.022 C 
ATOM      8  C5  <0> d           0.002  -0.004   0.002  0.00  0.00     0.122 C 
ATOM      9  N1  <0> d           0.882  -0.508   1.049  0.00  0.00    -0.359 N 
ATOM     10  C4  <0> d           1.832   0.217   1.640  0.00  0.00     0.240 C 
ATOM     11  H7  <0> d           0.771  -1.429   1.332  0.00  0.00     0.162 HD
ATOM     12  O1  <0> d           2.533  -0.322   2.471  0.00  0.00    -0.271 OA
ENDBRANCH   1   5
BRANCH   2  13
ATOM     13  C7  <0> d           5.718   2.388   2.285  0.00  0.00     0.092 C 
ATOM     14  C10 <0> d           6.285   2.612   3.708  0.00  0.00     0.154 C 
ATOM     15  S1  <0> d           7.672   3.781   3.411  0.00  0.00     0.145 S 
ATOM     16  C9  <0> d           7.471   4.040   1.598  0.00  0.00     0.141 C 
ATOM     17  O3  <0> d           8.902   3.110   3.649  0.00  0.00    -0.228 OA
ATOM     18  O4  <0> d           7.400   5.002   4.085  0.00  0.00    -0.228 OA
ATOM     19  C8  <0> d           5.982   3.628   1.415  0.00  0.00     0.030 C 
ENDBRANCH   2  13
TORSDOF 2
