REMARK  2 active torsions:
REMARK  status: ('A' for Active; 'I' for Inactive)
REMARK    1  A    between atoms: N1_6  and  C6_9 
REMARK    2  A    between atoms: C6_9  and  C14_17 
ROOT
ATOM      1  C6  <0> d           0.071  -1.928   3.212  0.00  0.00     0.095 C 
ATOM      2  C7  <0> d           1.262  -2.854   2.979  0.00  0.00     0.039 C 
ATOM      3  C8  <0> d           0.948  -4.323   3.262  0.00  0.00     0.003 C 
ATOM      4  C9  <0> d           0.720  -5.040   1.917  0.00  0.00     0.000 C 
ATOM      5  C10 <0> d          -0.628  -4.614   1.343  0.00  0.00     0.000 C 
ATOM      6  C11 <0> d          -1.701  -4.619   2.424  0.00  0.00     0.000 C 
ATOM      7  C12 <0> d          -2.096  -3.193   2.788  0.00  0.00     0.003 C 
ATOM      8  C13 <0> d          -1.142  -2.605   3.817  0.00  0.00     0.039 C 
ENDROOT
BRANCH   1   9
ATOM      9  N1  <0> d          -0.273  -1.264   1.948  0.00  0.00    -0.271 N 
ATOM     10  C4  <0> d           0.143  -1.712   0.757  0.00  0.00     0.228 A 
ATOM     11  C3  <0> d          -0.386  -0.802  -0.330  0.00  0.00     0.117 A 
ATOM     12  O1  <0> d           0.835  -2.691   0.578  0.00  0.00    -0.273 OA
ATOM     13  C2  <0> d          -1.188   0.261   0.447  0.00  0.00     0.083 A 
ATOM     14  C1  <0> d          -2.662   0.230   0.037  0.00  0.00     0.020 C 
ATOM     15  C5  <0> d          -1.029  -0.156   1.893  0.00  0.00     0.231 A 
ATOM     16  O2  <0> d          -1.508   0.419   2.847  0.00  0.00    -0.273 OA
ENDBRANCH   1   9
BRANCH   1  17
ATOM     17  C14 <0> d           0.525  -0.838   4.174  0.00  0.00     0.100 C 
ATOM     18  S1  <0> d          -0.028  -0.814   5.674  0.00  0.00    -0.063 SA
ATOM     19  N2  <0> d           1.394   0.106   3.761  0.00  0.00    -0.391 N 
ATOM     20  H21 <0> d           1.675   0.134   2.833  0.00  0.00     0.156 HD
ATOM     21  H22 <0> d           1.738   0.758   4.392  0.00  0.00     0.156 HD
ENDBRANCH   1  17
TORSDOF 2
