REMARK  5 active torsions:
REMARK  status: ('A' for Active; 'I' for Inactive)
REMARK    1  A    between atoms: C5_7  and  C6_8 
REMARK       I    between atoms: C6_8  and  N2_10 
REMARK    2  A    between atoms: N2_10  and  C7_11 
REMARK    3  A    between atoms: C7_11  and  C8_12 
REMARK    4  A    between atoms: C8_12  and  C9_13 
REMARK    5  A    between atoms: C8_12  and  N3_18 
ROOT
ATOM      1  C6  <0> d           0.395  -1.199   2.368  0.00  0.00     0.268 C 
ATOM      2  O1  <0> d           0.173  -0.003   2.409  0.00  0.00    -0.266 OA
ATOM      3  N2  <0> d           0.408  -1.921   3.505  0.00  0.00    -0.353 N 
ATOM      4  H6  <0> d           0.585  -2.875   3.472  0.00  0.00     0.162 HD
ENDROOT
BRANCH   1   5
ATOM      5  C5  <0> d           0.648  -1.854   1.078  0.00  0.00     0.108 A 
ATOM      6  C2  <0> d           0.662  -1.238  -0.142  0.00  0.00    -0.014 A 
ATOM      7  C1  <0> d           0.424   0.225  -0.415  0.00  0.00     0.052 C 
ATOM      8  C3  <0> d           0.948  -2.229  -1.088  0.00  0.00     0.041 A 
ATOM      9  C18 <0> d           1.097  -2.147  -2.549  0.00  0.00     0.162 C 
ATOM     10  C4  <0> d           1.092  -3.437  -0.406  0.00  0.00     0.024 A 
ATOM     11  C17 <0> d           1.676  -3.388  -3.211  0.00  0.00     0.084 C 
ATOM     12  O2  <0> d           0.781  -1.160  -3.181  0.00  0.00    -0.292 OA
ATOM     13  C16 <0> d           1.022  -4.622  -2.581  0.00  0.00     0.014 C 
ATOM     14  C15 <0> d           1.399  -4.739  -1.101  0.00  0.00     0.058 C 
ATOM     15  N1  <0> d           0.908  -3.199   0.893  0.00  0.00    -0.354 N 
ATOM     16  H1  <0> d           0.954  -3.864   1.598  0.00  0.00     0.166 HD
ENDBRANCH   1   5
BRANCH   3  17
ATOM     17  C7  <0> d           0.155  -1.268   4.792  0.00  0.00     0.161 C 
BRANCH  17  18
ATOM     18  C8  <0> d           0.100  -2.323   5.898  0.00  0.00     0.244 C 
BRANCH  18  19
ATOM     19  C9  <0> d          -1.088  -3.224   5.673  0.00  0.00     0.015 A 
ATOM     20  S1  <0> d          -2.806  -2.937   6.065  0.00  0.00    -0.104 SA
ATOM     21  C12 <0> d          -3.462  -4.486   5.466  0.00  0.00     0.050 A 
ATOM     22  C11 <0> d          -2.344  -5.111   5.021  0.00  0.00     0.008 A 
ATOM     23  C10 <0> d          -1.127  -4.464   5.128  0.00  0.00     0.017 A 
ENDBRANCH  18  19
BRANCH  18  24
ATOM     24  N3  <0> d          -0.029  -1.659   7.202  0.00  0.00    -0.068 N 
ATOM     25  C13 <0> d          -0.155  -2.673   8.257  0.00  0.00     0.270 C 
ATOM     26  C14 <0> d           1.162  -0.836   7.452  0.00  0.00     0.270 C 
ATOM     27  H24 <0> d          -0.849  -1.071   7.201  0.00  0.00     0.279 HD
ENDBRANCH  18  24
ENDBRANCH  17  18
ENDBRANCH   3  17
TORSDOF 5
