REMARK  7 active torsions:
REMARK  status: ('A' for Active; 'I' for Inactive)
REMARK    1  A    between atoms: N1_9  and  C9_10 
REMARK    2  A    between atoms: C9_10  and  C10_11 
REMARK    3  A    between atoms: C10_11  and  C11_12 
REMARK    4  A    between atoms: C11_12  and  N2_13 
REMARK       I    between atoms: N2_13  and  C12_14 
REMARK    5  A    between atoms: C12_14  and  C13_16 
REMARK    6  A    between atoms: C13_16  and  N3_17 
REMARK       I    between atoms: N3_17  and  C14_18 
REMARK    7  A    between atoms: C14_18  and  C15_20 
ROOT
ATOM      1  N2  <0> d          -0.698   1.558   1.213  0.00  0.00    -0.360 N 
ATOM      2  C12 <0> d          -0.222   1.232   2.431  0.00  0.00     0.235 C 
ATOM      3  O1  <0> d           0.774   0.548   2.529  0.00  0.00    -0.272 OA
ATOM      4  H13 <0> d          -1.602   2.179   1.124  0.00  0.00     0.162 HD
ENDROOT
BRANCH   1   5
ATOM      5  C11 <0> d          -0.013   1.086   0.008  0.00  0.00     0.124 C 
BRANCH   5   6
ATOM      6  C10 <0> d          -0.753   1.593  -1.232  0.00  0.00     0.040 C 
BRANCH   6   7
ATOM      7  C9  <0> d          -0.037   1.099  -2.490  0.00  0.00     0.130 C 
BRANCH   7   8
ATOM      8  N1  <0> d          -0.745   1.585  -3.677  0.00  0.00    -0.356 N 
ATOM      9  C4  <0> d          -0.558   2.817  -4.261  0.00  0.00     0.044 A 
ATOM     10  C3  <0> d           0.265   3.900  -3.970  0.00  0.00     0.030 A 
ATOM     11  C5  <0> d          -1.423   2.888  -5.368  0.00  0.00    -0.008 A 
ATOM     12  C2  <0> d           0.223   5.025  -4.763  0.00  0.00     0.002 A 
ATOM     13  C1  <0> d          -0.633   5.090  -5.854  0.00  0.00     0.001 A 
ATOM     14  C6  <0> d          -1.450   4.038  -6.160  0.00  0.00     0.014 A 
ATOM     15  C7  <0> d          -2.140   1.611  -5.403  0.00  0.00     0.031 A 
ATOM     16  C8  <0> d          -1.688   0.878  -4.374  0.00  0.00     0.092 A 
ENDBRANCH   7   8
ENDBRANCH   6   7
ENDBRANCH   5   6
ENDBRANCH   1   5
BRANCH   2  17
ATOM     17  C13 <0> d          -0.927   1.718   3.671  0.00  0.00     0.225 C 
BRANCH  17  18
ATOM     18  N3  <0> d          -0.219   1.233   4.858  0.00  0.00    -0.348 N 
ATOM     19  C14 <0> d          -0.672   1.546   6.088  0.00  0.00     0.252 C 
ATOM     20  O2  <0> d          -1.668   2.231   6.213  0.00  0.00    -0.268 OA
ATOM     21  H16 <0> d           0.683   0.614   4.745  0.00  0.00     0.163 HD
BRANCH  19  22
ATOM     22  C15 <0> d           0.043   1.056   7.286  0.00  0.00     0.033 A 
ATOM     23  C20 <0> d          -0.423   1.378   8.561  0.00  0.00     0.036 A 
ATOM     24  C19 <0> d           0.249   0.917   9.675  0.00  0.00     0.011 A 
ATOM     25  C18 <0> d           1.384   0.138   9.529  0.00  0.00     0.019 A 
ATOM     26 Br1  <0> d          -0.381   1.352  11.405  0.00  0.00    -0.051 Br
ATOM     27  C17 <0> d           1.851  -0.184   8.267  0.00  0.00     0.002 A 
ATOM     28  C16 <0> d           1.185   0.265   7.146  0.00  0.00     0.017 A 
ENDBRANCH  19  22
ENDBRANCH  17  18
ENDBRANCH   2  17
TORSDOF 7
