REMARK  2 active torsions:
REMARK  status: ('A' for Active; 'I' for Inactive)
REMARK    1  A    between atoms: C5_6  and  N3_10 
REMARK    2  A    between atoms: N3_10  and  C8_11 
ROOT
ATOM      1  C1  <0> d           0.288   1.483  -0.015  0.00  0.00     0.050 C 
ATOM      2  C2  <0> d           0.081  -0.009  -0.005  0.00  0.00    -0.035 A 
ATOM      3  C3  <0> d          -0.202  -0.694  -1.174  0.00  0.00     0.035 A 
ATOM      4  C4  <0> d          -0.386  -2.064  -1.133  0.00  0.00     0.033 A 
ATOM      5  N1  <0> d          -0.298  -2.733   0.001  0.00  0.00    -0.235 NA
ATOM      6  C5  <0> d          -0.030  -2.128   1.147  0.00  0.00     0.149 A 
ATOM      7  C6  <0> d           0.175  -0.738   1.186  0.00  0.00     0.096 A 
ATOM      8  C7  <0> d           0.471  -0.079   2.422  0.00  0.00     0.104 C 
ATOM      9  N2  <0> d           0.706   0.444   3.403  0.00  0.00    -0.191 NA
ATOM     10  C15 <0> d          -0.694  -2.808  -2.408  0.00  0.00     0.070 C 
ENDROOT
BRANCH   6  11
ATOM     11  N3  <0> d           0.053  -2.869   2.314  0.00  0.00    -0.340 N 
ATOM     12  H5  <0> d           0.171  -2.421   3.166  0.00  0.00     0.167 HD
BRANCH  11  13
ATOM     13  C8  <0> d          -0.033  -4.265   2.264  0.00  0.00     0.035 A 
ATOM     14  C13 <0> d           0.562  -4.958   1.222  0.00  0.00     0.055 A 
ATOM     15  C12 <0> d           0.478  -6.351   1.178  0.00  0.00     0.085 A 
ATOM     16  C11 <0> d          -0.216  -7.036   2.181  0.00  0.00     0.137 A 
ATOM     17  C14 <0> d           1.096  -7.075   0.109  0.00  0.00     0.102 C 
ATOM     18  C10 <0> d          -0.811  -6.332   3.212  0.00  0.00     0.046 A 
ATOM     19  F1  <0> d          -0.305  -8.383   2.142  0.00  0.00    -0.204 F 
ATOM     20  C9  <0> d          -0.722  -4.955   3.256  0.00  0.00     0.032 A 
ATOM     21  N4  <0> d           1.587  -7.650  -0.740  0.00  0.00    -0.191 NA
ENDBRANCH  11  13
ENDBRANCH   6  11
TORSDOF 2
