REMARK  2 active torsions:
REMARK  status: ('A' for Active; 'I' for Inactive)
REMARK    1  A    between atoms: C8_9  and  N2_12 
REMARK    2  A    between atoms: N2_12  and  C10_13 
ROOT
ATOM      1  N2  <0> d           1.208  -2.878   1.181  0.00  0.00    -0.373 N 
ATOM      2  H10 <0> d           0.668  -2.900   1.987  0.00  0.00     0.161 HD
ENDROOT
BRANCH   1   3
ATOM      3  C8  <0> d           0.711  -2.193  -0.015  0.00  0.00     0.210 A 
ATOM      4  C7  <0> d          -0.800  -2.143  -0.007  0.00  0.00     0.001 A 
ATOM      5  C2  <0> d          -1.146  -0.797   0.003  0.00  0.00     0.045 A 
ATOM      6  C6  <0> d          -1.769  -3.120  -0.007  0.00  0.00     0.012 A 
ATOM      7  N1  <0> d           0.002  -0.004   0.002  0.00  0.00    -0.320 N 
ATOM      8  C3  <0> d          -2.495  -0.448   0.012  0.00  0.00     0.030 A 
ATOM      9  C1  <0> d          -0.018   1.461   0.010  0.00  0.00     0.159 C 
ATOM     10  C9  <0> d           1.128  -0.738  -0.013  0.00  0.00     0.251 A 
ATOM     11  O1  <0> d           2.264  -0.314  -0.022  0.00  0.00    -0.270 OA
ATOM     12  C4  <0> d          -3.464  -1.429   0.011  0.00  0.00     0.002 A 
ATOM     13  C5  <0> d          -3.107  -2.765   0.002  0.00  0.00     0.001 A 
ENDBRANCH   1   3
BRANCH   1  14
ATOM     14  C10 <0> d           2.462  -3.499   1.162  0.00  0.00     0.029 A 
ATOM     15  C15 <0> d           2.929  -4.144   2.291  0.00  0.00     0.043 A 
ATOM     16  C14 <0> d           4.178  -4.768   2.263  0.00  0.00    -0.006 A 
ATOM     17  C13 <0> d           4.958  -4.727   1.093  0.00  0.00     0.042 A 
ATOM     18  C16 <0> d           4.959  -5.524   3.245  0.00  0.00     0.030 A 
ATOM     19  C12 <0> d           4.473  -4.067  -0.032  0.00  0.00     0.032 A 
ATOM     20  N3  <0> d           6.125  -5.412   1.359  0.00  0.00    -0.365 N 
ATOM     21  C11 <0> d           3.238  -3.461   0.004  0.00  0.00     0.031 A 
ATOM     22  C17 <0> d           6.107  -5.879   2.645  0.00  0.00     0.089 A 
ATOM     23  H2  <0> d           6.851  -5.543   0.729  0.00  0.00     0.165 HD
ENDBRANCH   1  14
TORSDOF 2
