REMARK  6 active torsions:
REMARK  status: ('A' for Active; 'I' for Inactive)
REMARK    1  A    between atoms: N1_2  and  C3_4 
REMARK    2  A    between atoms: C3_4  and  C4_5 
REMARK    3  A    between atoms: C4_5  and  C5_6 
REMARK    4  A    between atoms: C5_6  and  N2_7 
REMARK    5  A    between atoms: C9_12  and  N4_13 
REMARK    6  A    between atoms: C10_14  and  C21_26 
ROOT
ATOM      1  N2  <0> d          -4.186  -0.254  -2.519  0.00  0.00    -0.327 N 
ATOM      2  C6  <0> d          -4.916   0.842  -2.551  0.00  0.00     0.214 A 
ATOM      3  N3  <0> d          -5.541   1.232  -3.643  0.00  0.00    -0.219 NA
ATOM      4  C7  <0> d          -5.455   0.525  -4.769  0.00  0.00     0.182 A 
ATOM      5  C8  <0> d          -4.697  -0.633  -4.776  0.00  0.00     0.052 A 
ATOM      6  C9  <0> d          -4.046  -1.013  -3.605  0.00  0.00     0.113 A 
ATOM      7  C10 <0> d          -4.574  -1.465  -6.019  0.00  0.00     0.096 C 
ATOM      8  C11 <0> d          -4.998  -0.672  -7.227  0.00  0.00     0.000 A 
ATOM      9  C12 <0> d          -4.634  -1.127  -8.508  0.00  0.00    -0.016 A 
ATOM     10  C13 <0> d          -3.882  -2.304  -8.672  0.00  0.00     0.013 A 
ATOM     11  C14 <0> d          -3.549  -2.720  -9.924  0.00  0.00     0.001 A 
ATOM     12  C15 <0> d          -3.941  -1.997 -11.049  0.00  0.00     0.001 A 
ATOM     13  C16 <0> d          -4.668  -0.852 -10.928  0.00  0.00     0.012 A 
ATOM     14  C17 <0> d          -5.030  -0.391  -9.651  0.00  0.00    -0.025 A 
ATOM     15  C18 <0> d          -5.777   0.787  -9.485  0.00  0.00     0.015 A 
ATOM     16  C19 <0> d          -6.113   1.200  -8.236  0.00  0.00     0.039 A 
ATOM     17  C20 <0> d          -5.727   0.473  -7.099  0.00  0.00     0.086 A 
ATOM     18  O1  <0> d          -6.101   0.935  -5.879  0.00  0.00    -0.291 OA
ENDROOT
BRANCH   1  19
ATOM     19  C5  <0> d          -3.513  -0.640  -1.275  0.00  0.00     0.133 C 
BRANCH  19  20
ATOM     20  C4  <0> d          -2.078  -0.110  -1.286  0.00  0.00     0.048 C 
BRANCH  20  21
ATOM     21  C3  <0> d          -1.376  -0.512   0.012  0.00  0.00     0.235 C 
BRANCH  21  22
ATOM     22  N1  <0> d           0.002  -0.004   0.002  0.00  0.00    -0.079 N 
ATOM     23  C1  <0> d          -0.018   1.465   0.010  0.00  0.00     0.269 C 
ATOM     24  C2  <0> d           0.713  -0.491   1.192  0.00  0.00     0.269 C 
ATOM     25  H28 <0> d           0.474  -0.330  -0.828  0.00  0.00     0.278 HD
ENDBRANCH  21  22
ENDBRANCH  20  21
ENDBRANCH  19  20
ENDBRANCH   1  19
BRANCH   6  26
ATOM     26  N4  <0> d          -3.272  -2.162  -3.568  0.00  0.00    -0.385 N 
ATOM     27  H15 <0> d          -2.826  -2.420  -2.747  0.00  0.00     0.157 HD
ATOM     28  H16 <0> d          -3.177  -2.708  -4.364  0.00  0.00     0.157 HD
ENDBRANCH   6  26
BRANCH   7  29
ATOM     29  C21 <0> d          -5.451  -2.683  -5.891  0.00  0.00    -0.045 A 
ATOM     30  C26 <0> d          -4.893  -3.946  -5.949  0.00  0.00     0.008 A 
ATOM     31  C25 <0> d          -5.697  -5.064  -5.828  0.00  0.00     0.001 A 
ATOM     32  C24 <0> d          -7.061  -4.919  -5.658  0.00  0.00     0.000 A 
ATOM     33  C23 <0> d          -7.620  -3.656  -5.605  0.00  0.00     0.001 A 
ATOM     34  C22 <0> d          -6.816  -2.538  -5.722  0.00  0.00     0.008 A 
ENDBRANCH   7  29
TORSDOF 6
