REMARK  5 active torsions:
REMARK  status: ('A' for Active; 'I' for Inactive)
REMARK    1  A    between atoms: C3_3  and  C6_8 
REMARK    2  A    between atoms: C6_8  and  N3_10 
REMARK       I    between atoms: N3_10  and  C8_11 
REMARK    3  A    between atoms: C8_11  and  C9_13 
REMARK       I    between atoms: N4_15  and  C17_23 
REMARK    4  A    between atoms: C17_23  and  C18_25 
REMARK    5  A    between atoms: C21_28  and  C22_30 
ROOT
ATOM      1  C9  <0> d          -3.950   3.012  -1.774  0.00  0.00     0.106 C 
ATOM      2  C10 <0> d          -3.664   3.864  -0.518  0.00  0.00     0.141 C 
ATOM      3  N4  <0> d          -4.744   4.879  -0.499  0.00  0.00    -0.345 N 
ATOM      4  C11 <0> d          -5.954   4.137  -0.928  0.00  0.00     0.136 C 
ATOM      5  C12 <0> d          -5.454   3.193  -2.039  0.00  0.00    -0.007 C 
ATOM      6  C13 <0> d          -5.676   3.827  -3.409  0.00  0.00     0.039 C 
ATOM      7  C14 <0> d          -7.180   3.945  -3.674  0.00  0.00     0.233 C 
ATOM      8  N5  <0> d          -7.793   2.612  -3.624  0.00  0.00    -0.075 N 
ATOM      9  C15 <0> d          -7.656   2.047  -2.276  0.00  0.00     0.233 C 
ATOM     10  C16 <0> d          -6.172   1.850  -1.952  0.00  0.00     0.039 C 
ATOM     11  C17 <0> d          -4.648   6.181  -0.167  0.00  0.00     0.277 C 
ATOM     12  O2  <0> d          -5.635   6.893  -0.201  0.00  0.00    -0.265 OA
ATOM     13  H22 <0> d          -8.772   2.685  -3.859  0.00  0.00     0.277 HD
ATOM     14  H34 <0> d          -7.335   2.007  -4.289  0.00  0.00     0.277 HD
ENDROOT
BRANCH   1  15
ATOM     15  C8  <0> d          -3.635   1.562  -1.508  0.00  0.00     0.224 C 
ATOM     16  N3  <0> d          -3.241   0.762  -2.518  0.00  0.00    -0.353 N 
ATOM     17  H13 <0> d          -3.161   1.119  -3.416  0.00  0.00     0.163 HD
ATOM     18  O1  <0> d          -3.736   1.116  -0.385  0.00  0.00    -0.273 OA
BRANCH  16  19
ATOM     19  C6  <0> d          -2.935  -0.647  -2.259  0.00  0.00     0.113 C 
ATOM     20  C7  <0> d          -4.229  -1.464  -2.291  0.00  0.00     0.037 C 
BRANCH  19  21
ATOM     21  C3  <0> d          -1.992  -1.159  -3.317  0.00  0.00    -0.006 A 
ATOM     22  C2  <0> d          -2.197  -1.183  -4.821  0.00  0.00     0.160 A 
ATOM     23  C1  <0> d          -2.364   0.236  -5.368  0.00  0.00     0.041 C 
ATOM     24  N2  <0> d          -0.951  -1.790  -5.319  0.00  0.00    -0.183 NA
ATOM     25  N1  <0> d          -0.237  -2.035  -4.339  0.00  0.00    -0.159 NA
ATOM     26  C4  <0> d          -0.781  -1.695  -3.149  0.00  0.00     0.059 A 
ATOM     27  C5  <0> d          -0.111  -1.895  -1.814  0.00  0.00     0.072 C 
ENDBRANCH  19  21
ENDBRANCH  16  19
ENDBRANCH   1  15
BRANCH  11  28
ATOM     28  C18 <0> d          -3.355   6.742   0.235  0.00  0.00     0.143 A 
ATOM     29  O3  <0> d          -2.189   6.067   0.315  0.00  0.00    -0.304 OA
ATOM     30  C21 <0> d          -1.216   6.904   0.713  0.00  0.00     0.086 A 
ATOM     31  C20 <0> d          -1.756   8.143   0.904  0.00  0.00     0.041 A 
ATOM     32  C19 <0> d          -3.119   8.048   0.602  0.00  0.00     0.046 A 
BRANCH  30  33
ATOM     33  C22 <0> d           0.202   6.542   0.914  0.00  0.00    -0.002 A 
ATOM     34  C27 <0> d           0.631   5.233   0.683  0.00  0.00     0.014 A 
ATOM     35  C26 <0> d           1.958   4.904   0.868  0.00  0.00     0.001 A 
ATOM     36  C25 <0> d           2.860   5.863   1.294  0.00  0.00     0.000 A 
ATOM     37  C24 <0> d           2.439   7.160   1.530  0.00  0.00     0.001 A 
ATOM     38  C23 <0> d           1.117   7.505   1.343  0.00  0.00     0.014 A 
ENDBRANCH  30  33
ENDBRANCH  11  28
TORSDOF 5
