REMARK  4 active torsions:
REMARK  status: ('A' for Active; 'I' for Inactive)
REMARK    1  A    between atoms: C6_6  and  C7_7 
REMARK    2  A    between atoms: C9_11  and  C10_12 
REMARK    3  A    between atoms: C13_15  and  O2_19 
REMARK    4  A    between atoms: C15_17  and  O1_18 
ROOT
ATOM      1  C7  <0> d          -1.260  -0.759   0.009  0.00  0.00    -0.000 A 
ATOM      2  C8  <0> d          -1.753  -1.575  -0.954  0.00  0.00     0.148 A 
ATOM      3  N1  <0> d          -2.933  -2.084  -0.579  0.00  0.00    -0.190 NA
ATOM      4  N2  <0> d          -3.326  -1.723   0.531  0.00  0.00    -0.300 N 
ATOM      5  C9  <0> d          -2.315  -0.815   1.100  0.00  0.00     0.172 A 
ATOM      6  H15 <0> d          -4.155  -1.992   0.958  0.00  0.00     0.183 HD
ENDROOT
BRANCH   1   7
ATOM      7  C6  <0> d           0.002  -0.004   0.002  0.00  0.00    -0.023 A 
ATOM      8  C1  <0> d          -0.017   1.395   0.010  0.00  0.00     0.015 A 
ATOM      9  C2  <0> d           1.167   2.098   0.002  0.00  0.00     0.040 A 
ATOM     10  C3  <0> d           2.383   1.425  -0.013  0.00  0.00     0.102 A 
ATOM     11  O4  <0> d           3.539   2.142  -0.024  0.00  0.00    -0.346 OA
ATOM     12  C4  <0> d           2.410   0.032  -0.018  0.00  0.00     0.102 A 
ATOM     13  C17 <0> d           4.734   1.443   0.342  0.00  0.00     0.202 C 
ATOM     14  C16 <0> d           4.755   0.103  -0.406  0.00  0.00     0.202 C 
ATOM     15  O3  <0> d           3.593  -0.641  -0.025  0.00  0.00    -0.346 OA
ATOM     16  C5  <0> d           1.226  -0.682  -0.012  0.00  0.00     0.051 A 
ENDBRANCH   1   7
BRANCH   5  17
ATOM     17  C10 <0> d          -2.904   0.551   1.343  0.00  0.00     0.004 A 
ATOM     18  C15 <0> d          -2.220   1.473   2.122  0.00  0.00     0.077 A 
ATOM     19  C14 <0> d          -2.759   2.731   2.340  0.00  0.00     0.073 A 
ATOM     20  C13 <0> d          -3.987   3.061   1.788  0.00  0.00     0.068 A 
ATOM     21  C12 <0> d          -4.671   2.134   1.014  0.00  0.00     0.037 A 
ATOM     22  C11 <0> d          -4.128   0.883   0.793  0.00  0.00     0.015 A 
BRANCH  18  23
ATOM     23  O1  <0> d          -1.019   1.144   2.667  0.00  0.00    -0.360 OA
ATOM     24  H9  <0> d          -0.261   1.353   2.104  0.00  0.00     0.217 HD
ENDBRANCH  18  23
BRANCH  20  25
ATOM     25  O2  <0> d          -4.521   4.292   2.005  0.00  0.00    -0.361 OA
ATOM     26  H10 <0> d          -5.082   4.345   2.790  0.00  0.00     0.217 HD
ENDBRANCH  20  25
ENDBRANCH   5  17
TORSDOF 4
