REMARK  5 active torsions:
REMARK  status: ('A' for Active; 'I' for Inactive)
REMARK    1  A    between atoms: C3_3  and  O3_22 
REMARK    2  A    between atoms: C6_6  and  C7_7 
REMARK    3  A    between atoms: C7_7  and  N1_8 
REMARK    4  A    between atoms: C10_11  and  N2_15 
REMARK    5  A    between atoms: C11_12  and  O1_14 
ROOT
ATOM      1  N1  <0> d          -2.852   1.610   0.036  0.00  0.00    -0.065 N 
ATOM      2  C8  <0> d          -2.207   1.109  -1.184  0.00  0.00     0.237 C 
ATOM      3  C9  <0> d          -0.756   1.594  -1.230  0.00  0.00     0.066 C 
ATOM      4  C10 <0> d          -0.013   1.086   0.008  0.00  0.00     0.255 C 
ATOM      5  C11 <0> d          -0.732   1.581   1.266  0.00  0.00     0.177 C 
ATOM      6  C12 <0> d          -2.185   1.096   1.239  0.00  0.00     0.269 C 
ATOM      7  H24 <0> d          -2.756   2.705   0.042  0.00  0.00     0.280 HD
ENDROOT
BRANCH   1   8
ATOM      8  C7  <0> d          -4.284   1.280   0.048  0.00  0.00     0.273 C 
BRANCH   8   9
ATOM      9  C6  <0> d          -4.980   2.029  -1.060  0.00  0.00    -0.031 A 
ATOM     10  C1  <0> d          -5.509   3.283  -0.818  0.00  0.00     0.012 A 
ATOM     11  C2  <0> d          -6.143   3.974  -1.833  0.00  0.00     0.039 A 
ATOM     12  C3  <0> d          -6.259   3.404  -3.091  0.00  0.00     0.087 A 
ATOM     13  C4  <0> d          -5.733   2.142  -3.331  0.00  0.00     0.067 A 
ATOM     14  C5  <0> d          -5.095   1.457  -2.314  0.00  0.00     0.035 A 
ATOM     15 Cl1  <0> d          -5.876   1.425  -4.905  0.00  0.00    -0.081 Cl
BRANCH  12  16
ATOM     16  O3  <0> d          -6.888   4.080  -4.090  0.00  0.00    -0.359 OA
ATOM     17  H23 <0> d          -6.980   3.627  -5.088  0.00  0.00     0.217 HD
ENDBRANCH  12  16
ENDBRANCH   8   9
ENDBRANCH   1   8
BRANCH   5  18
ATOM     18  O1  <0> d          -0.076   1.064   2.425  0.00  0.00    -0.392 OA
ATOM     19  H14 <0> d          -0.453   1.314   3.428  0.00  0.00     0.210 HD
ENDBRANCH   5  18
BRANCH   4  20
ATOM     20  N2  <0> d           1.365   1.595  -0.002  0.00  0.00     0.099 N 
ATOM     21  C16 <0> d           2.122   1.046  -1.137  0.00  0.00     0.299 C 
ATOM     22  C15 <0> d           3.564   1.555  -1.076  0.00  0.00     0.198 C 
ATOM     23  O2  <0> d           3.560   2.985  -1.069  0.00  0.00    -0.388 OA
ATOM     24  C14 <0> d           2.833   3.554   0.023  0.00  0.00     0.198 C 
ATOM     25  C13 <0> d           1.383   3.065  -0.027  0.00  0.00     0.299 C 
ENDBRANCH   4  20
TORSDOF 5
