REMARK  5 active torsions:
REMARK  status: ('A' for Active; 'I' for Inactive)
REMARK    1  A    between atoms: C2_2  and  C3_3 
REMARK    2  A    between atoms: C2_2  and  C11_15 
REMARK    3  A    between atoms: C3_3  and  N1_4 
REMARK       I    between atoms: N1_4  and  C4_5 
REMARK       I    between atoms: C4_5  and  N2_7 
REMARK    4  A    between atoms: N2_7  and  C5_8 
REMARK    5  A    between atoms: C11_15  and  N3_16 
ROOT
ATOM      1  N1  <0> d          -2.111  -0.135  -1.223  0.00  0.00    -0.342 N 
ATOM      2  C4  <0> d          -3.389  -0.503  -1.441  0.00  0.00     0.320 C 
ATOM      3  O1  <0> d          -3.986  -1.151  -0.603  0.00  0.00    -0.247 OA
ATOM      4  N2  <0> d          -4.005  -0.154  -2.587  0.00  0.00    -0.308 N 
ATOM      5  H7  <0> d          -1.634   0.382  -1.891  0.00  0.00     0.164 HD
ATOM      6  H8  <0> d          -3.552   0.418  -3.227  0.00  0.00     0.170 HD
ENDROOT
BRANCH   1   7
ATOM      7  C3  <0> d          -1.441  -0.515   0.023  0.00  0.00     0.130 C 
BRANCH   7   8
ATOM      8  C2  <0> d          -0.009   0.024   0.018  0.00  0.00     0.025 C 
ATOM      9  C1  <0> d          -0.040   1.553   0.025  0.00  0.00     0.013 C 
BRANCH   8  10
ATOM     10  C11 <0> d           0.729  -0.478   1.260  0.00  0.00     0.240 C 
BRANCH  10  11
ATOM     11  N3  <0> d           2.136  -0.060   1.196  0.00  0.00    -0.071 N 
ATOM     12  C16 <0> d           2.815  -0.438   2.441  0.00  0.00     0.235 C 
ATOM     13  C15 <0> d           4.259   0.067   2.413  0.00  0.00     0.028 C 
ATOM     14  C14 <0> d           4.989  -0.561   1.222  0.00  0.00     0.003 C 
ATOM     15  C13 <0> d           4.231  -0.223  -0.065  0.00  0.00     0.028 C 
ATOM     16  C12 <0> d           2.788  -0.717   0.056  0.00  0.00     0.235 C 
ATOM     17  H25 <0> d           2.184   0.940   1.077  0.00  0.00     0.279 HD
ENDBRANCH  10  11
ENDBRANCH   8  10
ENDBRANCH   7   8
ENDBRANCH   1   7
BRANCH   4  18
ATOM     18  C5  <0> d          -5.299  -0.615  -2.855  0.00  0.00     0.053 A 
ATOM     19  C10 <0> d          -5.678  -0.907  -4.160  0.00  0.00     0.037 A 
ATOM     20  C9  <0> d          -6.955  -1.367  -4.420  0.00  0.00     0.021 A 
ATOM     21 Br1  <0> d          -4.445  -0.683  -5.576  0.00  0.00    -0.049 Br
ATOM     22  C8  <0> d          -7.858  -1.526  -3.385  0.00  0.00     0.002 A 
ATOM     23  C7  <0> d          -7.486  -1.230  -2.087  0.00  0.00     0.002 A 
ATOM     24  C6  <0> d          -6.209  -0.776  -1.819  0.00  0.00     0.031 A 
ENDBRANCH   4  18
TORSDOF 5
