REMARK  8 active torsions:
REMARK  status: ('A' for Active; 'I' for Inactive)
REMARK    1  A    between atoms: N1_2  and  C2_3 
REMARK       I    between atoms: N1_2  and  C6_9 
REMARK    2  A    between atoms: C2_3  and  C3_4 
REMARK    3  A    between atoms: C3_4  and  C4_5 
REMARK    4  A    between atoms: C3_4  and  O2_8 
REMARK    5  A    between atoms: C4_5  and  O1_6 
REMARK       I    between atoms: C6_9  and  N2_11 
REMARK    6  A    between atoms: N2_11  and  C7_12 
REMARK    7  A    between atoms: C7_12  and  C8_13 
REMARK    8  A    between atoms: C8_13  and  N3_18 
ROOT
ATOM      1  C1  <0> d           0.971   1.118  -0.052  0.00  0.00     0.154 C 
ATOM      2  N1  <0> d           0.876  -0.342  -0.143  0.00  0.00    -0.336 N 
ATOM      3  C6  <0> d           0.578  -0.925  -1.321  0.00  0.00     0.318 C 
ATOM      4  O3  <0> d           0.499  -2.136  -1.396  0.00  0.00    -0.247 OA
ATOM      5  N2  <0> d           0.366  -0.167  -2.414  0.00  0.00    -0.340 N 
ATOM      6  H13 <0> d           0.428   0.799  -2.354  0.00  0.00     0.164 HD
ENDROOT
BRANCH   5   7
ATOM      7  C7  <0> d           0.042  -0.801  -3.694  0.00  0.00     0.167 C 
BRANCH   7   8
ATOM      8  C8  <0> d          -0.173   0.277  -4.758  0.00  0.00     0.184 C 
ATOM      9  C11 <0> d          -1.420   1.100  -4.383  0.00  0.00     0.117 C 
ATOM     10  S1  <0> d          -2.583   0.760  -5.770  0.00  0.00    -0.166 SA
ATOM     11  C10 <0> d          -1.758  -0.750  -6.441  0.00  0.00     0.076 C 
ATOM     12  C9  <0> d          -0.277  -0.398  -6.125  0.00  0.00     0.054 C 
BRANCH   8  13
ATOM     13  N3  <0> d           0.995   1.168  -4.765  0.00  0.00     0.104 N 
ATOM     14  C15 <0> d           2.226   0.421  -5.063  0.00  0.00     0.299 C 
ATOM     15  C14 <0> d           3.422   1.375  -5.001  0.00  0.00     0.198 C 
ATOM     16  O4  <0> d           3.211   2.456  -5.912  0.00  0.00    -0.388 OA
ATOM     17  C13 <0> d           2.022   3.205  -5.651  0.00  0.00     0.198 C 
ATOM     18  C12 <0> d           0.811   2.271  -5.720  0.00  0.00     0.299 C 
ENDBRANCH   8  13
ENDBRANCH   7   8
ENDBRANCH   5   7
BRANCH   2  19
ATOM     19  C2  <0> d           1.106  -1.166   1.046  0.00  0.00     0.161 C 
BRANCH  19  20
ATOM     20  C3  <0> d          -0.218  -1.382   1.781  0.00  0.00     0.160 C 
BRANCH  20  21
ATOM     21  C4  <0> d           0.022  -2.243   3.022  0.00  0.00     0.200 C 
BRANCH  21  22
ATOM     22  O1  <0> d          -1.229  -2.542   3.644  0.00  0.00    -0.393 OA
ATOM     23  C5  <0> d          -1.117  -3.347   4.820  0.00  0.00     0.201 C 
ENDBRANCH  21  22
ENDBRANCH  20  21
BRANCH  20  24
ATOM     24  O2  <0> d          -0.756  -0.118   2.174  0.00  0.00    -0.392 OA
ATOM     25  H12 <0> d          -0.181   0.387   2.765  0.00  0.00     0.210 HD
ENDBRANCH  20  24
ENDBRANCH  19  20
ENDBRANCH   2  19
TORSDOF 8
