REMARK  4 active torsions:
REMARK  status: ('A' for Active; 'I' for Inactive)
REMARK    1  A    between atoms: C6_7  and  C9_10 
REMARK    2  A    between atoms: C9_10  and  C10_11 
REMARK    3  A    between atoms: C10_11  and  C11_12 
REMARK    4  A    between atoms: C10_11  and  N2_15 
ROOT
ATOM      1  C10 <0> d           0.421  -3.764  -1.414  0.00  0.00     0.326 C 
ENDROOT
BRANCH   1   2
ATOM      2  C9  <0> d           0.673  -3.242   0.002  0.00  0.00     0.084 C 
BRANCH   2   3
ATOM      3  C6  <0> d          -0.578  -2.584   0.524  0.00  0.00    -0.047 A 
ATOM      4  C5  <0> d          -1.030  -1.162   0.273  0.00  0.00     0.155 A 
ATOM      5  N1  <0> d          -2.299  -1.010   0.994  0.00  0.00    -0.385 N 
ATOM      6  C4  <0> d          -2.580  -2.145   1.588  0.00  0.00     0.038 A 
ATOM      7  H18 <0> d          -2.839  -0.205   1.026  0.00  0.00     0.160 HD
ATOM      8  C3  <0> d          -3.675  -2.539   2.406  0.00  0.00     0.030 A 
ATOM      9  C7  <0> d          -1.524  -3.144   1.312  0.00  0.00    -0.006 A 
ATOM     10  C2  <0> d          -3.736  -3.791   2.907  0.00  0.00     0.002 A 
ATOM     11  C1  <0> d          -2.748  -4.754   2.660  0.00  0.00     0.001 A 
ATOM     12  C8  <0> d          -1.665  -4.483   1.896  0.00  0.00     0.014 A 
ENDBRANCH   2   3
ENDBRANCH   1   2
BRANCH   1  13
ATOM     13  C11 <0> d          -0.684  -4.789  -1.383  0.00  0.00     0.207 C 
ATOM     14  O1  <0> d          -1.831  -4.442  -1.158  0.00  0.00    -0.646 OA
ATOM     15  O2  <0> d          -0.431  -5.965  -1.582  0.00  0.00    -0.646 OA
ENDBRANCH   1  13
BRANCH   1  16
ATOM     16  N2  <0> d           1.648  -4.383  -1.934  0.00  0.00     0.105 N 
ATOM     17  C15 <0> d           1.460  -4.844  -3.311  0.00  0.00     0.288 C 
ATOM     18  C14 <0> d           2.557  -5.849  -3.678  0.00  0.00     0.170 C 
ATOM     19  S1  <0> d           4.168  -5.010  -3.581  0.00  0.00     0.147 S 
ATOM     20  C13 <0> d           4.098  -4.268  -1.922  0.00  0.00     0.170 C 
ATOM     21  O3  <0> d           5.193  -5.993  -3.595  0.00  0.00    -0.228 OA
ATOM     22  O4  <0> d           4.196  -3.964  -4.543  0.00  0.00    -0.228 OA
ATOM     23  C12 <0> d           2.791  -3.478  -1.795  0.00  0.00     0.288 C 
ENDBRANCH   1  16
TORSDOF 4
