REMARK  5 active torsions:
REMARK  status: ('A' for Active; 'I' for Inactive)
REMARK    1  A    between atoms: C2_2  and  C3_3 
REMARK    2  A    between atoms: C2_2  and  O5_26 
REMARK    3  A    between atoms: N1_8  and  C8_11 
REMARK    4  A    between atoms: C8_11  and  C9_12 
REMARK    5  A    between atoms: C9_12  and  O3_13 
ROOT
ATOM      1  C3  <0> d           0.718  -0.497  -1.257  0.00  0.00     0.264 C 
ATOM      2  C4  <0> d           0.718  -2.040  -1.305  0.00  0.00     0.130 A 
ATOM      3  C5  <0> d           0.514  -2.393  -2.805  0.00  0.00     0.147 A 
ATOM      4  C6  <0> d          -0.832  -3.082  -2.820  0.00  0.00     0.235 A 
ATOM      5  O1  <0> d          -1.378  -3.531  -3.805  0.00  0.00    -0.272 OA
ATOM      6  N1  <0> d          -1.327  -3.119  -1.577  0.00  0.00    -0.286 N 
ATOM      7  C7  <0> d          -0.533  -2.561  -0.635  0.00  0.00     0.233 A 
ATOM      8  O2  <0> d          -0.777  -2.483   0.550  0.00  0.00    -0.272 OA
ATOM      9  C11 <0> d           0.421  -1.035  -3.511  0.00  0.00     0.279 A 
ATOM     10  N2  <0> d          -0.025  -0.074  -2.474  0.00  0.00     0.116 N 
ATOM     11  C12 <0> d           1.736  -0.643  -4.124  0.00  0.00     0.017 A 
ATOM     12  C13 <0> d           2.996  -0.435  -3.611  0.00  0.00     0.012 A 
ATOM     13  C14 <0> d           4.034  -0.071  -4.451  0.00  0.00     0.001 A 
ATOM     14  C15 <0> d           3.801   0.082  -5.806  0.00  0.00     0.002 A 
ATOM     15  C16 <0> d           2.539  -0.124  -6.324  0.00  0.00     0.030 A 
ATOM     16  C17 <0> d           1.489  -0.490  -5.485  0.00  0.00     0.044 A 
ATOM     17  N3  <0> d           0.146  -0.750  -5.765  0.00  0.00    -0.324 N 
ATOM     18  C18 <0> d          -0.550  -1.076  -4.659  0.00  0.00     0.267 A 
ATOM     19  O4  <0> d          -1.730  -1.350  -4.600  0.00  0.00    -0.270 OA
ATOM     20  H15 <0> d          -1.021  -0.126  -2.325  0.00  0.00     0.318 HD
ATOM     21  H20 <0> d          -0.241  -0.701  -6.653  0.00  0.00     0.169 HD
ENDROOT
BRANCH   1  22
ATOM     22  C2  <0> d           0.002  -0.004   0.002  0.00  0.00     0.148 C 
ATOM     23  C1  <0> d          -0.019   1.526   0.010  0.00  0.00     0.041 C 
BRANCH  22  24
ATOM     24  O5  <0> d           0.693  -0.477   1.160  0.00  0.00    -0.394 OA
ATOM     25  H21 <0> d           0.294  -0.202   1.996  0.00  0.00     0.210 HD
ENDBRANCH  22  24
ENDBRANCH   1  22
BRANCH   6  26
ATOM     26  C8  <0> d          -2.624  -3.722  -1.259  0.00  0.00     0.161 C 
BRANCH  26  27
ATOM     27  C9  <0> d          -2.430  -5.203  -0.929  0.00  0.00     0.187 C 
BRANCH  27  28
ATOM     28  O3  <0> d          -1.652  -5.328   0.263  0.00  0.00    -0.394 OA
ATOM     29  C10 <0> d          -1.411  -6.679   0.662  0.00  0.00     0.201 C 
ENDBRANCH  27  28
ENDBRANCH  26  27
ENDBRANCH   6  26
TORSDOF 5
