REMARK  5 active torsions:
REMARK  status: ('A' for Active; 'I' for Inactive)
REMARK    1  A    between atoms: C7_9  and  C10_13 
REMARK    2  A    between atoms: C10_13  and  N3_14 
REMARK    3  A    between atoms: N3_14  and  C11_15 
REMARK    4  A    between atoms: C11_15  and  C12_16 
REMARK    5  A    between atoms: C11_15  and  C15_19 
ROOT
ATOM      1  C1  <0> d          -0.018   1.503   0.010  0.00  0.00     0.048 C 
ATOM      2  C2  <0> d           0.002  -0.004   0.002  0.00  0.00    -0.057 A 
ATOM      3  C3  <0> d           0.006  -0.703  -1.213  0.00  0.00     0.024 A 
ATOM      4  C4  <0> d           0.025  -2.055  -1.219  0.00  0.00     0.102 A 
ATOM      5  N1  <0> d           0.040  -2.756  -0.052  0.00  0.00    -0.274 N 
ATOM      6  C5  <0> d           0.037  -2.103   1.149  0.00  0.00     0.137 A 
ATOM      7  C6  <0> d           0.023  -0.696   1.176  0.00  0.00     0.058 A 
ATOM      8  N2  <0> d           0.053  -2.781   2.295  0.00  0.00    -0.233 NA
ATOM      9  C7  <0> d           0.071  -4.105   2.312  0.00  0.00     0.067 A 
ATOM     10  C8  <0> d           0.075  -4.811   1.125  0.00  0.00     0.104 A 
ATOM     11  C9  <0> d           0.059  -4.106  -0.083  0.00  0.00     0.255 A 
ATOM     12  O1  <0> d           0.061  -4.701  -1.149  0.00  0.00    -0.268 OA
ENDROOT
BRANCH   9  13
ATOM     13  C10 <0> d           0.088  -4.841   3.627  0.00  0.00     0.292 C 
BRANCH  13  14
ATOM     14  N3  <0> d           1.343  -4.551   4.334  0.00  0.00    -0.055 N 
ATOM     15  H11 <0> d           2.124  -4.852   3.770  0.00  0.00     0.278 HD
ATOM     16  H17 <0> d           1.413  -3.559   4.503  0.00  0.00     0.278 HD
BRANCH  14  17
ATOM     17  C11 <0> d           1.360  -5.269   5.615  0.00  0.00     0.290 C 
BRANCH  17  18
ATOM     18  C12 <0> d           2.608  -4.871   6.406  0.00  0.00     0.027 A 
ATOM     19  C14 <0> d           2.809  -5.515   7.779  0.00  0.00     0.007 A 
ATOM     20  C13 <0> d           3.690  -5.936   6.601  0.00  0.00     0.007 A 
ENDBRANCH  17  18
BRANCH  17  21
ATOM     21  C15 <0> d           1.380  -6.754   5.360  0.00  0.00     0.205 C 
ATOM     22  O2  <0> d           1.909  -7.192   4.352  0.00  0.00    -0.646 OA
ATOM     23  O3  <0> d           0.866  -7.517   6.160  0.00  0.00    -0.646 OA
ENDBRANCH  17  21
ENDBRANCH  14  17
ENDBRANCH  13  14
ENDBRANCH   9  13
TORSDOF 5
