REMARK  5 active torsions:
REMARK  status: ('A' for Active; 'I' for Inactive)
REMARK    1  A    between atoms: C2_2  and  C3_3 
REMARK    2  A    between atoms: C6_6  and  N1_9 
REMARK    3  A    between atoms: C14_15  and  C15_16 
REMARK    4  A    between atoms: C16_17  and  N2_18 
REMARK    5  A    between atoms: C20_27  and  C21_28 
REMARK       I    between atoms: C21_28  and  N6_30 
ROOT
ATOM      1  C15 <0> d           5.308  -2.524  -8.415  0.00  0.00     0.082 C 
ATOM      2  C16 <0> d           4.666  -3.864  -8.515  0.00  0.00     0.160 C 
ATOM      3  N3  <0> d           5.555  -4.879  -8.924  0.00  0.00    -0.212 N 
ATOM      4  C17 <0> d           6.664  -4.500  -9.657  0.00  0.00     0.199 A 
ATOM      5  N4  <0> d           7.063  -3.285  -9.915  0.00  0.00    -0.182 NA
ATOM      6  C18 <0> d           6.387  -2.237  -9.389  0.00  0.00     0.283 C 
ATOM      7  O1  <0> d           6.661  -1.090  -9.702  0.00  0.00    -0.265 OA
ATOM      8  S1  <0> d           7.385  -6.050 -10.129  0.00  0.00    -0.031 SA
ATOM      9  C19 <0> d           6.265  -7.125  -9.243  0.00  0.00     0.098 A 
ATOM     10  N5  <0> d           5.403  -6.224  -8.658  0.00  0.00    -0.283 N 
ATOM     11  C20 <0> d           6.264  -8.487  -9.166  0.00  0.00     0.113 C 
ATOM     12  H17 <0> d           4.697  -6.531  -8.067  0.00  0.00     0.188 HD
ENDROOT
BRANCH   1  13
ATOM     13  C14 <0> d           4.914  -1.597  -7.471  0.00  0.00     0.034 C 
ATOM     14  C11 <0> d           4.004  -1.969  -6.449  0.00  0.00    -0.011 A 
ATOM     15  C10 <0> d           3.777  -3.319  -5.913  0.00  0.00     0.038 A 
ATOM     16  C12 <0> d           3.143  -1.135  -5.754  0.00  0.00     0.023 A 
ATOM     17  C9  <0> d           2.833  -3.198  -4.965  0.00  0.00     0.014 A 
ATOM     18  N1  <0> d           2.457  -1.887  -4.870  0.00  0.00    -0.319 N 
ATOM     19  C26 <0> d           2.277  -4.328  -4.138  0.00  0.00     0.068 C 
ATOM     20  C13 <0> d           3.001   0.352  -5.950  0.00  0.00     0.069 C 
BRANCH  18  21
ATOM     21  C6  <0> d           1.490  -1.394  -3.983  0.00  0.00     0.039 A 
ATOM     22  C5  <0> d           0.165  -1.791  -4.107  0.00  0.00     0.030 A 
ATOM     23  C4  <0> d          -0.785  -1.304  -3.231  0.00  0.00     0.009 A 
ATOM     24  C3  <0> d          -0.418  -0.423  -2.230  0.00  0.00    -0.058 A 
ATOM     25  C8  <0> d           0.900  -0.022  -2.107  0.00  0.00     0.009 A 
ATOM     26  C7  <0> d           1.855  -0.509  -2.977  0.00  0.00     0.030 A 
BRANCH  24  27
ATOM     27  C2  <0> d          -1.457   0.106  -1.276  0.00  0.00     0.034 C 
ATOM     28  C1  <0> d          -2.063   1.392  -1.843  0.00  0.00     0.010 C 
ENDBRANCH  24  27
ENDBRANCH  18  21
ENDBRANCH   1  13
BRANCH   2  29
ATOM     29  N2  <0> d           3.404  -4.079  -8.252  0.00  0.00    -0.281 NA
ATOM     30  H15 <0> d           3.053  -4.983  -8.263  0.00  0.00     0.188 HD
ENDBRANCH   2  29
BRANCH  11  31
ATOM     31  C21 <0> d           5.285  -9.147  -8.407  0.00  0.00     0.246 C 
ATOM     32  O2  <0> d           4.498  -8.503  -7.734  0.00  0.00    -0.268 OA
ATOM     33  N6  <0> d           5.213 -10.493  -8.423  0.00  0.00    -0.345 N 
ATOM     34  C25 <0> d           6.216 -11.296  -9.139  0.00  0.00     0.152 C 
ATOM     35  C22 <0> d           4.127 -11.202  -7.728  0.00  0.00     0.152 C 
ATOM     36  C24 <0> d           5.489 -12.290 -10.045  0.00  0.00     0.187 C 
ATOM     37  O3  <0> d           4.527 -13.015  -9.275  0.00  0.00    -0.388 OA
ATOM     38  C23 <0> d           3.498 -12.200  -8.707  0.00  0.00     0.187 C 
ENDBRANCH  11  31
TORSDOF 5
