REMARK  7 active torsions:
REMARK  status: ('A' for Active; 'I' for Inactive)
REMARK    1  A    between atoms: C2_2  and  C4_4 
REMARK    2  A    between atoms: C4_4  and  C5_5 
REMARK    3  A    between atoms: C5_5  and  C6_6 
REMARK    4  A    between atoms: C5_5  and  N4_18 
REMARK       I    between atoms: C6_6  and  N1_8 
REMARK    5  A    between atoms: N1_8  and  C7_9 
REMARK       I    between atoms: N4_18  and  C14_19 
REMARK    6  A    between atoms: C14_19  and  C15_21 
REMARK    7  A    between atoms: C15_21  and  C16_22 
ROOT
ATOM      1  C5  <0> d           2.187  -0.073  -1.207  0.00  0.00     0.177 C 
ENDROOT
BRANCH   1   2
ATOM      2  C4  <0> d           0.718  -0.497  -1.257  0.00  0.00     0.038 C 
BRANCH   2   3
ATOM      3  C2  <0> d           0.002  -0.004   0.002  0.00  0.00    -0.020 C 
ATOM      4  C1  <0> d          -0.019   1.526   0.010  0.00  0.00     0.009 C 
ATOM      5  C3  <0> d          -1.433  -0.534   0.013  0.00  0.00     0.009 C 
ENDBRANCH   2   3
ENDBRANCH   1   2
BRANCH   1   6
ATOM      6  C6  <0> d           2.863  -0.451  -2.500  0.00  0.00     0.243 C 
ATOM      7  O1  <0> d           3.809  -1.211  -2.491  0.00  0.00    -0.271 OA
ATOM      8  N1  <0> d           2.417   0.055  -3.667  0.00  0.00    -0.321 N 
ATOM      9  H11 <0> d           1.661   0.663  -3.674  0.00  0.00     0.166 HD
BRANCH   8  10
ATOM     10  C7  <0> d           3.074  -0.312  -4.924  0.00  0.00     0.291 A 
ATOM     11  N3  <0> d           2.669   0.609  -5.992  0.00  0.00    -0.351 N 
ATOM     12  C13 <0> d           2.080  -0.097  -6.914  0.00  0.00     0.057 A 
ATOM     13  H25 <0> d           2.813   1.569  -6.009  0.00  0.00     0.163 HD
ATOM     14  C8  <0> d           2.064  -1.528  -6.504  0.00  0.00     0.057 A 
ATOM     15  C12 <0> d           1.469   0.254  -8.204  0.00  0.00     0.031 A 
ATOM     16  N2  <0> d           2.643  -1.651  -5.345  0.00  0.00    -0.351 N 
ATOM     17  C9  <0> d           1.438  -2.495  -7.416  0.00  0.00     0.031 A 
ATOM     18  H24 <0> d           2.768  -2.476  -4.851  0.00  0.00     0.163 HD
ATOM     19  C10 <0> d           0.906  -2.066  -8.578  0.00  0.00     0.002 A 
ATOM     20  C11 <0> d           0.921  -0.714  -8.965  0.00  0.00     0.002 A 
ENDBRANCH   8  10
ENDBRANCH   1   6
BRANCH   1  21
ATOM     21  N4  <0> d           2.854  -0.750  -0.092  0.00  0.00    -0.348 N 
ATOM     22  C14 <0> d           2.794  -0.224   1.148  0.00  0.00     0.222 C 
ATOM     23  O2  <0> d           2.189   0.809   1.340  0.00  0.00    -0.273 OA
ATOM     24  H17 <0> d           3.338  -1.576  -0.245  0.00  0.00     0.163 HD
BRANCH  22  25
ATOM     25  C15 <0> d           3.480  -0.920   2.295  0.00  0.00     0.143 C 
BRANCH  25  26
ATOM     26  C16 <0> d           3.263  -0.133   3.562  0.00  0.00    -0.028 A 
ATOM     27  C21 <0> d           2.112  -0.325   4.307  0.00  0.00     0.040 A 
ATOM     28  C20 <0> d           1.916   0.394   5.473  0.00  0.00     0.024 A 
ATOM     29 Cl1  <0> d           0.919  -1.472   3.782  0.00  0.00    -0.084 Cl
ATOM     30  C19 <0> d           2.864   1.311   5.887  0.00  0.00     0.002 A 
ATOM     31  C18 <0> d           4.011   1.506   5.139  0.00  0.00     0.001 A 
ATOM     32  C17 <0> d           4.210   0.784   3.977  0.00  0.00     0.009 A 
ENDBRANCH  25  26
ENDBRANCH  22  25
ENDBRANCH   1  21
TORSDOF 7
