REMARK  4 active torsions:
REMARK  status: ('A' for Active; 'I' for Inactive)
REMARK    1  A    between atoms: C2_2  and  C3_3 
REMARK    2  A    between atoms: C3_3  and  N1_4 
REMARK       I    between atoms: N1_4  and  C4_5 
REMARK    3  A    between atoms: C4_5  and  C5_7 
REMARK    4  A    between atoms: C5_7  and  N2_8 
ROOT
ATOM      1  N2  <0> d          -0.042   5.241   0.029  0.00  0.00    -0.299 N 
ATOM      2  C6  <0> d          -0.040   3.849   0.022  0.00  0.00     0.065 A 
ATOM      3  C7  <0> d           1.169   3.162   0.007  0.00  0.00     0.032 A 
ATOM      4  C8  <0> d           1.179   1.782   0.000  0.00  0.00     0.002 A 
ATOM      5  C9  <0> d          -0.013   1.076   0.008  0.00  0.00     0.002 A 
ATOM      6  C10 <0> d          -1.218   1.747   0.017  0.00  0.00     0.032 A 
ATOM      7  C11 <0> d          -1.241   3.137   0.029  0.00  0.00     0.064 A 
ATOM      8  N3  <0> d          -2.461   3.807   0.045  0.00  0.00    -0.312 N 
ATOM      9  C12 <0> d          -2.492   5.155   0.052  0.00  0.00     0.316 A 
ATOM     10  O2  <0> d          -3.554   5.744   0.065  0.00  0.00    -0.262 OA
ATOM     11  C13 <0> d          -1.209   5.915   0.043  0.00  0.00     0.317 A 
ATOM     12  O3  <0> d          -1.216   7.130   0.050  0.00  0.00    -0.262 OA
ATOM     13  C14 <0> d          -3.713   3.046   0.052  0.00  0.00     0.160 C 
ENDROOT
BRANCH   1  14
ATOM     14  C5  <0> d           1.227   5.974   0.021  0.00  0.00     0.235 C 
BRANCH  14  15
ATOM     15  C4  <0> d           1.649   6.233  -1.402  0.00  0.00     0.235 C 
ATOM     16  N1  <0> d           2.794   6.897  -1.655  0.00  0.00    -0.360 N 
ATOM     17  H8  <0> d           3.420   7.251  -0.823  0.00  0.00     0.162 HD
ATOM     18  O1  <0> d           0.958   5.843  -2.320  0.00  0.00    -0.272 OA
BRANCH  16  19
ATOM     19  C3  <0> d           3.204   7.148  -3.039  0.00  0.00     0.122 C 
BRANCH  19  20
ATOM     20  C2  <0> d           4.529   7.914  -3.047  0.00  0.00     0.015 C 
ATOM     21  C1  <0> d           4.957   8.177  -4.492  0.00  0.00     0.006 C 
ENDBRANCH  19  20
ENDBRANCH  16  19
ENDBRANCH  14  15
ENDBRANCH   1  14
TORSDOF 4
