REMARK  3 active torsions:
REMARK  status: ('A' for Active; 'I' for Inactive)
REMARK    1  A    between atoms: C4_4  and  O2_28 
REMARK    2  A    between atoms: C5_5  and  C7_7 
REMARK    3  A    between atoms: C11_11  and  C14_18 
ROOT
ATOM      1  C7  <0> d           1.227  -2.187  -0.022  0.00  0.00     0.034 C 
ATOM      2  C8  <0> d           0.514  -2.719   1.223  0.00  0.00     0.068 C 
ATOM      3  C9  <0> d           0.496  -4.229   1.192  0.00  0.00     0.040 C 
ATOM      4  C10 <0> d           0.459  -4.898   0.020  0.00  0.00     0.041 C 
ATOM      5  C11 <0> d           0.442  -6.410  -0.043  0.00  0.00     0.202 C 
ATOM      6  N1  <0> d           0.143  -6.960   1.273  0.00  0.00    -0.084 N 
ATOM      7  C12 <0> d           0.186  -6.230   2.415  0.00  0.00     0.725 A 
ATOM      8  N2  <0> d          -0.125  -7.017   3.408  0.00  0.00    -0.054 NA
ATOM      9  C13 <0> d          -0.376  -8.245   2.944  0.00  0.00     0.275 A 
ATOM     10  N3  <0> d          -0.225  -8.253   1.642  0.00  0.00    -0.149 NA
ATOM     11  N4  <0> d           0.512  -4.884   2.400  0.00  0.00    -0.191 N 
ATOM     12  C20 <0> d           0.440  -4.207  -1.205  0.00  0.00     0.160 C 
ATOM     13  O1  <0> d           0.383  -4.838  -2.243  0.00  0.00    -0.293 OA
ATOM     14  C21 <0> d           0.488  -2.705  -1.260  0.00  0.00     0.093 C 
ATOM     15  H10 <0> d           0.745  -4.418   3.218  0.00  0.00     0.184 HD
ENDROOT
BRANCH   1  16
ATOM     16  C5  <0> d           1.207  -0.680  -0.013  0.00  0.00    -0.020 A 
ATOM     17  C4  <0> d           2.399   0.030  -0.021  0.00  0.00     0.072 A 
ATOM     18  C3  <0> d           2.377   1.417  -0.013  0.00  0.00     0.037 A 
ATOM     19  C2  <0> d           1.170   2.088   0.002  0.00  0.00     0.003 A 
ATOM     20  C1  <0> d          -0.017   1.378   0.010  0.00  0.00     0.001 A 
ATOM     21  C6  <0> d           0.002  -0.004   0.002  0.00  0.00     0.010 A 
BRANCH  17  22
ATOM     22  O2  <0> d           3.586  -0.632  -0.037  0.00  0.00    -0.360 OA
ATOM     23  H17 <0> d           3.938  -0.829   0.842  0.00  0.00     0.217 HD
ENDBRANCH  17  22
ENDBRANCH   1  16
BRANCH   5  24
ATOM     24  C14 <0> d           1.791  -6.907  -0.495  0.00  0.00    -0.006 A 
ATOM     25  C19 <0> d           1.899  -7.655  -1.654  0.00  0.00     0.042 A 
ATOM     26  C18 <0> d           3.138  -8.107  -2.072  0.00  0.00     0.024 A 
ATOM     27 Cl1  <0> d           0.481  -8.022  -2.587  0.00  0.00    -0.084 Cl
ATOM     28  C17 <0> d           4.266  -7.819  -1.326  0.00  0.00     0.002 A 
ATOM     29  C16 <0> d           4.156  -7.076  -0.165  0.00  0.00     0.001 A 
ATOM     30  C15 <0> d           2.919  -6.620   0.250  0.00  0.00     0.011 A 
ENDBRANCH   5  24
TORSDOF 3
