REMARK  4 active torsions:
REMARK  status: ('A' for Active; 'I' for Inactive)
REMARK    1  A    between atoms: C2_2  and  C3_3 
REMARK    2  A    between atoms: C6_6  and  C9_9 
REMARK    3  A    between atoms: C9_9  and  N1_11 
REMARK    4  A    between atoms: N1_11  and  C11_12 
ROOT
ATOM      1  N1  <0> d          -5.578  -3.005  -1.015  0.00  0.00    -0.361 N 
ATOM      2  H14 <0> d          -4.998  -2.985  -1.793  0.00  0.00     0.162 HD
ENDROOT
BRANCH   1   3
ATOM      3  C9  <0> d          -5.419  -2.005   0.043  0.00  0.00     0.112 C 
ATOM      4  C10 <0> d          -6.392  -0.849  -0.198  0.00  0.00     0.037 C 
BRANCH   3   5
ATOM      5  C6  <0> d          -4.006  -1.482   0.032  0.00  0.00    -0.036 A 
ATOM      6  C5  <0> d          -3.348  -1.244   1.225  0.00  0.00     0.010 A 
ATOM      7  C4  <0> d          -2.051  -0.766   1.215  0.00  0.00     0.007 A 
ATOM      8  C3  <0> d          -1.412  -0.526   0.013  0.00  0.00    -0.059 A 
ATOM      9  C8  <0> d          -2.072  -0.758  -1.179  0.00  0.00     0.007 A 
ATOM     10  C7  <0> d          -3.367  -1.241  -1.170  0.00  0.00     0.010 A 
BRANCH   8  11
ATOM     11  C2  <0> d           0.002  -0.004   0.002  0.00  0.00     0.034 C 
ATOM     12  C1  <0> d          -0.019   1.526   0.010  0.00  0.00     0.010 C 
ENDBRANCH   8  11
ENDBRANCH   3   5
ENDBRANCH   1   3
BRANCH   1  13
ATOM     13  C11 <0> d          -6.562  -3.987  -0.905  0.00  0.00     0.213 A 
ATOM     14  N4  <0> d          -7.349  -4.024   0.139  0.00  0.00    -0.145 NA
ATOM     15  N3  <0> d          -8.335  -5.014   0.232  0.00  0.00    -0.222 N 
ATOM     16  C13 <0> d          -8.482  -5.938  -0.734  0.00  0.00     0.347 A 
ATOM     17  C14 <0> d          -9.217  -5.046   1.402  0.00  0.00     0.185 C 
ATOM     18  N2  <0> d          -7.690  -5.939  -1.822  0.00  0.00    -0.266 N 
ATOM     19  O2  <0> d          -9.345  -6.787  -0.622  0.00  0.00    -0.245 OA
ATOM     20  C12 <0> d          -6.728  -5.002  -1.959  0.00  0.00     0.298 A 
ATOM     21  C15 <0> d          -7.872  -6.957  -2.859  0.00  0.00     0.165 C 
ATOM     22  O1  <0> d          -6.008  -4.996  -2.939  0.00  0.00    -0.264 OA
ENDBRANCH   1  13
TORSDOF 4
