REMARK  7 active torsions:
REMARK  status: ('A' for Active; 'I' for Inactive)
REMARK    1  A    between atoms: C2_2  and  C3_3 
REMARK    2  A    between atoms: C2_2  and  O2_5 
REMARK    3  A    between atoms: O2_5  and  C4_6 
REMARK    4  A    between atoms: C7_9  and  C10_12 
REMARK    5  A    between atoms: C12_14  and  C14_21 
REMARK    6  A    between atoms: C17_24  and  O4_29 
REMARK    7  A    between atoms: C19_26  and  O3_27 
ROOT
ATOM      1  C10 <0> d           4.047   1.827  -0.300  0.00  0.00     0.058 C 
ATOM      2  C11 <0> d           3.324   2.922  -0.489  0.00  0.00     0.036 C 
ATOM      3  C12 <0> d           1.849   3.000  -0.202  0.00  0.00     0.191 C 
ATOM      4  N1  <0> d           1.321   1.660   0.025  0.00  0.00    -0.065 N 
ATOM      5  C13 <0> d           2.100   0.562   0.210  0.00  0.00     0.745 A 
ATOM      6  N2  <0> d           1.302  -0.451   0.395  0.00  0.00     0.065 NA
ATOM      7  N3  <0> d           0.073  -0.068   0.334  0.00  0.00    -0.008 NA
ATOM      8  N4  <0> d           0.007   1.204   0.110  0.00  0.00    -0.029 NA
ATOM      9  N5  <0> d           3.483   0.637   0.181  0.00  0.00    -0.186 N 
ATOM     10  H11 <0> d           4.037  -0.101   0.481  0.00  0.00     0.184 HD
ENDROOT
BRANCH   1  11
ATOM     11  C7  <0> d           5.495   1.861  -0.608  0.00  0.00    -0.009 A 
ATOM     12  C6  <0> d           6.277   0.722  -0.418  0.00  0.00     0.016 A 
ATOM     13  C5  <0> d           7.625   0.758  -0.705  0.00  0.00     0.037 A 
ATOM     14  C4  <0> d           8.204   1.926  -1.183  0.00  0.00     0.070 A 
ATOM     15  C9  <0> d           7.428   3.062  -1.373  0.00  0.00     0.037 A 
ATOM     16  C8  <0> d           6.079   3.031  -1.093  0.00  0.00     0.016 A 
BRANCH  14  17
ATOM     17  O2  <0> d           9.533   1.958  -1.465  0.00  0.00    -0.336 OA
BRANCH  17  18
ATOM     18  C2  <0> d          10.248   0.725  -1.361  0.00  0.00     0.225 C 
ATOM     19  C1  <0> d          10.681   0.507   0.091  0.00  0.00     0.052 C 
BRANCH  18  20
ATOM     20  C3  <0> d          11.466   0.774  -2.246  0.00  0.00     0.203 C 
ATOM     21  O1  <0> d          11.748   1.794  -2.829  0.00  0.00    -0.646 OA
ATOM     22  O5  <0> d          12.238  -0.315  -2.388  0.00  0.00    -0.646 OA
ENDBRANCH  18  20
ENDBRANCH  17  18
ENDBRANCH  14  17
ENDBRANCH   1  11
BRANCH   3  23
ATOM     23  C14 <0> d           1.620   3.843   1.026  0.00  0.00     0.004 A 
ATOM     24  C19 <0> d           0.852   4.995   0.943  0.00  0.00     0.079 A 
ATOM     25  C18 <0> d           0.642   5.770   2.074  0.00  0.00     0.073 A 
ATOM     26  C17 <0> d           1.201   5.392   3.284  0.00  0.00     0.068 A 
ATOM     27  C16 <0> d           1.969   4.239   3.362  0.00  0.00     0.037 A 
ATOM     28  C15 <0> d           2.172   3.465   2.236  0.00  0.00     0.015 A 
BRANCH  24  29
ATOM     29  O3  <0> d           0.304   5.364  -0.245  0.00  0.00    -0.355 OA
ATOM     30  C20 <0> d          -0.475   6.561  -0.257  0.00  0.00     0.210 C 
ENDBRANCH  24  29
BRANCH  26  31
ATOM     31  O4  <0> d           0.997   6.149   4.394  0.00  0.00    -0.361 OA
ATOM     32  H18 <0> d           0.213   5.898   4.903  0.00  0.00     0.217 HD
ENDBRANCH  26  31
ENDBRANCH   3  23
TORSDOF 7
