REMARK  4 active torsions:
REMARK  status: ('A' for Active; 'I' for Inactive)
REMARK    1  A    between atoms: C4_4  and  C7_7 
REMARK    2  A    between atoms: C7_7  and  N2_10 
REMARK       I    between atoms: N2_10  and  C9_11 
REMARK    3  A    between atoms: C9_11  and  C10_13 
REMARK       I    between atoms: N3_15  and  C18_23 
REMARK    4  A    between atoms: C18_23  and  C19_25 
ROOT
ATOM      1  C7  <0> d           4.848  -2.465  -1.256  0.00  0.00     0.225 C 
ATOM      2  C8  <0> d           6.252  -2.081  -1.478  0.00  0.00     0.089 C 
ATOM      3  N1  <0> d           7.335  -1.784  -1.649  0.00  0.00    -0.195 NA
ENDROOT
BRANCH   1   4
ATOM      4  C4  <0> d           4.276  -3.031  -2.530  0.00  0.00    -0.022 A 
ATOM      5  C3  <0> d           3.484  -2.242  -3.343  0.00  0.00     0.010 A 
ATOM      6  C2  <0> d           2.959  -2.760  -4.511  0.00  0.00     0.001 A 
ATOM      7  C1  <0> d           3.226  -4.069  -4.868  0.00  0.00     0.000 A 
ATOM      8  C6  <0> d           4.019  -4.859  -4.056  0.00  0.00     0.001 A 
ATOM      9  C5  <0> d           4.542  -4.340  -2.886  0.00  0.00     0.010 A 
ENDBRANCH   1   4
BRANCH   1  10
ATOM     10  N2  <0> d           4.780  -3.477  -0.199  0.00  0.00    -0.340 N 
ATOM     11  C9  <0> d           4.746  -3.098   1.094  0.00  0.00     0.225 C 
ATOM     12  O1  <0> d           4.771  -1.920   1.382  0.00  0.00    -0.273 OA
ATOM     13  H8  <0> d           4.760  -4.419  -0.429  0.00  0.00     0.164 HD
BRANCH  11  14
ATOM     14  C10 <0> d           4.676  -4.138   2.183  0.00  0.00     0.106 C 
ATOM     15  C13 <0> d           6.088  -4.488   2.681  0.00  0.00    -0.007 C 
ATOM     16  C12 <0> d           6.098  -4.108   4.175  0.00  0.00     0.136 C 
ATOM     17  C17 <0> d           6.353  -5.981   2.514  0.00  0.00     0.039 C 
ATOM     18  C14 <0> d           7.133  -3.674   1.923  0.00  0.00     0.039 C 
ATOM     19  N3  <0> d           4.672  -4.147   4.578  0.00  0.00    -0.346 N 
ATOM     20  C11 <0> d           3.946  -3.573   3.421  0.00  0.00     0.141 C 
ATOM     21  C18 <0> d           4.153  -4.604   5.736  0.00  0.00     0.255 C 
ATOM     22  O2  <0> d           4.892  -4.963   6.634  0.00  0.00    -0.267 OA
ATOM     23  C16 <0> d           7.784  -6.294   2.962  0.00  0.00     0.233 C 
ATOM     24  N4  <0> d           8.732  -5.515   2.156  0.00  0.00    -0.075 N 
ATOM     25  C15 <0> d           8.531  -4.080   2.395  0.00  0.00     0.233 C 
ATOM     26  H17 <0> d           8.586  -5.716   1.179  0.00  0.00     0.277 HD
ATOM     27  H27 <0> d           9.675  -5.768   2.412  0.00  0.00     0.277 HD
BRANCH  21  28
ATOM     28  C19 <0> d           2.697  -4.668   5.912  0.00  0.00     0.050 A 
ATOM     29  C22 <0> d           2.078  -5.741   6.693  0.00  0.00    -0.003 A 
ATOM     30  C21 <0> d           0.675  -5.630   6.753  0.00  0.00     0.016 A 
ATOM     31  C23 <0> d           2.668  -6.825   7.369  0.00  0.00     0.014 A 
ATOM     32  S1  <0> d           0.327  -4.179   5.797  0.00  0.00    -0.100 SA
ATOM     33  C26 <0> d          -0.098  -6.539   7.443  0.00  0.00     0.019 A 
ATOM     34  C20 <0> d           1.882  -3.736   5.353  0.00  0.00     0.068 A 
ATOM     35  C25 <0> d           0.508  -7.599   8.088  0.00  0.00     0.001 A 
ATOM     36  C24 <0> d           1.889  -7.728   8.049  0.00  0.00     0.001 A 
ENDBRANCH  21  28
ENDBRANCH  11  14
ENDBRANCH   1  10
TORSDOF 4
