REMARK  6 active torsions:
REMARK  status: ('A' for Active; 'I' for Inactive)
REMARK    1  A    between atoms: C2_2  and  O1_3 
REMARK    2  A    between atoms: O1_3  and  C3_4 
REMARK    3  A    between atoms: C3_4  and  C4_6 
REMARK    4  A    between atoms: C4_6  and  C5_7 
REMARK    5  A    between atoms: C5_7  and  N1_8 
REMARK       I    between atoms: N1_8  and  C6_9 
REMARK    6  A    between atoms: C6_9  and  C7_11 
ROOT
ATOM      1  N1  <0> d          -4.124  -4.532   0.034  0.00  0.00    -0.356 N 
ATOM      2  C6  <0> d          -4.285  -5.870   0.011  0.00  0.00     0.258 C 
ATOM      3  O3  <0> d          -3.316  -6.597  -0.109  0.00  0.00    -0.267 OA
ATOM      4  H10 <0> d          -4.901  -3.951   0.055  0.00  0.00     0.162 HD
ENDROOT
BRANCH   2   5
ATOM      5  C7  <0> d          -5.627  -6.450   0.132  0.00  0.00     0.117 A 
ATOM      6  C10 <0> d          -6.767  -5.618   0.154  0.00  0.00     0.270 A 
ATOM      7  N3  <0> d          -8.010  -6.176   0.261  0.00  0.00    -0.266 N 
ATOM      8  O4  <0> d          -6.643  -4.408   0.074  0.00  0.00    -0.266 OA
ATOM      9  C9  <0> d          -8.076  -7.535   0.353  0.00  0.00     0.179 A 
ATOM     10  C11 <0> d          -9.206  -5.493   0.291  0.00  0.00     0.110 A 
ATOM     11  N2  <0> d          -7.018  -8.323   0.339  0.00  0.00    -0.235 NA
ATOM     12  S1  <0> d          -9.716  -7.868   0.476  0.00  0.00    -0.062 SA
ATOM     13  C8  <0> d          -5.794  -7.836   0.232  0.00  0.00     0.142 A 
ATOM     14  C12 <0> d         -10.332  -6.197   0.406  0.00  0.00     0.071 A 
ENDBRANCH   2   5
BRANCH   1  15
ATOM     15  C5  <0> d          -2.778  -3.955   0.028  0.00  0.00     0.132 C 
BRANCH  15  16
ATOM     16  C4  <0> d          -2.877  -2.429   0.057  0.00  0.00     0.130 C 
BRANCH  16  17
ATOM     17  C3  <0> d          -1.491  -1.835   0.050  0.00  0.00     0.260 C 
ATOM     18  O2  <0> d          -0.524  -2.559   0.024  0.00  0.00    -0.265 OA
BRANCH  17  19
ATOM     19  O1  <0> d          -1.332  -0.503   0.073  0.00  0.00    -0.322 OA
BRANCH  19  20
ATOM     20  C2  <0> d           0.009  -0.010   0.065  0.00  0.00     0.174 C 
ATOM     21  C1  <0> d          -0.009   1.520   0.093  0.00  0.00     0.034 C 
ENDBRANCH  19  20
ENDBRANCH  17  19
ENDBRANCH  16  17
ENDBRANCH  15  16
ENDBRANCH   1  15
TORSDOF 6
