REMARK  3 active torsions:
REMARK  status: ('A' for Active; 'I' for Inactive)
REMARK    1  A    between atoms: C6_6  and  C8_9 
REMARK       I    between atoms: C8_9  and  N1_11 
REMARK    2  A    between atoms: C10_13  and  C17_21 
REMARK       I    between atoms: C17_21  and  N3_23 
REMARK    3  A    between atoms: N3_23  and  C18_24 
ROOT
ATOM      1  C8  <0> d           0.085  -2.895   2.593  0.00  0.00     0.258 C 
ATOM      2  O1  <0> d           1.130  -3.245   3.106  0.00  0.00    -0.267 OA
ATOM      3  N1  <0> d          -1.091  -3.265   3.138  0.00  0.00    -0.346 N 
ATOM      4  C9  <0> d          -2.456  -2.946   2.657  0.00  0.00     0.141 C 
ATOM      5  C10 <0> d          -3.264  -4.243   2.884  0.00  0.00     0.106 C 
ATOM      6  C11 <0> d          -2.508  -4.986   3.998  0.00  0.00    -0.007 C 
ATOM      7  C12 <0> d          -1.311  -4.091   4.349  0.00  0.00     0.136 C 
ATOM      8  C13 <0> d          -2.018  -6.339   3.493  0.00  0.00     0.039 C 
ATOM      9  C14 <0> d          -1.320  -7.083   4.636  0.00  0.00     0.233 C 
ATOM     10  N2  <0> d          -2.259  -7.265   5.749  0.00  0.00    -0.075 N 
ATOM     11  C15 <0> d          -2.654  -5.959   6.289  0.00  0.00     0.233 C 
ATOM     12  C16 <0> d          -3.408  -5.167   5.217  0.00  0.00     0.039 C 
ATOM     13  H16 <0> d          -3.079  -7.753   5.420  0.00  0.00     0.277 HD
ATOM     14  H26 <0> d          -1.817  -7.808   6.475  0.00  0.00     0.277 HD
ENDROOT
BRANCH   1  15
ATOM     15  C6  <0> d           0.103  -2.063   1.373  0.00  0.00     0.092 A 
ATOM     16  C5  <0> d           0.112  -2.666   0.112  0.00  0.00     0.052 A 
ATOM     17  C4  <0> d           0.129  -1.881  -1.024  0.00  0.00     0.026 A 
ATOM     18 Cl1  <0> d           0.101  -4.396  -0.025  0.00  0.00    -0.083 Cl
ATOM     19  C3  <0> d           0.138  -0.502  -0.917  0.00  0.00     0.011 A 
ATOM     20  C2  <0> d           0.129   0.103   0.326  0.00  0.00    -0.022 A 
ATOM     21  C1  <0> d           0.138   1.606   0.430  0.00  0.00     0.051 C 
ATOM     22  C7  <0> d           0.117  -0.668   1.473  0.00  0.00     0.139 A 
ATOM     23  F1  <0> d           0.114  -0.076   2.688  0.00  0.00    -0.204 F 
ENDBRANCH   1  15
BRANCH   5  24
ATOM     24  C17 <0> d          -4.667  -3.917   3.325  0.00  0.00     0.225 C 
ATOM     25  O2  <0> d          -4.881  -2.917   3.977  0.00  0.00    -0.273 OA
ATOM     26  N3  <0> d          -5.685  -4.737   2.994  0.00  0.00    -0.347 N 
ATOM     27  H21 <0> d          -5.514  -5.536   2.473  0.00  0.00     0.163 HD
BRANCH  26  28
ATOM     28  C18 <0> d          -7.049  -4.420   3.423  0.00  0.00     0.186 C 
ATOM     29  C21 <0> d          -7.326  -5.008   4.794  0.00  0.00     0.281 C 
ATOM     30  O3  <0> d          -8.392  -5.832   4.706  0.00  0.00    -0.320 OA
ATOM     31  O4  <0> d          -6.695  -4.777   5.798  0.00  0.00    -0.263 OA
ATOM     32  C20 <0> d          -8.456  -6.350   3.360  0.00  0.00     0.181 C 
ATOM     33  C19 <0> d          -8.084  -5.112   2.500  0.00  0.00     0.062 C 
ENDBRANCH  26  28
ENDBRANCH   5  24
TORSDOF 3
