REMARK  5 active torsions:
REMARK  status: ('A' for Active; 'I' for Inactive)
REMARK    1  A    between atoms: C7_7  and  N1_14 
REMARK    2  A    between atoms: N1_14  and  C14_15 
REMARK    3  A    between atoms: C14_15  and  C15_16 
REMARK    4  A    between atoms: C15_16  and  N2_17 
REMARK    5  A    between atoms: N2_17  and  C16_18 
ROOT
ATOM      1  C14 <0> d          -4.527   3.600   1.188  0.00  0.00     0.107 C 
ENDROOT
BRANCH   1   2
ATOM      2  N1  <0> d          -3.945   3.534  -0.159  0.00  0.00    -0.290 NA
ATOM      3  H9  <0> d          -3.817   2.576  -0.451  0.00  0.00     0.127 HD
BRANCH   2   4
ATOM      4  C7  <0> d          -2.758   4.231  -0.219  0.00  0.00     0.033 A 
ATOM      5  C5  <0> d          -1.542   3.633   0.165  0.00  0.00     0.013 A 
ATOM      6  C4  <0> d          -0.340   4.385   0.089  0.00  0.00     0.044 A 
ATOM      7  C6  <0> d          -1.502   2.302   0.616  0.00  0.00     0.015 A 
ATOM      8  C3  <0> d           0.871   3.773   0.477  0.00  0.00     0.030 A 
ATOM      9  N3  <0> d          -0.281   5.686  -0.344  0.00  0.00    -0.355 N 
ATOM     10  C2  <0> d           0.869   2.486   0.913  0.00  0.00     0.002 A 
ATOM     11  C1  <0> d          -0.315   1.751   0.986  0.00  0.00     0.001 A 
ATOM     12  C13 <0> d          -1.477   6.252  -0.713  0.00  0.00     0.044 A 
ATOM     13  H23 <0> d           0.604   6.206  -0.389  0.00  0.00     0.166 HD
ATOM     14  C8  <0> d          -2.720   5.567  -0.667  0.00  0.00     0.013 A 
ATOM     15  C12 <0> d          -1.453   7.588  -1.163  0.00  0.00     0.030 A 
ATOM     16  C9  <0> d          -3.893   6.228  -1.067  0.00  0.00     0.015 A 
ATOM     17  C10 <0> d          -3.828   7.518  -1.495  0.00  0.00     0.001 A 
ATOM     18  C11 <0> d          -2.609   8.194  -1.542  0.00  0.00     0.002 A 
ENDBRANCH   2   4
ENDBRANCH   1   2
BRANCH   1  19
ATOM     19  C15 <0> d          -5.801   2.754   1.235  0.00  0.00     0.107 C 
BRANCH  19  20
ATOM     20  N2  <0> d          -6.383   2.820   2.582  0.00  0.00    -0.290 NA
ATOM     21  H14 <0> d          -6.625   3.769   2.825  0.00  0.00     0.127 HD
BRANCH  20  22
ATOM     22  C16 <0> d          -7.477   1.989   2.689  0.00  0.00     0.033 A 
ATOM     23  C24 <0> d          -7.353   0.685   3.210  0.00  0.00     0.013 A 
ATOM     24  C23 <0> d          -8.503  -0.141   3.305  0.00  0.00     0.044 A 
ATOM     25  C25 <0> d          -6.107   0.194   3.636  0.00  0.00     0.015 A 
ATOM     26  C28 <0> d          -8.364  -1.443   3.828  0.00  0.00     0.030 A 
ATOM     27  N4  <0> d          -9.759   0.254   2.913  0.00  0.00    -0.355 N 
ATOM     28  C27 <0> d          -7.143  -1.884   4.230  0.00  0.00     0.002 A 
ATOM     29  C26 <0> d          -6.015  -1.069   4.134  0.00  0.00     0.001 A 
ATOM     30  C22 <0> d          -9.859   1.527   2.408  0.00  0.00     0.044 A 
ATOM     31  H24 <0> d         -10.574  -0.366   2.993  0.00  0.00     0.166 HD
ATOM     32  C17 <0> d          -8.758   2.415   2.287  0.00  0.00     0.013 A 
ATOM     33  C21 <0> d         -11.134   1.964   1.996  0.00  0.00     0.030 A 
ATOM     34  C18 <0> d          -8.957   3.700   1.752  0.00  0.00     0.015 A 
ATOM     35  C19 <0> d         -10.203   4.083   1.366  0.00  0.00     0.001 A 
ATOM     36  C20 <0> d         -11.289   3.216   1.489  0.00  0.00     0.002 A 
ENDBRANCH  20  22
ENDBRANCH  19  20
ENDBRANCH   1  19
TORSDOF 5
