REMARK  6 active torsions:
REMARK  status: ('A' for Active; 'I' for Inactive)
REMARK    1  A    between atoms: C2_2  and  C3_3 
REMARK    2  A    between atoms: C3_3  and  C4_4 
REMARK    3  A    between atoms: C3_3  and  N1_7 
REMARK    4  A    between atoms: C4_4  and  O1_5 
REMARK       I    between atoms: N1_7  and  C6_8 
REMARK    5  A    between atoms: C6_8  and  C7_10 
REMARK       I    between atoms: N2_12  and  C15_20 
REMARK    6  A    between atoms: C15_20  and  C16_22 
ROOT
ATOM      1  C7  <0> d           3.965   1.529   1.533  0.00  0.00     0.106 C 
ATOM      2  C8  <0> d           4.479   1.464   0.077  0.00  0.00     0.141 C 
ATOM      3  N2  <0> d           4.306   2.841  -0.443  0.00  0.00    -0.346 N 
ATOM      4  C9  <0> d           4.684   3.714   0.694  0.00  0.00     0.136 C 
ATOM      5  C10 <0> d           4.104   3.007   1.935  0.00  0.00    -0.007 C 
ATOM      6  C11 <0> d           2.739   3.591   2.284  0.00  0.00     0.039 C 
ATOM      7  C12 <0> d           2.911   5.044   2.735  0.00  0.00     0.233 C 
ATOM      8  N3  <0> d           3.800   5.094   3.902  0.00  0.00    -0.075 N 
ATOM      9  C13 <0> d           5.138   4.617   3.534  0.00  0.00     0.233 C 
ATOM     10  C14 <0> d           5.060   3.146   3.116  0.00  0.00     0.039 C 
ATOM     11  C15 <0> d           3.898   3.214  -1.672  0.00  0.00     0.257 C 
ATOM     12  O3  <0> d           3.529   2.376  -2.471  0.00  0.00    -0.267 OA
ATOM     13  H22 <0> d           3.863   6.045   4.235  0.00  0.00     0.277 HD
ATOM     14  H34 <0> d           3.425   4.509   4.634  0.00  0.00     0.277 HD
ENDROOT
BRANCH  11  15
ATOM     15  C16 <0> d           3.900   4.642  -2.047  0.00  0.00     0.072 A 
ATOM     16  C20 <0> d           2.910   5.152  -2.891  0.00  0.00     0.067 A 
ATOM     17  C19 <0> d           2.959   6.513  -3.209  0.00  0.00     0.060 A 
ATOM     18 Cl1  <0> d           1.655   4.131  -3.520  0.00  0.00    -0.082 Cl
ATOM     19  C18 <0> d           3.997   7.310  -2.684  0.00  0.00     0.159 A 
ATOM     20  C21 <0> d           2.134   7.395  -4.028  0.00  0.00     0.067 A 
ATOM     21  N4  <0> d           4.917   6.773  -1.889  0.00  0.00    -0.240 NA
ATOM     22  N6  <0> d           3.795   8.575  -3.161  0.00  0.00    -0.256 N 
ATOM     23  C17 <0> d           4.898   5.501  -1.567  0.00  0.00     0.138 A 
ATOM     24  N5  <0> d           2.656   8.587  -3.972  0.00  0.00    -0.175 NA
ATOM     25  C22 <0> d           4.639   9.736  -2.868  0.00  0.00     0.182 C 
ATOM     26  C23 <0> d           0.901   6.999  -4.799  0.00  0.00     0.073 C 
ENDBRANCH  11  15
BRANCH   1  27
ATOM     27  C6  <0> d           2.521   1.101   1.600  0.00  0.00     0.224 C 
ATOM     28  N1  <0> d           2.047   0.502   2.710  0.00  0.00    -0.354 N 
ATOM     29  H13 <0> d           2.634   0.346   3.466  0.00  0.00     0.162 HD
ATOM     30  O2  <0> d           1.787   1.296   0.654  0.00  0.00    -0.273 OA
BRANCH  28  31
ATOM     31  C3  <0> d           0.643   0.086   2.775  0.00  0.00     0.107 C 
BRANCH  31  32
ATOM     32  C2  <0> d           0.492  -1.298   2.140  0.00  0.00     0.023 C 
ATOM     33  C1  <0> d           0.821  -1.214   0.648  0.00  0.00     0.007 C 
ENDBRANCH  31  32
BRANCH  31  34
ATOM     34  C4  <0> d           0.196   0.029   4.236  0.00  0.00     0.192 C 
BRANCH  34  35
ATOM     35  O1  <0> d           0.925  -0.993   4.918  0.00  0.00    -0.394 OA
ATOM     36  C5  <0> d           0.580  -1.131   6.298  0.00  0.00     0.201 C 
ENDBRANCH  34  35
ENDBRANCH  31  34
ENDBRANCH  28  31
ENDBRANCH   1  27
TORSDOF 6
