REMARK  4 active torsions:
REMARK  status: ('A' for Active; 'I' for Inactive)
REMARK    1  A    between atoms: C3_5  and  N3_7 
REMARK       I    between atoms: N3_7  and  C4_8 
REMARK    2  A    between atoms: C4_8  and  C5_10 
REMARK    3  A    between atoms: N6_23  and  C16_26 
REMARK    4  A    between atoms: C15_24  and  N7_25 
ROOT
ATOM      1  C5  <0> d           0.353  -6.355   0.346  0.00  0.00     0.077 A 
ATOM      2  C6  <0> d           0.352  -6.865   1.647  0.00  0.00     0.042 A 
ATOM      3  C7  <0> d           0.105  -8.225   1.815  0.00  0.00     0.080 A 
ATOM      4  C8  <0> d          -0.137  -9.045   0.679  0.00  0.00     0.150 A 
ATOM      5  N4  <0> d          -0.372 -10.348   0.863  0.00  0.00    -0.212 NA
ATOM      6  C9  <0> d          -0.388 -10.902   2.070  0.00  0.00     0.139 A 
ATOM      7  C10 <0> d          -0.644 -12.286   2.172  0.00  0.00     0.051 A 
ATOM      8  C11 <0> d          -0.665 -12.878   3.397  0.00  0.00     0.005 A 
ATOM      9  C12 <0> d          -0.431 -12.106   4.545  0.00  0.00     0.018 A 
ATOM     10  C13 <0> d          -0.188 -10.782   4.433  0.00  0.00     0.102 A 
ATOM     11  N5  <0> d          -0.163 -10.177   3.209  0.00  0.00    -0.273 N 
ATOM     12  C14 <0> d           0.085  -8.848   3.139  0.00  0.00     0.267 A 
ATOM     13  O2  <0> d           0.285  -8.192   4.145  0.00  0.00    -0.267 OA
ATOM     14  N6  <0> d          -0.127  -8.512  -0.544  0.00  0.00    -0.312 N 
ATOM     15  C15 <0> d           0.099  -7.226  -0.737  0.00  0.00     0.119 A 
ENDROOT
BRANCH   1  16
ATOM     16  C4  <0> d           0.608  -4.926   0.108  0.00  0.00     0.261 C 
ATOM     17  N3  <0> d           0.731  -4.080   1.150  0.00  0.00    -0.300 N 
ATOM     18  H4  <0> d           0.651  -4.413   2.057  0.00  0.00     0.171 HD
ATOM     19  O1  <0> d           0.709  -4.508  -1.030  0.00  0.00    -0.267 OA
BRANCH  17  20
ATOM     20  C3  <0> d           0.973  -2.730   0.924  0.00  0.00     0.196 A 
ATOM     21  N2  <0> d           1.115  -2.068  -0.216  0.00  0.00    -0.123 NA
ATOM     22  N1  <0> d           1.333  -0.826  -0.240  0.00  0.00    -0.145 NA
ATOM     23  C2  <0> d           1.433  -0.108   0.861  0.00  0.00     0.097 A 
ATOM     24  C1  <0> d           1.687   1.367   1.036  0.00  0.00     0.081 C 
ATOM     25  S1  <0> d           1.188  -1.388   2.089  0.00  0.00    -0.034 SA
ENDBRANCH  17  20
ENDBRANCH   1  16
BRANCH  15  26
ATOM     26  N7  <0> d           0.093  -6.724  -2.021  0.00  0.00    -0.384 N 
ATOM     27  H10 <0> d           0.366  -7.287  -2.763  0.00  0.00     0.157 HD
ATOM     28  H22 <0> d          -0.183  -5.809  -2.182  0.00  0.00     0.157 HD
ENDBRANCH  15  26
BRANCH  14  29
ATOM     29  C16 <0> d          -0.378  -9.375  -1.701  0.00  0.00     0.093 C 
ATOM     30  C21 <0> d           0.690 -10.469  -1.764  0.00  0.00     0.026 C 
ATOM     31  C20 <0> d           0.427 -11.369  -2.972  0.00  0.00     0.002 C 
ATOM     32  C19 <0> d          -0.955 -12.012  -2.838  0.00  0.00     0.000 C 
ATOM     33  C18 <0> d          -2.022 -10.918  -2.776  0.00  0.00     0.002 C 
ATOM     34  C17 <0> d          -1.760 -10.018  -1.567  0.00  0.00     0.026 C 
ENDBRANCH  14  29
TORSDOF 4
