REMARK  4 active torsions:
REMARK  status: ('A' for Active; 'I' for Inactive)
REMARK    1  A    between atoms: C7_9  and  C9_14 
REMARK    2  A    between atoms: C9_14  and  N4_29 
REMARK    3  A    between atoms: N3_17  and  S1_20 
REMARK    4  A    between atoms: S1_20  and  C14_23 
ROOT
ATOM      1  C10 <0> d           4.024   0.665  -3.570  0.00  0.00     0.256 C 
ATOM      2  C11 <0> d           4.771   0.521  -2.239  0.00  0.00     0.163 C 
ATOM      3  N3  <0> d           4.382  -0.755  -1.621  0.00  0.00    -0.303 N 
ATOM      4  C12 <0> d           4.475  -1.978  -2.432  0.00  0.00     0.163 C 
ATOM      5  C13 <0> d           3.734  -1.735  -3.757  0.00  0.00     0.256 C 
ATOM      6  N4  <0> d           4.298  -0.528  -4.399  0.00  0.00    -0.061 N 
ATOM      7  H17 <0> d           5.314  -0.644  -4.491  0.00  0.00     0.280 HD
ENDROOT
BRANCH   6   8
ATOM      8  C9  <0> d           3.712  -0.352  -5.744  0.00  0.00     0.313 C 
BRANCH   8   9
ATOM      9  C7  <0> d           4.471   0.731  -6.466  0.00  0.00     0.133 A 
ATOM     10  N1  <0> d           5.516   1.240  -5.888  0.00  0.00    -0.233 NA
ATOM     11  C4  <0> d           6.252   2.214  -6.479  0.00  0.00     0.076 A 
ATOM     12  C3  <0> d           5.862   2.692  -7.751  0.00  0.00     0.061 A 
ATOM     13  C5  <0> d           7.378   2.760  -5.862  0.00  0.00     0.056 A 
ATOM     14  C2  <0> d           6.598   3.696  -8.376  0.00  0.00     0.021 A 
ATOM     15  C8  <0> d           4.670   2.097  -8.375  0.00  0.00     0.259 A 
ATOM     16  C1  <0> d           7.698   4.216  -7.752  0.00  0.00     0.025 A 
ATOM     17  C6  <0> d           8.090   3.753  -6.502  0.00  0.00     0.036 A 
ATOM     18 Cl1  <0> d           9.492   4.433  -5.736  0.00  0.00    -0.084 Cl
ATOM     19  N2  <0> d           4.024   1.128  -7.686  0.00  0.00    -0.309 N 
ATOM     20  O1  <0> d           4.280   2.463  -9.469  0.00  0.00    -0.267 OA
ATOM     21  H1  <0> d           3.234   0.713  -8.066  0.00  0.00     0.170 HD
ENDBRANCH   8   9
ENDBRANCH   6   8
BRANCH   3  22
ATOM     22  S1  <0> d           3.861  -0.815  -0.050  0.00  0.00     0.267 S 
ATOM     23  O2  <0> d           4.401   0.328   0.601  0.00  0.00    -0.200 OA
ATOM     24  O3  <0> d           4.102  -2.138   0.408  0.00  0.00    -0.200 OA
BRANCH  22  25
ATOM     25  C14 <0> d           2.112  -0.601  -0.073  0.00  0.00     0.121 A 
ATOM     26  S2  <0> d           1.163   0.908   0.018  0.00  0.00    -0.064 SA
ATOM     27  C17 <0> d          -0.468   0.186  -0.074  0.00  0.00     0.075 A 
ATOM     28  C16 <0> d          -0.184  -1.137  -0.166  0.00  0.00     0.033 A 
ATOM     29 Cl2  <0> d          -2.015   0.974  -0.057  0.00  0.00    -0.076 Cl
ATOM     30  C15 <0> d           1.139  -1.540  -0.166  0.00  0.00     0.035 A 
ENDBRANCH  22  25
ENDBRANCH   3  22
TORSDOF 4
