REMARK  7 active torsions:
REMARK  status: ('A' for Active; 'I' for Inactive)
REMARK    1  A    between atoms: C4_4  and  C7_7 
REMARK    2  A    between atoms: C11_12  and  N3_16 
REMARK    3  A    between atoms: N3_16  and  C13_17 
REMARK    4  A    between atoms: C13_17  and  C14_18 
REMARK    5  A    between atoms: C14_18  and  N4_19 
REMARK       I    between atoms: N4_19  and  C15_20 
REMARK    6  A    between atoms: C15_20  and  C16_22 
REMARK    7  A    between atoms: C17_23  and  C18_24 
ROOT
ATOM      1  C7  <0> d           4.034  -2.507  -3.476  0.00  0.00    -0.003 A 
ATOM      2  C8  <0> d           5.039  -3.341  -3.116  0.00  0.00     0.065 A 
ATOM      3  S1  <0> d           6.311  -2.234  -2.539  0.00  0.00    -0.080 SA
ATOM      4  C9  <0> d           5.473  -0.691  -2.781  0.00  0.00     0.113 A 
ATOM      5  C10 <0> d           4.222  -1.069  -3.310  0.00  0.00     0.057 A 
ATOM      6  C11 <0> d           3.333  -0.000  -3.601  0.00  0.00     0.139 A 
ATOM      7  N1  <0> d           3.721   1.244  -3.366  0.00  0.00    -0.224 NA
ATOM      8  C12 <0> d           4.910   1.527  -2.868  0.00  0.00     0.236 A 
ATOM      9  N2  <0> d           5.778   0.576  -2.577  0.00  0.00    -0.234 NA
ENDROOT
BRANCH   6  10
ATOM     10  N3  <0> d           2.079  -0.256  -4.125  0.00  0.00    -0.372 N 
ATOM     11  H8  <0> d           1.755  -1.168  -4.186  0.00  0.00     0.161 HD
BRANCH  10  12
ATOM     12  C13 <0> d           1.238   0.852  -4.586  0.00  0.00     0.141 C 
BRANCH  12  13
ATOM     13  C14 <0> d          -0.088   0.300  -5.115  0.00  0.00     0.142 C 
BRANCH  13  14
ATOM     14  N4  <0> d          -0.928   1.408  -5.576  0.00  0.00    -0.356 N 
ATOM     15  C15 <0> d          -2.151   1.159  -6.086  0.00  0.00     0.241 C 
ATOM     16  O1  <0> d          -2.556   0.016  -6.163  0.00  0.00    -0.269 OA
ATOM     17  H13 <0> d          -0.605   2.320  -5.514  0.00  0.00     0.162 HD
BRANCH  15  18
ATOM     18  C16 <0> d          -2.998   2.276  -6.551  0.00  0.00     0.081 C 
ATOM     19  C17 <0> d          -4.296   2.320  -6.211  0.00  0.00     0.090 C 
BRANCH  19  20
ATOM     20  C18 <0> d          -4.837   1.353  -5.237  0.00  0.00     0.198 C 
ATOM     21  O2  <0> d          -4.188   1.052  -4.255  0.00  0.00    -0.645 OA
ATOM     22  O3  <0> d          -6.051   0.804  -5.436  0.00  0.00    -0.645 OA
ENDBRANCH  19  20
ENDBRANCH  15  18
ENDBRANCH  13  14
ENDBRANCH  12  13
ENDBRANCH  10  12
ENDBRANCH   6  10
BRANCH   1  23
ATOM     23  C4  <0> d           2.766  -3.045  -4.021  0.00  0.00    -0.024 A 
ATOM     24  C3  <0> d           2.028  -3.975  -3.290  0.00  0.00     0.012 A 
ATOM     25  C2  <0> d           0.847  -4.471  -3.803  0.00  0.00     0.001 A 
ATOM     26  C1  <0> d           0.395  -4.049  -5.040  0.00  0.00     0.000 A 
ATOM     27  C6  <0> d           1.124  -3.128  -5.771  0.00  0.00     0.001 A 
ATOM     28  C5  <0> d           2.306  -2.623  -5.268  0.00  0.00     0.012 A 
ENDBRANCH   1  23
TORSDOF 7
