REMARK  4 active torsions:
REMARK  status: ('A' for Active; 'I' for Inactive)
REMARK    1  A    between atoms: C12_13  and  O6_30 
REMARK    2  A    between atoms: C18_19  and  C22_25 
REMARK    3  A    between atoms: C22_25  and  C23_27 
REMARK    4  A    between atoms: C23_27  and  O5_28 
ROOT
ATOM      1  C1  <0> d          -0.276   1.606  -0.342  0.00  0.00     0.021 C 
ATOM      2  C2  <0> d          -0.190   0.081  -0.200  0.00  0.00    -0.011 C 
ATOM      3  C3  <0> d          -1.590  -0.520  -0.261  0.00  0.00     0.022 C 
ATOM      4  C4  <0> d          -2.411  -0.117   0.968  0.00  0.00     0.084 C 
ATOM      5  C5  <0> d          -1.676  -0.551   2.211  0.00  0.00     0.149 C 
ATOM      6  O1  <0> d          -2.288  -0.907   3.193  0.00  0.00    -0.293 OA
ATOM      7  C6  <0> d          -0.214  -0.539   2.213  0.00  0.00     0.056 C 
ATOM      8  C7  <0> d           0.470  -0.240   1.116  0.00  0.00    -0.034 C 
ATOM      9  C8  <0> d           1.981  -0.208   1.157  0.00  0.00     0.200 C 
ATOM     10  C9  <0> d           2.509  -1.290   0.230  0.00  0.00     0.047 C 
ATOM     11  C10 <0> d           1.518  -1.655  -0.876  0.00  0.00     0.001 C 
ATOM     12  C11 <0> d           0.681  -0.475  -1.336  0.00  0.00     0.031 C 
ATOM     13  C12 <0> d          -0.232  -0.901  -2.489  0.00  0.00     0.124 C 
ATOM     14  C13 <0> d           0.601  -1.410  -3.661  0.00  0.00     0.045 C 
ATOM     15  C14 <0> d           1.537  -2.529  -3.281  0.00  0.00     0.004 C 
ATOM     16  C15 <0> d           2.353  -2.242  -2.020  0.00  0.00     0.004 C 
ATOM     17  C16 <0> d           2.826  -3.650  -1.568  0.00  0.00     0.041 C 
ATOM     18  C17 <0> d           1.734  -4.631  -2.032  0.00  0.00     0.168 C 
ATOM     19  C18 <0> d           0.860  -3.884  -3.069  0.00  0.00     0.160 C 
ATOM     20  O2  <0> d          -0.420  -3.741  -2.436  0.00  0.00    -0.334 OA
ATOM     21  C19 <0> d          -0.485  -4.763  -1.422  0.00  0.00     0.159 C 
ATOM     22  O3  <0> d           0.858  -4.908  -0.924  0.00  0.00    -0.347 OA
ATOM     23  C20 <0> d          -0.991  -6.088  -2.000  0.00  0.00     0.078 C 
ATOM     24  C21 <0> d          -1.417  -4.326  -0.283  0.00  0.00     0.078 C 
ATOM     25  C24 <0> d           2.535  -2.697  -4.448  0.00  0.00     0.019 C 
ATOM     26  F1  <0> d           2.418  -0.452   2.462  0.00  0.00    -0.245 F 
ENDROOT
BRANCH  19  27
ATOM     27  C22 <0> d           0.771  -4.642  -4.376  0.00  0.00     0.188 C 
ATOM     28  O4  <0> d           1.646  -5.414  -4.686  0.00  0.00    -0.292 OA
BRANCH  27  29
ATOM     29  C23 <0> d          -0.409  -4.434  -5.290  0.00  0.00     0.245 C 
BRANCH  29  30
ATOM     30  O5  <0> d          -0.243  -5.223  -6.469  0.00  0.00    -0.393 OA
ATOM     31  H29 <0> d          -0.968  -5.138  -7.104  0.00  0.00     0.209 HD
ENDBRANCH  29  30
ENDBRANCH  27  29
ENDBRANCH  19  27
BRANCH  13  32
ATOM     32  O6  <0> d          -0.984   0.230  -2.954  0.00  0.00    -0.395 OA
ATOM     33  H33 <0> d          -1.584   0.029  -3.686  0.00  0.00     0.210 HD
ENDBRANCH  13  32
TORSDOF 4
