REMARK  3 active torsions:
REMARK  status: ('A' for Active; 'I' for Inactive)
REMARK    1  A    between atoms: C4_4  and  N2_9 
REMARK       I    between atoms: N2_9  and  C8_10 
REMARK    2  A    between atoms: C8_10  and  C9_12 
REMARK    3  A    between atoms: C10_13  and  C11_14 
ROOT
ATOM      1  C1  <0> d          -0.075   1.365  -0.037  0.00  0.00     0.030 C 
ATOM      2  C2  <0> d           1.421   1.777  -0.031  0.00  0.00     0.037 C 
ATOM      3  C3  <0> d           2.072   0.694   0.853  0.00  0.00     0.210 C 
ATOM      4  C4  <0> d           3.430   0.292   0.244  0.00  0.00     0.117 C 
ATOM      5  C5  <0> d           3.451  -1.248   0.428  0.00  0.00     0.055 C 
ATOM      6  C6  <0> d           1.963  -1.611   0.197  0.00  0.00     0.237 C 
ATOM      7  N1  <0> d           1.189  -0.491   0.817  0.00  0.00    -0.065 N 
ATOM      8  C7  <0> d           0.025  -0.180  -0.041  0.00  0.00     0.235 C 
ATOM      9  H16 <0> d           0.889  -0.732   1.749  0.00  0.00     0.280 HD
ENDROOT
BRANCH   4  10
ATOM     10  N2  <0> d           3.489   0.649  -1.176  0.00  0.00    -0.351 N 
ATOM     11  C8  <0> d           4.408   1.533  -1.611  0.00  0.00     0.241 C 
ATOM     12  O1  <0> d           5.189   2.034  -0.827  0.00  0.00    -0.269 OA
ATOM     13  H13 <0> d           2.865   0.249  -1.802  0.00  0.00     0.163 HD
BRANCH  11  14
ATOM     14  C9  <0> d           4.467   1.893  -3.044  0.00  0.00     0.081 C 
ATOM     15  C10 <0> d           5.383   2.773  -3.478  0.00  0.00     0.090 C 
BRANCH  15  16
ATOM     16  C11 <0> d           5.441   3.132  -4.907  0.00  0.00     0.198 C 
ATOM     17  O2  <0> d           4.655   2.628  -5.697  0.00  0.00    -0.645 OA
ATOM     18  O3  <0> d           6.276   3.934  -5.302  0.00  0.00    -0.645 OA
ENDBRANCH  15  16
ENDBRANCH  11  14
ENDBRANCH   4  10
TORSDOF 3
