REMARK  6 active torsions:
REMARK  status: ('A' for Active; 'I' for Inactive)
REMARK    1  A    between atoms: C7_7  and  N1_8 
REMARK    2  A    between atoms: N1_8  and  S1_9 
REMARK    3  A    between atoms: S1_9  and  C8_12 
REMARK    4  A    between atoms: C11_15  and  C14_18 
REMARK       I    between atoms: C14_18  and  N2_20 
REMARK    5  A    between atoms: N2_20  and  C15_21 
REMARK    6  A    between atoms: C20_26  and  O4_27 
ROOT
ATOM      1  C8  <0> d          -1.091   2.499  -1.598  0.00  0.00     0.079 A 
ATOM      2  C9  <0> d          -0.362   3.660  -1.783  0.00  0.00     0.026 A 
ATOM      3  C10 <0> d          -0.210   4.190  -3.048  0.00  0.00     0.018 A 
ATOM      4  C11 <0> d          -0.804   3.557  -4.141  0.00  0.00     0.032 A 
ATOM      5  C12 <0> d          -1.544   2.389  -3.947  0.00  0.00     0.018 A 
ATOM      6  C13 <0> d          -1.683   1.867  -2.677  0.00  0.00     0.026 A 
ENDROOT
BRANCH   1   7
ATOM      7  S1  <0> d          -1.275   1.827   0.020  0.00  0.00     0.263 S 
ATOM      8  O1  <0> d          -2.460   1.044   0.003  0.00  0.00    -0.200 OA
ATOM      9  O2  <0> d          -1.085   2.901   0.931  0.00  0.00    -0.200 OA
BRANCH   7  10
ATOM     10  N1  <0> d          -0.017   0.776   0.259  0.00  0.00    -0.280 N 
ATOM     11  H8  <0> d          -0.219  -0.285   0.465  0.00  0.00     0.179 HD
BRANCH  10  12
ATOM     12  C7  <0> d           1.300   1.238   0.200  0.00  0.00     0.048 A 
ATOM     13  C2  <0> d           2.296   0.432  -0.335  0.00  0.00    -0.035 A 
ATOM     14  C1  <0> d           1.959  -0.943  -0.852  0.00  0.00     0.050 C 
ATOM     15  C3  <0> d           3.598   0.892  -0.392  0.00  0.00     0.009 A 
ATOM     16  C4  <0> d           3.908   2.153   0.081  0.00  0.00     0.001 A 
ATOM     17  C5  <0> d           2.918   2.958   0.614  0.00  0.00     0.002 A 
ATOM     18  C6  <0> d           1.614   2.507   0.670  0.00  0.00     0.030 A 
ENDBRANCH  10  12
ENDBRANCH   7  10
ENDBRANCH   1   7
BRANCH   4  19
ATOM     19  C14 <0> d          -0.650   4.121  -5.499  0.00  0.00     0.256 C 
ATOM     20  O3  <0> d          -1.168   3.568  -6.449  0.00  0.00    -0.267 OA
ATOM     21  N2  <0> d           0.064   5.249  -5.683  0.00  0.00    -0.321 N 
ATOM     22  H13 <0> d           0.606   5.701  -4.839  0.00  0.00     0.169 HD
BRANCH  21  23
ATOM     23  C15 <0> d           0.117   5.846  -6.949  0.00  0.00     0.068 A 
ATOM     24  C20 <0> d           1.189   6.667  -7.290  0.00  0.00     0.092 A 
ATOM     25  C19 <0> d           1.236   7.255  -8.543  0.00  0.00     0.039 A 
ATOM     26  C18 <0> d           0.220   7.026  -9.453  0.00  0.00     0.003 A 
ATOM     27  C17 <0> d          -0.845   6.210  -9.115  0.00  0.00     0.002 A 
ATOM     28  C16 <0> d          -0.896   5.617  -7.868  0.00  0.00     0.032 A 
BRANCH  24  29
ATOM     29  O4  <0> d           2.188   6.891  -6.394  0.00  0.00    -0.358 OA
ATOM     30  H18 <0> d           3.034   7.540  -6.665  0.00  0.00     0.217 HD
ENDBRANCH  24  29
ENDBRANCH  21  23
ENDBRANCH   4  19
TORSDOF 6
