REMARK  4 active torsions:
REMARK  status: ('A' for Active; 'I' for Inactive)
REMARK    1  A    between atoms: C9_9  and  C10_10 
REMARK    2  A    between atoms: C13_15  and  C18_24 
REMARK    3  A    between atoms: C14_16  and  N1_19 
REMARK    4  A    between atoms: C15_17  and  O2_18 
ROOT
ATOM      1  C10 <0> d          -2.226   1.278  -1.337  0.00  0.00     0.054 C 
ATOM      2  C11 <0> d          -2.526   0.141  -0.380  0.00  0.00     0.161 C 
ATOM      3  O1  <0> d          -3.537   0.137   0.281  0.00  0.00    -0.293 OA
ATOM      4  C12 <0> d          -1.524  -0.987  -0.277  0.00  0.00     0.097 C 
ATOM      5  C13 <0> d          -0.146  -0.404   0.055  0.00  0.00     0.081 C 
ATOM      6  C14 <0> d          -0.083   1.185   0.127  0.00  0.00     0.179 C 
ATOM      7  C15 <0> d          -0.783   1.687  -1.116  0.00  0.00     0.081 C 
ENDROOT
BRANCH   1   8
ATOM      8  C9  <0> d          -2.851   2.146  -2.430  0.00  0.00     0.258 C 
ATOM      9  C4  <0> d          -2.170   1.860  -3.743  0.00  0.00    -0.017 A 
ATOM     10  C3  <0> d          -1.885   0.541  -4.065  0.00  0.00     0.010 A 
ATOM     11  C5  <0> d          -1.828   2.867  -4.620  0.00  0.00    -0.048 A 
ATOM     12  C2  <0> d          -1.265   0.232  -5.259  0.00  0.00     0.001 A 
ATOM     13  C1  <0> d          -0.926   1.243  -6.140  0.00  0.00     0.001 A 
ATOM     14  C6  <0> d          -1.207   2.555  -5.820  0.00  0.00     0.008 A 
ATOM     15  C7  <0> d          -2.107   4.315  -4.309  0.00  0.00     0.066 C 
ATOM     16  C8  <0> d          -3.137   4.418  -3.183  0.00  0.00     0.238 C 
ATOM     17  N4  <0> d          -2.697   3.562  -2.066  0.00  0.00    -0.062 N 
ATOM     18  H20 <0> d          -3.268   3.764  -1.237  0.00  0.00     0.278 HD
ATOM     19  H21 <0> d          -1.711   3.754  -1.857  0.00  0.00     0.278 HD
ENDBRANCH   1   8
BRANCH   7  20
ATOM     20  O2  <0> d          -0.210   2.394  -1.909  0.00  0.00    -0.362 OA
ATOM     21  H2  <0> d          -0.830   2.623  -2.660  0.00  0.00     0.217 HD
ENDBRANCH   7  20
BRANCH   6  22
ATOM     22  N1  <0> d           1.248   1.790   0.217  0.00  0.00    -0.250 N 
ATOM     23  N3  <0> d           2.413   1.190   0.723  0.00  0.00    -0.164 NA
ATOM     24  C17 <0> d           3.370   2.073   0.616  0.00  0.00     0.256 A 
ATOM     25  N2  <0> d           2.872   3.188   0.082  0.00  0.00    -0.234 NA
ATOM     26  C16 <0> d           1.597   3.031  -0.163  0.00  0.00     0.230 A 
ENDBRANCH   6  22
BRANCH   5  27
ATOM     27  C18 <0> d          -0.206   0.298   1.387  0.00  0.00     0.059 A 
ATOM     28  O3  <0> d          -1.000   1.338   1.692  0.00  0.00    -0.327 OA
ATOM     29  C21 <0> d          -0.788   1.705   2.966  0.00  0.00     0.142 A 
ATOM     30  C20 <0> d           0.151   0.897   3.491  0.00  0.00     0.027 A 
ATOM     31  C19 <0> d           0.522  -0.013   2.474  0.00  0.00     0.035 A 
ENDBRANCH   5  27
TORSDOF 4
