REMARK  5 active torsions:
REMARK  status: ('A' for Active; 'I' for Inactive)
REMARK    1  A    between atoms: C11_14  and  C21_26 
REMARK    2  A    between atoms: C12_15  and  N3_16 
REMARK    3  A    between atoms: N4_17  and  C13_18 
REMARK    4  A    between atoms: C13_18  and  C15_20 
REMARK       I    between atoms: C21_26  and  N5_28 
REMARK    5  A    between atoms: N5_28  and  C22_29 
ROOT
ATOM      1  C1  <0> d          -0.175   1.512   0.152  0.00  0.00     0.052 C 
ATOM      2  C2  <0> d          -0.335   0.017   0.053  0.00  0.00    -0.015 A 
ATOM      3  C3  <0> d          -0.260  -0.600  -1.158  0.00  0.00     0.012 A 
ATOM      4  C4  <0> d          -0.410  -1.993  -1.238  0.00  0.00     0.018 A 
ATOM      5  C5  <0> d          -0.627  -2.716  -0.118  0.00  0.00     0.102 A 
ATOM      6  N1  <0> d          -0.704  -2.109   1.102  0.00  0.00    -0.272 N 
ATOM      7  C6  <0> d          -0.556  -0.752   1.216  0.00  0.00     0.145 A 
ATOM      8  N2  <0> d          -0.619  -0.128   2.386  0.00  0.00    -0.211 NA
ATOM      9  C7  <0> d          -0.825  -0.782   3.533  0.00  0.00     0.150 A 
ATOM     10  C8  <0> d          -0.983  -2.194   3.498  0.00  0.00     0.080 A 
ATOM     11  C9  <0> d          -0.924  -2.869   2.201  0.00  0.00     0.267 A 
ATOM     12  O1  <0> d          -1.052  -4.077   2.114  0.00  0.00    -0.267 OA
ATOM     13  C10 <0> d          -1.199  -2.896   4.682  0.00  0.00     0.042 A 
ATOM     14  C11 <0> d          -1.253  -2.170   5.874  0.00  0.00     0.077 A 
ATOM     15  C12 <0> d          -1.088  -0.767   5.835  0.00  0.00     0.119 A 
ATOM     16  N4  <0> d          -0.885  -0.131   4.697  0.00  0.00    -0.307 N 
ENDROOT
BRANCH  14  17
ATOM     17  C21 <0> d          -1.479  -2.857   7.155  0.00  0.00     0.261 C 
ATOM     18  O2  <0> d          -1.493  -2.222   8.192  0.00  0.00    -0.267 OA
ATOM     19  N5  <0> d          -1.671  -4.191   7.179  0.00  0.00    -0.305 N 
ATOM     20  H18 <0> d          -1.660  -4.698   6.352  0.00  0.00     0.170 HD
BRANCH  19  21
ATOM     21  C22 <0> d          -1.885  -4.843   8.392  0.00  0.00     0.160 A 
ATOM     22  N6  <0> d          -2.084  -6.126   8.553  0.00  0.00    -0.110 NA
ATOM     23  O3  <0> d          -2.255  -6.369   9.938  0.00  0.00    -0.216 OA
ATOM     24  C24 <0> d          -2.159  -5.194  10.580  0.00  0.00     0.078 A 
ATOM     25  C23 <0> d          -1.933  -4.234   9.667  0.00  0.00     0.087 A 
ATOM     26  C25 <0> d          -2.283  -4.987  12.068  0.00  0.00     0.079 C 
ENDBRANCH  19  21
ENDBRANCH  14  17
BRANCH  15  27
ATOM     27  N3  <0> d          -1.141  -0.048   7.010  0.00  0.00    -0.384 N 
ATOM     28  H9  <0> d          -1.077  -0.506   7.863  0.00  0.00     0.157 HD
ATOM     29  H23 <0> d          -1.241   0.917   6.985  0.00  0.00     0.157 HD
ENDBRANCH  15  27
BRANCH  16  30
ATOM     30  C13 <0> d          -0.721   1.324   4.710  0.00  0.00     0.122 C 
ATOM     31  C14 <0> d          -1.436   1.930   3.501  0.00  0.00     0.038 C 
BRANCH  30  32
ATOM     32  C15 <0> d           0.746   1.665   4.649  0.00  0.00    -0.035 A 
ATOM     33  C20 <0> d           1.289   2.552   5.560  0.00  0.00     0.009 A 
ATOM     34  C19 <0> d           2.635   2.860   5.506  0.00  0.00     0.001 A 
ATOM     35  C18 <0> d           3.437   2.289   4.536  0.00  0.00     0.000 A 
ATOM     36  C17 <0> d           2.893   1.406   3.622  0.00  0.00     0.001 A 
ATOM     37  C16 <0> d           1.548   1.094   3.678  0.00  0.00     0.009 A 
ENDBRANCH  30  32
ENDBRANCH  16  30
TORSDOF 5
