REMARK  5 active torsions:
REMARK  status: ('A' for Active; 'I' for Inactive)
REMARK    1  A    between atoms: C3_3  and  N1_9 
REMARK    2  A    between atoms: N1_9  and  C8_10 
REMARK    3  A    between atoms: N2_12  and  C9_13 
REMARK    4  A    between atoms: N2_12  and  C15_20 
REMARK    5  A    between atoms: C9_13  and  C10_14 
ROOT
ATOM      1  C8  <0> d           0.337  -0.602  -3.551  0.00  0.00     0.175 C 
ATOM      2  S1  <0> d           0.319  -2.314  -3.577  0.00  0.00    -0.041 SA
ATOM      3  N2  <0> d           0.529   0.087  -4.693  0.00  0.00    -0.349 N 
ENDROOT
BRANCH   3   4
ATOM      4  C9  <0> d           0.611  -0.623  -5.972  0.00  0.00     0.164 C 
BRANCH   4   5
ATOM      5  C10 <0> d          -0.767  -0.740  -6.571  0.00  0.00    -0.037 A 
ATOM      6  C14 <0> d          -1.259   0.241  -7.418  0.00  0.00     0.028 A 
ATOM      7  C13 <0> d          -2.525   0.096  -7.952  0.00  0.00     0.116 A 
ATOM      8  N3  <0> d          -3.266  -0.954  -7.657  0.00  0.00    -0.273 NA
ATOM      9  C12 <0> d          -2.833  -1.904  -6.850  0.00  0.00     0.116 A 
ATOM     10  C11 <0> d          -1.575  -1.830  -6.283  0.00  0.00     0.028 A 
ENDBRANCH   4   5
ENDBRANCH   3   4
BRANCH   3  11
ATOM     11  C15 <0> d           0.655   1.550  -4.655  0.00  0.00     0.091 C 
ATOM     12  C19 <0> d          -0.662   2.157  -4.175  0.00  0.00     0.063 C 
ATOM     13  C18 <0> d          -0.549   3.674  -4.061  0.00  0.00     0.121 C 
ATOM     14  N4  <0> d           0.619   4.107  -3.312  0.00  0.00    -0.059 N 
ATOM     15  C20 <0> d          -1.800   4.171  -3.298  0.00  0.00     0.046 C 
ATOM     16  C21 <0> d          -0.596   4.306  -5.455  0.00  0.00     0.046 C 
ATOM     17  C17 <0> d           1.888   3.455  -3.601  0.00  0.00     0.121 C 
ATOM     18  H17 <0> d           0.421   3.996  -2.315  0.00  0.00     0.279 HD
ATOM     19  H32 <0> d           0.737   5.114  -3.452  0.00  0.00     0.279 HD
ATOM     20  C16 <0> d           1.752   1.933  -3.661  0.00  0.00     0.063 C 
ATOM     21  C22 <0> d           2.526   3.979  -4.887  0.00  0.00     0.046 C 
ATOM     22  C23 <0> d           2.857   3.783  -2.442  0.00  0.00     0.046 C 
ENDBRANCH   3  11
BRANCH   1  23
ATOM     23  N1  <0> d           0.160   0.056  -2.388  0.00  0.00    -0.333 N 
ATOM     24  H7  <0> d           0.096   1.024  -2.384  0.00  0.00     0.168 HD
BRANCH  23  25
ATOM     25  C3  <0> d           0.070  -0.657  -1.188  0.00  0.00     0.042 A 
ATOM     26  C2  <0> d           0.831  -0.273  -0.091  0.00  0.00    -0.013 A 
ATOM     27  C1  <0> d           1.756   0.912  -0.193  0.00  0.00     0.052 C 
ATOM     28  C7  <0> d           0.742  -0.982   1.091  0.00  0.00     0.042 A 
ATOM     29  C6  <0> d          -0.112  -2.067   1.187  0.00  0.00     0.024 A 
ATOM     30 Cl1  <0> d           1.698  -0.508   2.461  0.00  0.00    -0.084 Cl
ATOM     31  C5  <0> d          -0.870  -2.451   0.097  0.00  0.00     0.004 A 
ATOM     32  C4  <0> d          -0.782  -1.749  -1.090  0.00  0.00     0.030 A 
ENDBRANCH  23  25
ENDBRANCH   1  23
TORSDOF 5
