REMARK  5 active torsions:
REMARK  status: ('A' for Active; 'I' for Inactive)
REMARK    1  A    between atoms: C3_3  and  C9_14 
REMARK    2  A    between atoms: N2_6  and  C5_7 
REMARK       I    between atoms: C9_14  and  N3_16 
REMARK    3  A    between atoms: N3_16  and  C10_17 
REMARK    4  A    between atoms: C10_17  and  C11_18 
REMARK    5  A    between atoms: C11_18  and  N4_19 
ROOT
ATOM      1  C1  <0> d          -0.018   1.503   0.010  0.00  0.00     0.071 C 
ATOM      2  C2  <0> d           0.002  -0.004   0.002  0.00  0.00     0.044 A 
ATOM      3  C3  <0> d           0.009  -0.815  -1.115  0.00  0.00     0.074 A 
ATOM      4  C4  <0> d           0.029  -2.152  -0.660  0.00  0.00     0.158 A 
ATOM      5  N1  <0> d           0.034  -2.134   0.645  0.00  0.00    -0.183 NA
ATOM      6  N2  <0> d           0.023  -0.804   1.080  0.00  0.00    -0.268 N 
ENDROOT
BRANCH   3   7
ATOM      7  C9  <0> d          -0.004  -0.369  -2.520  0.00  0.00     0.255 C 
ATOM      8  O3  <0> d          -0.022   0.819  -2.781  0.00  0.00    -0.268 OA
ATOM      9  N3  <0> d           0.004  -1.278  -3.516  0.00  0.00    -0.355 N 
ATOM     10  H12 <0> d           0.019  -2.225  -3.308  0.00  0.00     0.162 HD
BRANCH   9  11
ATOM     11  C10 <0> d          -0.008  -0.835  -4.912  0.00  0.00     0.150 C 
BRANCH  11  12
ATOM     12  C11 <0> d           0.005  -2.055  -5.835  0.00  0.00     0.253 C 
BRANCH  12  13
ATOM     13  N4  <0> d          -0.007  -1.611  -7.235  0.00  0.00    -0.077 N 
ATOM     14  C12 <0> d           0.126  -2.776  -8.119  0.00  0.00     0.269 C 
ATOM     15  C13 <0> d          -1.274  -0.923  -7.519  0.00  0.00     0.269 C 
ATOM     16  H23 <0> d           0.762  -0.978  -7.394  0.00  0.00     0.279 HD
ENDBRANCH  12  13
ENDBRANCH  11  12
ENDBRANCH   9  11
ENDBRANCH   3   7
BRANCH   6  17
ATOM     17  C5  <0> d           0.030  -0.360   2.476  0.00  0.00     0.125 C 
ATOM     18  C8  <0> d           1.319  -0.863   3.169  0.00  0.00     0.167 C 
ATOM     19  S1  <0> d           0.771  -1.122   4.904  0.00  0.00     0.146 S 
ATOM     20  C7  <0> d          -1.015  -0.708   4.725  0.00  0.00     0.142 C 
ATOM     21  O1  <0> d           0.896  -2.500   5.227  0.00  0.00    -0.228 OA
ATOM     22  O2  <0> d           1.390  -0.150   5.736  0.00  0.00    -0.228 OA
ATOM     23  C6  <0> d          -1.206  -0.924   3.197  0.00  0.00     0.043 C 
ENDBRANCH   6  17
TORSDOF 5
