REMARK  10 active torsions:
REMARK  status: ('A' for Active; 'I' for Inactive)
REMARK    1  A    between atoms: C2_2  and  C3_3 
REMARK    2  A    between atoms: C3_3  and  C4_4 
REMARK    3  A    between atoms: C4_4  and  C5_5 
REMARK    4  A    between atoms: C5_5  and  O1_6 
REMARK    5  A    between atoms: O1_6  and  C6_7 
REMARK    6  A    between atoms: C8_9  and  O2_22 
REMARK    7  A    between atoms: C11_12  and  C12_13 
REMARK    8  A    between atoms: C12_13  and  C13_14 
REMARK    9  A    between atoms: C12_13  and  N2_16 
REMARK   10  A    between atoms: C13_14  and  N1_15 
ROOT
ATOM      1  C6  <0> d           3.034   5.251   0.556  0.00  0.00     0.079 A 
ATOM      2  C7  <0> d           4.337   5.692   0.729  0.00  0.00     0.074 A 
ATOM      3  C8  <0> d           5.396   4.867   0.387  0.00  0.00     0.070 A 
ATOM      4  C9  <0> d           5.151   3.600  -0.124  0.00  0.00     0.037 A 
ATOM      5  C10 <0> d           3.852   3.160  -0.290  0.00  0.00     0.015 A 
ATOM      6  C11 <0> d           2.794   3.981   0.051  0.00  0.00     0.008 A 
ENDROOT
BRANCH   6   7
ATOM      7  C12 <0> d           1.378   3.499  -0.132  0.00  0.00     0.249 C 
BRANCH   7   8
ATOM      8  C13 <0> d           0.771   4.156  -1.373  0.00  0.00     0.267 C 
BRANCH   8   9
ATOM      9  N1  <0> d          -0.592   3.648  -1.580  0.00  0.00    -0.077 N 
ATOM     10  H18 <0> d          -1.028   4.120  -2.472  0.00  0.00     0.274 HD
ATOM     11  H19 <0> d          -1.209   3.885  -0.701  0.00  0.00     0.274 HD
ATOM     12  H33 <0> d          -0.559   2.557  -1.721  0.00  0.00     0.274 HD
ENDBRANCH   8   9
ENDBRANCH   7   8
BRANCH   7  13
ATOM     13  N2  <0> d           1.375   2.039  -0.300  0.00  0.00    -0.061 N 
ATOM     14  C18 <0> d           0.096   1.462   0.133  0.00  0.00     0.236 C 
ATOM     15  C17 <0> d           0.181  -0.065   0.081  0.00  0.00     0.028 C 
ATOM     16  C16 <0> d           0.504  -0.506  -1.349  0.00  0.00     0.003 C 
ATOM     17  C15 <0> d           1.815   0.148  -1.793  0.00  0.00     0.028 C 
ATOM     18  C14 <0> d           1.683   1.669  -1.687  0.00  0.00     0.236 C 
ATOM     19  H34 <0> d           2.166   1.622   0.342  0.00  0.00     0.280 HD
ENDBRANCH   7  13
ENDBRANCH   6   7
BRANCH   1  20
ATOM     20  O1  <0> d           1.992   6.060   0.885  0.00  0.00    -0.350 OA
BRANCH  20  21
ATOM     21  C5  <0> d           2.313   7.354   1.399  0.00  0.00     0.175 C 
BRANCH  21  22
ATOM     22  C4  <0> d           1.022   8.114   1.711  0.00  0.00     0.027 C 
BRANCH  22  23
ATOM     23  C3  <0> d           1.366   9.499   2.261  0.00  0.00     0.002 C 
BRANCH  23  24
ATOM     24  C2  <0> d           0.075  10.259   2.573  0.00  0.00    -0.004 C 
ATOM     25  C1  <0> d           0.419  11.645   3.123  0.00  0.00     0.005 C 
ENDBRANCH  23  24
ENDBRANCH  22  23
ENDBRANCH  21  22
ENDBRANCH  20  21
ENDBRANCH   1  20
BRANCH   3  26
ATOM     26  O2  <0> d           6.675   5.299   0.550  0.00  0.00    -0.356 OA
ATOM     27  C19 <0> d           7.717   4.396   0.176  0.00  0.00     0.210 C 
ENDBRANCH   3  26
TORSDOF 10
