REMARK  2 active torsions:
REMARK  status: ('A' for Active; 'I' for Inactive)
REMARK    1  A    between atoms: C8_10  and  C10_13 
REMARK    2  A    between atoms: C10_13  and  N2_14 
ROOT
ATOM      1  C1  <0> d          -0.018   1.461   0.010  0.00  0.00     0.159 C 
ATOM      2  N1  <0> d           0.002  -0.004   0.002  0.00  0.00    -0.318 N 
ATOM      3  C2  <0> d          -1.197  -0.730   0.004  0.00  0.00     0.071 A 
ATOM      4  C3  <0> d          -2.405  -0.093   0.242  0.00  0.00     0.051 A 
ATOM      5  C4  <0> d          -3.578  -0.826   0.253  0.00  0.00     0.013 A 
ATOM      6  C5  <0> d          -3.548  -2.191   0.029  0.00  0.00     0.022 A 
ATOM      7  C6  <0> d          -2.346  -2.830  -0.214  0.00  0.00     0.040 A 
ATOM      8  C7  <0> d          -1.169  -2.102  -0.234  0.00  0.00     0.097 A 
ATOM      9  O1  <0> d           0.016  -2.715  -0.502  0.00  0.00    -0.332 OA
ATOM     10  C8  <0> d           1.182  -2.173   0.121  0.00  0.00     0.246 C 
ATOM     11  C9  <0> d           1.175  -0.671  -0.013  0.00  0.00     0.255 C 
ATOM     12  O2  <0> d           2.219  -0.064  -0.129  0.00  0.00    -0.270 OA
ATOM     13 Br1  <0> d          -5.228   0.041   0.576  0.00  0.00    -0.051 Br
ENDROOT
BRANCH  10  14
ATOM     14  C10 <0> d           1.193  -2.557   1.602  0.00  0.00     0.271 C 
BRANCH  14  15
ATOM     15  N2  <0> d           1.325  -4.015   1.729  0.00  0.00    -0.076 N 
ATOM     16  H10 <0> d           0.547  -4.464   1.271  0.00  0.00     0.274 HD
ATOM     17  H11 <0> d           2.187  -4.313   1.298  0.00  0.00     0.274 HD
ATOM     18  H12 <0> d           1.333  -4.268   2.706  0.00  0.00     0.274 HD
ENDBRANCH  14  15
ENDBRANCH  10  14
TORSDOF 2
