REMARK  7 active torsions:
REMARK  status: ('A' for Active; 'I' for Inactive)
REMARK    1  A    between atoms: C2_2  and  C4_4 
REMARK    2  A    between atoms: C4_4  and  N3_26 
REMARK    3  A    between atoms: C8_10  and  C9_11 
REMARK    4  A    between atoms: C9_11  and  C10_12 
REMARK       I    between atoms: C10_12  and  N2_14 
REMARK    5  A    between atoms: N2_14  and  C11_15 
REMARK    6  A    between atoms: C11_15  and  C12_16 
REMARK    7  A    between atoms: C12_16  and  O3_22 
ROOT
ATOM      1  C9  <0> d          -1.988   3.716   0.232  0.00  0.00     0.145 C 
ENDROOT
BRANCH   1   2
ATOM      2  C8  <0> d          -1.034   3.211   1.316  0.00  0.00     0.288 C 
ATOM      3  C7  <0> d          -1.036   1.708   1.322  0.00  0.00     0.249 C 
ATOM      4  N1  <0> d           0.082   0.984   1.442  0.00  0.00    -0.358 N 
ATOM      5  O1  <0> d          -2.095   1.128   1.215  0.00  0.00    -0.271 OA
ATOM      6  C6  <0> d           1.410   1.584   1.541  0.00  0.00     0.150 C 
ATOM      7  H15 <0> d           0.008   0.017   1.463  0.00  0.00     0.162 HD
ATOM      8  C5  <0> d           1.291   3.057   1.937  0.00  0.00     0.255 C 
ATOM      9  N3  <0> d           0.326   3.700   1.023  0.00  0.00    -0.056 N 
ATOM     10  H32 <0> d           0.569   3.459   0.055  0.00  0.00     0.281 HD
BRANCH   9  11
ATOM     11  C4  <0> d           0.380   5.172   1.181  0.00  0.00     0.239 C 
BRANCH  11  12
ATOM     12  C2  <0> d           1.624   5.701   0.464  0.00  0.00     0.003 C 
ATOM     13  C1  <0> d           1.496   5.439  -1.038  0.00  0.00     0.011 C 
ATOM     14  C3  <0> d           1.754   7.205   0.711  0.00  0.00     0.011 C 
ENDBRANCH  11  12
ENDBRANCH   9  11
ENDBRANCH   1   2
BRANCH   1  15
ATOM     15  C10 <0> d          -1.525   3.221  -1.114  0.00  0.00     0.220 C 
ATOM     16  O2  <0> d          -0.478   2.618  -1.211  0.00  0.00    -0.274 OA
ATOM     17  N2  <0> d          -2.275   3.450  -2.211  0.00  0.00    -0.358 N 
ATOM     18  H18 <0> d          -3.113   3.933  -2.133  0.00  0.00     0.162 HD
BRANCH  17  19
ATOM     19  C11 <0> d          -1.825   2.970  -3.519  0.00  0.00     0.160 C 
BRANCH  19  20
ATOM     20  C12 <0> d          -2.851   3.358  -4.586  0.00  0.00     0.074 C 
ATOM     21  C17 <0> d          -2.445   2.750  -5.930  0.00  0.00     0.039 C 
ATOM     22  C16 <0> d          -3.471   3.139  -6.996  0.00  0.00     0.003 C 
ATOM     23  C15 <0> d          -4.850   2.611  -6.593  0.00  0.00     0.000 C 
ATOM     24  C14 <0> d          -5.256   3.219  -5.249  0.00  0.00     0.003 C 
ATOM     25  C13 <0> d          -4.230   2.830  -4.183  0.00  0.00     0.039 C 
BRANCH  20  26
ATOM     26  O3  <0> d          -2.902   4.781  -4.702  0.00  0.00    -0.388 OA
ATOM     27  H31 <0> d          -3.153   5.234  -3.886  0.00  0.00     0.210 HD
ENDBRANCH  20  26
ENDBRANCH  19  20
ENDBRANCH  17  19
ENDBRANCH   1  15
TORSDOF 7
