REMARK  6 active torsions:
REMARK  status: ('A' for Active; 'I' for Inactive)
REMARK    1  A    between atoms: C2_2  and  C3_3 
REMARK    2  A    between atoms: C3_3  and  C4_4 
REMARK    3  A    between atoms: C7_7  and  C15_20 
REMARK    4  A    between atoms: C8_8  and  N1_10 
REMARK    5  A    between atoms: N2_13  and  S1_16 
REMARK    6  A    between atoms: C15_20  and  N3_21 
ROOT
ATOM      1  C4  <0> d           0.817  -2.049  -1.463  0.00  0.00    -0.013 C 
ATOM      2  C5  <0> d           1.530  -2.550  -0.206  0.00  0.00     0.005 C 
ATOM      3  C6  <0> d           1.457  -4.077  -0.152  0.00  0.00     0.009 C 
ATOM      4  C7  <0> d           2.135  -4.665  -1.391  0.00  0.00     0.044 C 
ATOM      5  C8  <0> d           1.422  -4.163  -2.649  0.00  0.00     0.229 C 
ATOM      6  C9  <0> d           1.496  -2.636  -2.702  0.00  0.00     0.041 C 
ENDROOT
BRANCH   5   7
ATOM      7  N1  <0> d           2.074  -4.727  -3.839  0.00  0.00     0.096 N 
ATOM      8  C13 <0> d           2.026  -6.195  -3.820  0.00  0.00     0.293 C 
ATOM      9  C12 <0> d           2.868  -6.745  -4.975  0.00  0.00     0.165 C 
ATOM     10  N2  <0> d           2.407  -6.125  -6.226  0.00  0.00    -0.308 N 
ATOM     11  C11 <0> d           2.296  -4.659  -6.277  0.00  0.00     0.165 C 
ATOM     12  C10 <0> d           1.477  -4.191  -5.069  0.00  0.00     0.293 C 
BRANCH  10  13
ATOM     13  S1  <0> d           2.022  -7.051  -7.544  0.00  0.00     0.224 S 
ATOM     14  O1  <0> d           1.646  -8.311  -7.004  0.00  0.00    -0.206 OA
ATOM     15  O2  <0> d           1.088  -6.270  -8.276  0.00  0.00    -0.206 OA
ATOM     16  C14 <0> d           3.572  -7.207  -8.473  0.00  0.00     0.186 C 
ENDBRANCH  10  13
ENDBRANCH   5   7
BRANCH   4  17
ATOM     17  C15 <0> d           3.600  -4.226  -1.427  0.00  0.00     0.236 C 
BRANCH  17  18
ATOM     18  N3  <0> d           4.316  -4.814  -0.287  0.00  0.00    -0.079 N 
ATOM     19  H30 <0> d           5.282  -4.524  -0.310  0.00  0.00     0.274 HD
ATOM     20  H31 <0> d           3.892  -4.502   0.574  0.00  0.00     0.274 HD
ATOM     21  H32 <0> d           4.265  -5.820  -0.341  0.00  0.00     0.274 HD
ENDBRANCH  17  18
ENDBRANCH   4  17
BRANCH   1  22
ATOM     22  C3  <0> d           0.891  -0.522  -1.517  0.00  0.00     0.004 C 
BRANCH  22  23
ATOM     23  C2  <0> d           0.105   0.068  -0.344  0.00  0.00    -0.004 C 
ATOM     24  C1  <0> d           0.179   1.595  -0.397  0.00  0.00     0.005 C 
ENDBRANCH  22  23
ENDBRANCH   1  22
TORSDOF 6
