REMARK  3 active torsions:
REMARK  status: ('A' for Active; 'I' for Inactive)
REMARK    1  A    between atoms: O1_2  and  C2_3 
REMARK    2  A    between atoms: C10_12  and  N2_13 
REMARK    3  A    between atoms: N2_13  and  N3_14 
ROOT
ATOM      1  C2  <0> d          -0.652  -1.045   0.237  0.00  0.00     0.095 A 
ATOM      2  C3  <0> d          -1.703  -0.159   0.199  0.00  0.00     0.040 A 
ATOM      3  C4  <0> d          -3.017  -0.612   0.126  0.00  0.00     0.023 A 
ATOM      4  C5  <0> d          -3.295  -1.947   0.091  0.00  0.00     0.025 A 
ATOM      5  C6  <0> d          -2.248  -2.879   0.127  0.00  0.00     0.039 A 
ATOM      6  C7  <0> d          -0.908  -2.431   0.197  0.00  0.00     0.080 A 
ATOM      7  N1  <0> d           0.091  -3.317   0.229  0.00  0.00    -0.356 N 
ATOM      8  C8  <0> d          -0.122  -4.617   0.191  0.00  0.00     0.018 A 
ATOM      9  C9  <0> d          -1.411  -5.131   0.114  0.00  0.00    -0.007 A 
ATOM     10  C10 <0> d          -2.498  -4.271   0.089  0.00  0.00     0.065 A 
ATOM     11  C11 <0> d          -1.360  -6.643   0.083  0.00  0.00     0.043 C 
ATOM     12  C12 <0> d           0.096  -6.990  -0.293  0.00  0.00     0.011 C 
ATOM     13  C13 <0> d           0.874  -5.759   0.218  0.00  0.00     0.058 C 
ATOM     14 Br1  <0> d          -5.088  -2.539  -0.007  0.00  0.00    -0.050 Br
ATOM     15  H15 <0> d           1.004  -2.993   0.282  0.00  0.00     0.166 HD
ENDROOT
BRANCH  10  16
ATOM     16  N2  <0> d          -3.794  -4.761   0.014  0.00  0.00    -0.322 N 
ATOM     17  H6  <0> d          -4.409  -4.620   0.751  0.00  0.00     0.180 HD
BRANCH  16  18
ATOM     18  N3  <0> d          -4.204  -5.440  -1.098  0.00  0.00    -0.249 NA
ATOM     19  H7  <0> d          -5.136  -5.804  -0.976  0.00  0.00     0.143 HD
ATOM     20  H8  <0> d          -4.148  -4.856  -1.919  0.00  0.00     0.143 HD
ENDBRANCH  16  18
ENDBRANCH  10  16
BRANCH   1  21
ATOM     21  O1  <0> d           0.626  -0.588   0.306  0.00  0.00    -0.354 OA
ATOM     22  C1  <0> d           0.807   0.829   0.344  0.00  0.00     0.210 C 
ENDBRANCH   1  21
TORSDOF 3
