REMARK  3 active torsions:
REMARK  status: ('A' for Active; 'I' for Inactive)
REMARK    1  A    between atoms: C3_3  and  C17_23 
REMARK    2  A    between atoms: C4_4  and  C11_16 
REMARK    3  A    between atoms: C6_9  and  C7_11 
REMARK       I    between atoms: C17_23  and  N5_25 
ROOT
ATOM      1  C1  <0> d           0.457   1.363  -0.001  0.00  0.00     0.070 C 
ATOM      2  C2  <0> d           0.265  -0.131   0.025  0.00  0.00     0.037 A 
ATOM      3  C3  <0> d          -1.006  -0.637   0.005  0.00  0.00     0.062 A 
ATOM      4  C4  <0> d          -1.151  -2.148   0.032  0.00  0.00     0.200 A 
ATOM      5  N1  <0> d           0.099  -2.917   0.077  0.00  0.00    -0.106 N 
ATOM      6  C5  <0> d           1.296  -2.240   0.091  0.00  0.00     0.724 A 
ATOM      7  N2  <0> d           1.331  -0.914   0.061  0.00  0.00    -0.192 N 
ATOM      8  N3  <0> d           2.276  -3.152   0.133  0.00  0.00    -0.043 NA
ATOM      9  C6  <0> d           1.767  -4.374   0.145  0.00  0.00     0.179 A 
ATOM     10  N4  <0> d           0.396  -4.282   0.111  0.00  0.00    -0.265 N 
ATOM     11  H14 <0> d           2.202  -0.487   0.069  0.00  0.00     0.184 HD
ATOM     12  H15 <0> d          -0.237  -5.016   0.112  0.00  0.00     0.189 HD
ENDROOT
BRANCH   4  13
ATOM     13  C11 <0> d          -1.970  -2.520   1.242  0.00  0.00    -0.028 A 
ATOM     14  C16 <0> d          -3.255  -3.003   1.084  0.00  0.00     0.011 A 
ATOM     15  C15 <0> d          -4.004  -3.349   2.193  0.00  0.00     0.019 A 
ATOM     16  C14 <0> d          -3.471  -3.201   3.461  0.00  0.00     0.011 A 
ATOM     17  C13 <0> d          -2.187  -2.713   3.618  0.00  0.00     0.019 A 
ATOM     18 Br1  <0> d          -4.498  -3.668   4.979  0.00  0.00    -0.051 Br
ATOM     19  C12 <0> d          -1.437  -2.372   2.509  0.00  0.00     0.011 A 
ENDBRANCH   4  13
BRANCH   3  20
ATOM     20  C17 <0> d          -2.130   0.207  -0.037  0.00  0.00     0.249 C 
ATOM     21  O1  <0> d          -1.989   1.414   0.058  0.00  0.00    -0.268 OA
ATOM     22  N5  <0> d          -3.362  -0.319  -0.183  0.00  0.00    -0.366 N 
ATOM     23  H12 <0> d          -3.481  -1.282  -0.189  0.00  0.00     0.159 HD
ATOM     24  H13 <0> d          -4.130   0.265  -0.282  0.00  0.00     0.159 HD
ENDBRANCH   3  20
BRANCH   9  25
ATOM     25  C7  <0> d           2.536  -5.617   0.188  0.00  0.00     0.052 A 
ATOM     26  S1  <0> d           1.951  -7.301   0.208  0.00  0.00    -0.098 SA
ATOM     27  C10 <0> d           3.430  -8.096   0.256  0.00  0.00     0.050 A 
ATOM     28  C9  <0> d           4.346  -7.096   0.264  0.00  0.00     0.009 A 
ATOM     29  C8  <0> d           3.913  -5.793   0.230  0.00  0.00     0.023 A 
ENDBRANCH   9  25
TORSDOF 3
