REMARK  3 active torsions:
REMARK  status: ('A' for Active; 'I' for Inactive)
REMARK    1  A    between atoms: C2_2  and  C3_3 
REMARK    2  A    between atoms: C6_6  and  N1_9 
REMARK       I    between atoms: N1_9  and  C9_10 
REMARK    3  A    between atoms: C9_10  and  C10_12 
ROOT
ATOM      1  C10 <0> d           4.698  -2.316  -5.918  0.00  0.00     0.080 A 
ATOM      2  C11 <0> d           5.183  -1.474  -6.874  0.00  0.00     0.068 A 
ATOM      3  O2  <0> d           5.752  -2.195  -7.851  0.00  0.00    -0.296 OA
ATOM      4  C12 <0> d           5.673  -3.508  -7.597  0.00  0.00     0.164 A 
ATOM      5  C13 <0> d           5.025  -3.670  -6.388  0.00  0.00     0.079 A 
ATOM      6  C14 <0> d           4.809  -5.030  -5.864  0.00  0.00     0.141 A 
ATOM      7  N2  <0> d           4.219  -5.404  -4.748  0.00  0.00    -0.270 NA
ATOM      8  C15 <0> d           4.232  -6.866  -4.633  0.00  0.00     0.171 A 
ATOM      9  C16 <0> d           4.955  -7.326  -5.912  0.00  0.00     0.153 A 
ATOM     10  N3  <0> d           5.268  -6.064  -6.605  0.00  0.00    -0.326 N 
ATOM     11  C17 <0> d           5.878  -5.862  -7.741  0.00  0.00     0.186 A 
ATOM     12  N4  <0> d           6.091  -4.634  -8.264  0.00  0.00    -0.332 N 
ATOM     13  C18 <0> d           5.094   0.029  -6.838  0.00  0.00     0.078 C 
ATOM     14  H19 <0> d           6.551  -4.546  -9.113  0.00  0.00     0.168 HD
ENDROOT
BRANCH   1  15
ATOM     15  C9  <0> d           4.000  -1.948  -4.675  0.00  0.00     0.259 C 
ATOM     16  N1  <0> d           2.657  -1.833  -4.665  0.00  0.00    -0.323 N 
ATOM     17  H10 <0> d           2.145  -2.066  -5.455  0.00  0.00     0.169 HD
ATOM     18  O1  <0> d           4.635  -1.748  -3.657  0.00  0.00    -0.267 OA
BRANCH  16  19
ATOM     19  C6  <0> d           2.003  -1.376  -3.517  0.00  0.00     0.035 A 
ATOM     20  C5  <0> d           0.742  -1.860  -3.195  0.00  0.00     0.030 A 
ATOM     21  C4  <0> d           0.099  -1.408  -2.060  0.00  0.00     0.009 A 
ATOM     22  C3  <0> d           0.709  -0.474  -1.243  0.00  0.00    -0.058 A 
ATOM     23  C8  <0> d           1.963   0.015  -1.563  0.00  0.00     0.009 A 
ATOM     24  C7  <0> d           2.614  -0.438  -2.694  0.00  0.00     0.030 A 
BRANCH  22  25
ATOM     25  C2  <0> d           0.004   0.018  -0.005  0.00  0.00     0.034 C 
ATOM     26  C1  <0> d          -0.842   1.244  -0.354  0.00  0.00     0.010 C 
ENDBRANCH  22  25
ENDBRANCH  16  19
ENDBRANCH   1  15
TORSDOF 3
