REMARK  5 active torsions:
REMARK  status: ('A' for Active; 'I' for Inactive)
REMARK    1  A    between atoms: C2_2  and  C3_3 
REMARK    2  A    between atoms: C2_2  and  O3_18 
REMARK    3  A    between atoms: C3_3  and  N1_4 
REMARK    4  A    between atoms: N1_4  and  C4_5 
REMARK    5  A    between atoms: C4_5  and  C5_6 
ROOT
ATOM      1  C5  <0> d           1.493  -3.973   2.415  0.00  0.00    -0.029 A 
ATOM      2  C6  <0> d           0.466  -4.680   3.016  0.00  0.00     0.048 A 
ATOM      3  C7  <0> d           0.488  -6.064   3.006  0.00  0.00     0.103 A 
ATOM      4  C8  <0> d           1.536  -6.739   2.396  0.00  0.00     0.119 A 
ATOM      5  C9  <0> d           2.562  -6.029   1.795  0.00  0.00     0.047 A 
ATOM      6  C10 <0> d           2.534  -4.644   1.803  0.00  0.00     0.030 A 
ATOM      7 Br1  <0> d           3.991  -6.946   0.964  0.00  0.00    -0.048 Br
ATOM      8  O1  <0> d           1.547  -8.104   2.391  0.00  0.00    -0.347 OA
ATOM      9  C11 <0> d           1.744  -8.731   3.660  0.00  0.00     0.178 C 
ATOM     10  C12 <0> d           0.426  -8.856   4.409  0.00  0.00     0.053 C 
ATOM     11  C13 <0> d          -0.164  -7.503   4.771  0.00  0.00     0.178 C 
ATOM     12  O2  <0> d          -0.519  -6.773   3.594  0.00  0.00    -0.348 OA
ENDROOT
BRANCH   1  13
ATOM     13  C4  <0> d           1.472  -2.466   2.424  0.00  0.00     0.271 C 
BRANCH  13  14
ATOM     14  N1  <0> d           0.762  -1.980   1.234  0.00  0.00    -0.069 N 
ATOM     15  H7  <0> d          -0.185  -2.329   1.241  0.00  0.00     0.277 HD
ATOM     16  H19 <0> d           1.234  -2.305   0.403  0.00  0.00     0.277 HD
BRANCH  14  17
ATOM     17  C3  <0> d           0.742  -0.511   1.242  0.00  0.00     0.263 C 
BRANCH  17  18
ATOM     18  C2  <0> d           0.002  -0.004   0.002  0.00  0.00     0.139 C 
ATOM     19  C1  <0> d          -0.019   1.526   0.010  0.00  0.00     0.041 C 
BRANCH  18  20
ATOM     20  O3  <0> d           0.671  -0.465  -1.174  0.00  0.00    -0.394 OA
ATOM     21  H18 <0> d           1.588  -0.167  -1.247  0.00  0.00     0.210 HD
ENDBRANCH  18  20
ENDBRANCH  17  18
ENDBRANCH  14  17
ENDBRANCH  13  14
ENDBRANCH   1  13
TORSDOF 5
