REMARK  5 active torsions:
REMARK  status: ('A' for Active; 'I' for Inactive)
REMARK    1  A    between atoms: C4_4  and  C7_8 
REMARK    2  A    between atoms: C7_8  and  N1_9 
REMARK    3  A    between atoms: C10_12  and  C13_15 
REMARK    4  A    between atoms: C13_15  and  N2_16 
REMARK       I    between atoms: N2_16  and  C14_17 
REMARK    5  A    between atoms: C14_17  and  C15_19 
ROOT
ATOM      1  C13 <0> d          -2.849  -5.449   5.118  0.00  0.00     0.127 C 
ENDROOT
BRANCH   1   2
ATOM      2  C10 <0> d          -2.915  -4.878   3.700  0.00  0.00     0.006 C 
ATOM      3  C9  <0> d          -2.208  -3.520   3.661  0.00  0.00     0.034 C 
ATOM      4  C8  <0> d          -2.208  -2.992   2.225  0.00  0.00     0.235 C 
ATOM      5  N1  <0> d          -1.502  -3.938   1.352  0.00  0.00    -0.067 N 
ATOM      6  C12 <0> d          -2.215  -5.221   1.328  0.00  0.00     0.235 C 
ATOM      7  H27 <0> d          -0.567  -4.081   1.701  0.00  0.00     0.280 HD
ATOM      8  C11 <0> d          -2.216  -5.835   2.730  0.00  0.00     0.034 C 
BRANCH   5   9
ATOM      9  C7  <0> d          -1.437  -3.390  -0.009  0.00  0.00     0.275 C 
BRANCH   9  10
ATOM     10  C4  <0> d          -0.601  -2.136  -0.007  0.00  0.00    -0.001 A 
ATOM     11  C3  <0> d          -1.078  -0.805   0.003  0.00  0.00     0.043 A 
ATOM     12  C2  <0> d           0.002  -0.004   0.002  0.00  0.00     0.050 A 
ATOM     13  C1  <0> d          -0.018   1.503   0.010  0.00  0.00     0.076 C 
ATOM     14  O1  <0> d           1.102  -0.775  -0.013  0.00  0.00    -0.320 OA
ATOM     15  C5  <0> d           0.742  -2.069  -0.013  0.00  0.00     0.057 A 
ATOM     16  C6  <0> d           1.684  -3.245  -0.023  0.00  0.00     0.077 C 
ENDBRANCH   9  10
ENDBRANCH   5   9
ENDBRANCH   1   2
BRANCH   1  17
ATOM     17  N2  <0> d          -3.627  -6.689   5.182  0.00  0.00    -0.355 N 
ATOM     18  C14 <0> d          -3.712  -7.372   6.340  0.00  0.00     0.275 C 
ATOM     19  O2  <0> d          -3.144  -6.960   7.332  0.00  0.00    -0.265 OA
ATOM     20  H21 <0> d          -4.080  -7.019   4.390  0.00  0.00     0.162 HD
BRANCH  18  21
ATOM     21  C15 <0> d          -4.499  -8.627   6.405  0.00  0.00     0.147 C 
ATOM     22  O4  <0> d          -5.114  -9.056   5.295  0.00  0.00    -0.304 OA
ATOM     23  C23 <0> d          -5.578 -10.317   5.187  0.00  0.00     0.090 A 
ATOM     24  C18 <0> d          -5.728 -11.117   6.333  0.00  0.00     0.048 A 
ATOM     25  C22 <0> d          -5.928 -10.842   3.947  0.00  0.00     0.038 A 
ATOM     26  C17 <0> d          -5.340 -10.543   7.637  0.00  0.00     0.187 C 
ATOM     27  C19 <0> d          -6.229 -12.414   6.227  0.00  0.00     0.018 A 
ATOM     28  C16 <0> d          -4.570  -9.288   7.586  0.00  0.00     0.098 C 
ATOM     29  O3  <0> d          -5.640 -11.074   8.691  0.00  0.00    -0.287 OA
ATOM     30  C20 <0> d          -6.570 -12.908   4.999  0.00  0.00     0.001 A 
ATOM     31  C21 <0> d          -6.419 -12.127   3.861  0.00  0.00     0.003 A 
ENDBRANCH  18  21
ENDBRANCH   1  17
TORSDOF 5
