REMARK  5 active torsions:
REMARK  status: ('A' for Active; 'I' for Inactive)
REMARK    1  A    between atoms: C6_8  and  C10_12 
REMARK    2  A    between atoms: N2_13  and  N3_14 
REMARK       I    between atoms: N3_14  and  C11_15 
REMARK    3  A    between atoms: C11_15  and  C12_17 
REMARK    4  A    between atoms: C12_17  and  N4_18 
REMARK       I    between atoms: N4_18  and  C13_19 
REMARK    5  A    between atoms: C13_19  and  C14_21 
ROOT
ATOM      1  N3  <0> d           3.043  -5.668   2.154  0.00  0.00    -0.246 N 
ATOM      2  C11 <0> d           3.124  -7.005   2.003  0.00  0.00     0.255 C 
ATOM      3  O2  <0> d           3.102  -7.492   0.892  0.00  0.00    -0.270 OA
ATOM      4  H8  <0> d           3.060  -5.278   3.042  0.00  0.00     0.192 HD
ENDROOT
BRANCH   1   5
ATOM      5  N2  <0> d           2.934  -4.841   1.028  0.00  0.00    -0.188 NA
ATOM      6  C10 <0> d           2.858  -3.571   1.172  0.00  0.00     0.129 C 
BRANCH   6   7
ATOM      7  C6  <0> d           2.741  -2.681  -0.039  0.00  0.00     0.144 A 
ATOM      8  C5  <0> d           3.929  -1.747  -0.045  0.00  0.00     0.235 A 
ATOM      9  N1  <0> d           3.736  -0.439  -0.035  0.00  0.00    -0.326 N 
ATOM     10  O1  <0> d           5.060  -2.197  -0.058  0.00  0.00    -0.272 OA
ATOM     11  C4  <0> d           2.524   0.117  -0.021  0.00  0.00     0.044 A 
ATOM     12  H16 <0> d           4.511   0.143  -0.039  0.00  0.00     0.169 HD
ATOM     13  C3  <0> d           2.394   1.518  -0.013  0.00  0.00     0.030 A 
ATOM     14  C8  <0> d           1.294  -0.692  -0.014  0.00  0.00    -0.012 A 
ATOM     15  C2  <0> d           1.165   2.097   0.002  0.00  0.00     0.002 A 
ATOM     16  C1  <0> d          -0.016   1.354   0.009  0.00  0.00     0.001 A 
ATOM     17  C9  <0> d           0.002  -0.004   0.002  0.00  0.00     0.013 A 
ATOM     18  C7  <0> d           1.361  -2.054  -0.022  0.00  0.00     0.006 A 
ENDBRANCH   6   7
ENDBRANCH   1   5
BRANCH   2  19
ATOM     19  C12 <0> d           3.241  -7.894   3.213  0.00  0.00     0.227 C 
BRANCH  19  20
ATOM     20  N4  <0> d           3.312  -9.293   2.786  0.00  0.00    -0.348 N 
ATOM     21  C13 <0> d           3.421 -10.274   3.705  0.00  0.00     0.252 C 
ATOM     22  O3  <0> d           3.460  -9.997   4.888  0.00  0.00    -0.268 OA
ATOM     23  H11 <0> d           3.281  -9.515   1.842  0.00  0.00     0.163 HD
BRANCH  21  24
ATOM     24  C14 <0> d           3.493 -11.686   3.274  0.00  0.00     0.033 A 
ATOM     25  C19 <0> d           3.606 -12.703   4.222  0.00  0.00     0.036 A 
ATOM     26  C18 <0> d           3.666 -14.021   3.813  0.00  0.00     0.011 A 
ATOM     27  C17 <0> d           3.628 -14.332   2.465  0.00  0.00     0.019 A 
ATOM     28 Br1  <0> d           3.809 -15.402   5.096  0.00  0.00    -0.051 Br
ATOM     29  C16 <0> d           3.522 -13.327   1.519  0.00  0.00     0.002 A 
ATOM     30  C15 <0> d           3.454 -12.007   1.916  0.00  0.00     0.017 A 
ENDBRANCH  21  24
ENDBRANCH  19  20
ENDBRANCH   2  19
TORSDOF 5
