REMARK  5 active torsions:
REMARK  status: ('A' for Active; 'I' for Inactive)
REMARK    1  A    between atoms: C3_5  and  N3_7 
REMARK       I    between atoms: N3_7  and  C4_8 
REMARK    2  A    between atoms: C4_8  and  C5_10 
REMARK    3  A    between atoms: C5_10  and  S2_11 
REMARK    4  A    between atoms: S2_11  and  C6_12 
REMARK    5  A    between atoms: N4_15  and  N6_19 
ROOT
ATOM      1  C6  <0> d           4.017   1.961  -0.026  0.00  0.00     0.107 A 
ATOM      2  C7  <0> d           5.347   1.487  -0.035  0.00  0.00     0.002 A 
ATOM      3  C8  <0> d           6.361   2.382  -0.045  0.00  0.00     0.043 A 
ATOM      4  N4  <0> d           6.070   3.716  -0.036  0.00  0.00    -0.227 N 
ATOM      5  C9  <0> d           4.793   4.136  -0.021  0.00  0.00     0.364 A 
ATOM      6  O2  <0> d           4.555   5.333  -0.012  0.00  0.00    -0.243 OA
ATOM      7  N5  <0> d           3.784   3.268  -0.017  0.00  0.00    -0.185 NA
ATOM      8  C15 <0> d           7.692   1.664  -0.062  0.00  0.00     0.060 C 
ATOM      9  C16 <0> d           7.363   0.220  -0.499  0.00  0.00     0.011 C 
ATOM     10  C17 <0> d           5.892   0.077  -0.052  0.00  0.00     0.044 C 
ENDROOT
BRANCH   1  11
ATOM     11  S2  <0> d           2.672   0.823  -0.019  0.00  0.00    -0.100 SA
BRANCH  11  12
ATOM     12  C5  <0> d           1.280   1.980   0.001  0.00  0.00     0.184 C 
BRANCH  12  13
ATOM     13  C4  <0> d          -0.014   1.209   0.009  0.00  0.00     0.233 C 
ATOM     14  N3  <0> d          -1.191   1.867   0.018  0.00  0.00    -0.304 N 
ATOM     15  H4  <0> d          -1.204   2.837   0.023  0.00  0.00     0.171 HD
ATOM     16  O1  <0> d           0.002  -0.004   0.002  0.00  0.00    -0.272 OA
BRANCH  14  17
ATOM     17  C3  <0> d          -2.385   1.155   0.020  0.00  0.00     0.196 A 
ATOM     18  N2  <0> d          -2.588  -0.151   0.014  0.00  0.00    -0.123 NA
ATOM     19  N1  <0> d          -3.749  -0.646   0.017  0.00  0.00    -0.145 NA
ATOM     20  C2  <0> d          -4.812   0.133   0.025  0.00  0.00     0.097 A 
ATOM     21  C1  <0> d          -6.275  -0.226   0.030  0.00  0.00     0.081 C 
ATOM     22  S1  <0> d          -4.024   1.739   0.038  0.00  0.00    -0.034 SA
ENDBRANCH  14  17
ENDBRANCH  12  13
ENDBRANCH  11  12
ENDBRANCH   1  11
BRANCH   4  23
ATOM     23  N6  <0> d           7.085   4.631  -0.041  0.00  0.00    -0.217 NA
ATOM     24  C13 <0> d           7.005   5.499  -1.224  0.00  0.00     0.142 C 
ATOM     25  C12 <0> d           8.201   6.455  -1.234  0.00  0.00     0.250 C 
ATOM     26  N7  <0> d           8.174   7.264   0.002  0.00  0.00    -0.073 N 
ATOM     27  C11 <0> d           8.278   6.382   1.184  0.00  0.00     0.250 C 
ATOM     28  C14 <0> d           9.290   8.234  -0.005  0.00  0.00     0.269 C 
ATOM     29  H24 <0> d           7.286   7.777   0.046  0.00  0.00     0.279 HD
ATOM     30  C10 <0> d           7.083   5.427   1.194  0.00  0.00     0.142 C 
ENDBRANCH   4  23
TORSDOF 5
