REMARK  5 active torsions:
REMARK  status: ('A' for Active; 'I' for Inactive)
REMARK    1  A    between atoms: C2_2  and  C3_3 
REMARK    2  A    between atoms: C3_3  and  C4_4 
REMARK    3  A    between atoms: C3_3  and  N1_6 
REMARK    4  A    between atoms: C4_4  and  O1_5 
REMARK       I    between atoms: N1_6  and  C5_7 
REMARK    5  A    between atoms: C5_7  and  C6_9 
ROOT
ATOM      1  C6  <0> d           4.314   0.445   2.231  0.00  0.00     0.127 C 
ATOM      2  C7  <0> d           4.901   0.508   3.639  0.00  0.00     0.253 C 
ATOM      3  N2  <0> d           5.051  -0.808   4.248  0.00  0.00    -0.066 N 
ATOM      4  C8  <0> d           4.593  -1.903   3.389  0.00  0.00     0.222 C 
ATOM      5  C9  <0> d           4.903  -3.240   4.069  0.00  0.00     0.053 C 
ATOM      6  C10 <0> d           4.713  -4.388   3.080  0.00  0.00     0.065 A 
ATOM      7  C11 <0> d           5.169  -5.741   3.561  0.00  0.00     0.100 A 
ATOM      8  N3  <0> d           6.111  -6.159   2.764  0.00  0.00    -0.264 NA
ATOM      9  C12 <0> d           6.467  -5.269   1.810  0.00  0.00     0.064 A 
ATOM     10  C13 <0> d           5.698  -4.101   1.978  0.00  0.00    -0.009 A 
ATOM     11  C14 <0> d           5.931  -2.866   1.388  0.00  0.00    -0.019 C 
ATOM     12  C15 <0> d           6.848  -2.863   0.348  0.00  0.00     0.012 C 
ATOM     13  C16 <0> d           7.518  -4.034   0.022  0.00  0.00     0.003 C 
ATOM     14  C17 <0> d           7.389  -5.265   0.753  0.00  0.00     0.032 C 
ATOM     15  C18 <0> d           5.232  -1.762   2.023  0.00  0.00    -0.019 C 
ATOM     16  C19 <0> d           5.101  -0.572   1.422  0.00  0.00    -0.001 C 
ATOM     17  C20 <0> d           4.281  -0.838   5.499  0.00  0.00     0.270 C 
ATOM     18  H26 <0> d           6.025  -0.954   4.466  0.00  0.00     0.280 HD
ENDROOT
BRANCH   1  19
ATOM     19  C5  <0> d           2.869   0.026   2.303  0.00  0.00     0.227 C 
ATOM     20  N1  <0> d           2.148  -0.104   1.172  0.00  0.00    -0.354 N 
ATOM     21  H13 <0> d           2.559   0.072   0.311  0.00  0.00     0.163 HD
ATOM     22  O2  <0> d           2.354  -0.193   3.379  0.00  0.00    -0.273 OA
BRANCH  20  23
ATOM     23  C3  <0> d           0.742  -0.511   1.242  0.00  0.00     0.107 C 
BRANCH  23  24
ATOM     24  C2  <0> d           0.002  -0.004   0.002  0.00  0.00     0.023 C 
ATOM     25  C1  <0> d          -0.019   1.526   0.010  0.00  0.00     0.007 C 
ENDBRANCH  23  24
BRANCH  23  26
ATOM     26  C4  <0> d           0.655  -2.037   1.299  0.00  0.00     0.189 C 
BRANCH  26  27
ATOM     27  O1  <0> d           1.148  -2.588   0.076  0.00  0.00    -0.399 OA
ATOM     28  H12 <0> d           1.123  -3.555   0.041  0.00  0.00     0.209 HD
ENDBRANCH  26  27
ENDBRANCH  23  26
ENDBRANCH  20  23
ENDBRANCH   1  19
TORSDOF 5
