REMARK  2 active torsions:
REMARK  status: ('A' for Active; 'I' for Inactive)
REMARK    1  A    between atoms: C5_6  and  C6_7 
REMARK       I    between atoms: C6_7  and  N2_9 
REMARK    2  A    between atoms: C11_15  and  C13_17 
ROOT
ATOM      1  C6  <0> d           1.439  -0.776   1.948  0.00  0.00     0.234 C 
ATOM      2  O1  <0> d           2.251  -1.677   1.952  0.00  0.00    -0.272 OA
ATOM      3  N2  <0> d           1.710   0.377   2.592  0.00  0.00    -0.349 N 
ATOM      4  C7  <0> d           0.812   1.538   2.792  0.00  0.00     0.133 C 
ATOM      5  C8  <0> d           1.090   2.005   4.236  0.00  0.00     0.051 C 
ATOM      6  C9  <0> d           1.192   3.545   4.250  0.00  0.00     0.239 C 
ATOM      7  N3  <0> d           2.377   3.837   5.095  0.00  0.00    -0.073 N 
ATOM      8  C10 <0> d           3.364   2.796   4.711  0.00  0.00     0.255 C 
ATOM      9  C11 <0> d           2.523   1.496   4.547  0.00  0.00     0.095 C 
ATOM     10  C12 <0> d           2.969   0.768   3.266  0.00  0.00     0.148 C 
ATOM     11  H10 <0> d           2.738   4.757   4.891  0.00  0.00     0.277 HD
ATOM     12  H21 <0> d           2.142   3.758   6.073  0.00  0.00     0.277 HD
ENDROOT
BRANCH   1  13
ATOM     13  C5  <0> d           0.129  -0.944   1.223  0.00  0.00     0.164 A 
ATOM     14  C2  <0> d           0.278  -0.597  -0.249  0.00  0.00     0.026 A 
ATOM     15  C1  <0> d           0.673   0.739  -0.823  0.00  0.00     0.067 C 
ATOM     16  N1  <0> d           0.004  -1.676  -0.915  0.00  0.00    -0.261 NA
ATOM     17  C3  <0> d          -0.318  -2.721  -0.150  0.00  0.00     0.045 A 
ATOM     18  C17 <0> d          -0.697  -4.117  -0.603  0.00  0.00     0.060 C 
ATOM     19  C4  <0> d          -0.276  -2.392   1.176  0.00  0.00     0.031 A 
ATOM     20  C16 <0> d          -1.597  -4.737   0.472  0.00  0.00     0.014 C 
ATOM     21  C15 <0> d          -0.897  -4.719   1.831  0.00  0.00     0.084 C 
ATOM     22  C14 <0> d          -0.558  -3.293   2.212  0.00  0.00     0.158 C 
ATOM     23  O4  <0> d          -0.533  -2.943   3.374  0.00  0.00    -0.293 OA
ENDBRANCH   1  13
BRANCH   9  24
ATOM     24  C13 <0> d           2.570   0.610   5.765  0.00  0.00     0.185 C 
ATOM     25  O2  <0> d           3.406  -0.274   5.846  0.00  0.00    -0.647 OA
ATOM     26  O3  <0> d           1.770   0.776   6.671  0.00  0.00    -0.647 OA
ENDBRANCH   9  24
TORSDOF 2
