REMARK  3 active torsions:
REMARK  status: ('A' for Active; 'I' for Inactive)
REMARK    1  A    between atoms: N2_9  and  C8_12 
REMARK    2  A    between atoms: C8_12  and  C9_13 
REMARK       I    between atoms: C9_13  and  N4_15 
REMARK    3  A    between atoms: N4_15  and  C10_16 
ROOT
ATOM      1  C1  <0> d           0.031   5.187   0.026  0.00  0.00     0.030 A 
ATOM      2  C2  <0> d           1.276   5.803   0.019  0.00  0.00    -0.032 A 
ATOM      3  C3  <0> d           2.421   5.028   0.011  0.00  0.00     0.043 A 
ATOM      4  N1  <0> d           2.346   3.704   0.002  0.00  0.00    -0.232 NA
ATOM      5  C4  <0> d           1.187   3.060   0.007  0.00  0.00     0.166 A 
ATOM      6  C5  <0> d          -0.020   3.796   0.021  0.00  0.00     0.081 A 
ATOM      7  C6  <0> d          -1.288   3.054   0.029  0.00  0.00     0.263 A 
ATOM      8  O1  <0> d          -2.359   3.631   0.042  0.00  0.00    -0.267 OA
ATOM      9  N2  <0> d          -1.217   1.702   0.017  0.00  0.00    -0.299 N 
ATOM     10  C7  <0> d          -0.013   1.076   0.008  0.00  0.00     0.215 A 
ATOM     11  N3  <0> d           1.123   1.706   0.001  0.00  0.00    -0.223 NA
ATOM     12  C15 <0> d           3.801   5.637   0.014  0.00  0.00     0.060 C 
ATOM     13  C16 <0> d           3.744   7.100  -0.417  0.00  0.00     0.006 C 
ATOM     14  C17 <0> d           2.687   7.816   0.433  0.00  0.00     0.005 C 
ATOM     15  C18 <0> d           1.309   7.308   0.013  0.00  0.00     0.040 C 
ENDROOT
BRANCH   9  16
ATOM     16  C8  <0> d          -2.449   0.909   0.020  0.00  0.00     0.235 C 
BRANCH  16  17
ATOM     17  C9  <0> d          -2.864   0.630   1.442  0.00  0.00     0.236 C 
ATOM     18  O2  <0> d          -2.196   1.052   2.362  0.00  0.00    -0.272 OA
ATOM     19  N4  <0> d          -3.976  -0.088   1.690  0.00  0.00    -0.355 N 
ATOM     20  H5  <0> d          -4.582  -0.471   0.855  0.00  0.00     0.162 HD
BRANCH  19  21
ATOM     21  C10 <0> d          -4.380  -0.359   3.072  0.00  0.00     0.084 C 
ATOM     22  C14 <0> d          -5.897  -0.610   3.139  0.00  0.00     0.025 C 
ATOM     23  C13 <0> d          -6.083  -2.041   3.684  0.00  0.00     0.002 C 
ATOM     24  C12 <0> d          -4.775  -2.325   4.462  0.00  0.00     0.002 C 
ATOM     25  C11 <0> d          -3.698  -1.647   3.579  0.00  0.00     0.025 C 
ENDBRANCH  19  21
ENDBRANCH  16  17
ENDBRANCH   9  16
TORSDOF 3
