REMARK  6 active torsions:
REMARK  status: ('A' for Active; 'I' for Inactive)
REMARK    1  A    between atoms: N1_5  and  C7_8 
REMARK    2  A    between atoms: C7_8  and  C8_9 
REMARK    3  A    between atoms: C7_8  and  C14_21 
REMARK    4  A    between atoms: C8_9  and  N2_10 
REMARK       I    between atoms: N2_10  and  C9_11 
REMARK       I    between atoms: C9_11  and  N3_13 
REMARK    5  A    between atoms: N3_13  and  C10_14 
REMARK    6  A    between atoms: C10_14  and  C11_15 
ROOT
ATOM      1  C7  <0> d          -0.749  -3.951   1.434  0.00  0.00     0.245 C 
ENDROOT
BRANCH   1   2
ATOM      2  N1  <0> d          -0.714  -2.495   1.238  0.00  0.00    -0.061 N 
ATOM      3  C4  <0> d          -1.418  -2.153  -0.003  0.00  0.00     0.236 C 
ATOM      4  C3  <0> d          -1.455  -0.633  -0.171  0.00  0.00     0.032 C 
ATOM      5  C2  <0> d          -0.022  -0.097  -0.232  0.00  0.00    -0.015 C 
ATOM      6  C1  <0> d          -0.050   1.431  -0.319  0.00  0.00     0.010 C 
ATOM      7  C6  <0> d           0.726  -0.523   1.035  0.00  0.00     0.032 C 
ATOM      8  C5  <0> d           0.682  -2.047   1.158  0.00  0.00     0.236 C 
ATOM      9  H26 <0> d          -1.167  -2.042   2.017  0.00  0.00     0.280 HD
ENDBRANCH   1   2
BRANCH   1  10
ATOM     10  C8  <0> d          -2.199  -4.408   1.601  0.00  0.00     0.163 C 
BRANCH  10  11
ATOM     11  N2  <0> d          -2.242  -5.869   1.705  0.00  0.00    -0.341 N 
ATOM     12  C9  <0> d          -3.428  -6.505   1.770  0.00  0.00     0.316 C 
ATOM     13  O1  <0> d          -4.463  -5.867   1.742  0.00  0.00    -0.247 OA
ATOM     14  N3  <0> d          -3.467  -7.849   1.865  0.00  0.00    -0.337 N 
ATOM     15  H18 <0> d          -2.642  -8.358   1.887  0.00  0.00     0.164 HD
ATOM     16  H17 <0> d          -1.417  -6.378   1.727  0.00  0.00     0.164 HD
BRANCH  14  17
ATOM     17  C10 <0> d          -4.757  -8.541   1.936  0.00  0.00     0.185 C 
BRANCH  17  18
ATOM     18  C11 <0> d          -4.525 -10.027   2.037  0.00  0.00     0.073 A 
ATOM     19  N5  <0> d          -4.334 -10.843   1.032  0.00  0.00    -0.178 NA
ATOM     20  N4  <0> d          -4.155 -12.134   1.546  0.00  0.00    -0.289 N 
ATOM     21  C13 <0> d          -4.254 -12.064   2.890  0.00  0.00     0.111 A 
ATOM     22  H2  <0> d          -3.993 -12.937   1.027  0.00  0.00     0.188 HD
ATOM     23  C12 <0> d          -4.483 -10.772   3.220  0.00  0.00     0.049 A 
ENDBRANCH  17  18
ENDBRANCH  14  17
ENDBRANCH  10  11
ENDBRANCH   1  10
BRANCH   1  24
ATOM     24  C14 <0> d           0.037  -4.311   2.669  0.00  0.00     0.015 A 
ATOM     25  S1  <0> d           0.109  -3.467   4.241  0.00  0.00    -0.104 SA
ATOM     26  C17 <0> d           1.247  -4.569   5.065  0.00  0.00     0.050 A 
ATOM     27  C16 <0> d           1.497  -5.487   4.100  0.00  0.00     0.008 A 
ATOM     28  C15 <0> d           0.877  -5.355   2.872  0.00  0.00     0.017 A 
ENDBRANCH   1  24
TORSDOF 6
