REMARK  6 active torsions:
REMARK  status: ('A' for Active; 'I' for Inactive)
REMARK    1  A    between atoms: C4_4  and  C7_8 
REMARK       I    between atoms: C7_8  and  N1_10 
REMARK    2  A    between atoms: N1_10  and  C8_11 
REMARK    3  A    between atoms: C13_16  and  C14_17 
REMARK    4  A    between atoms: C15_19  and  C18_23 
REMARK    5  A    between atoms: C18_23  and  N3_24 
REMARK       I    between atoms: N3_24  and  C19_25 
REMARK    6  A    between atoms: C19_25  and  C20_27 
ROOT
ATOM      1  C14 <0> d           7.868  -1.550  -3.252  0.00  0.00     0.182 A 
ATOM      2  N2  <0> d           6.773  -0.887  -3.544  0.00  0.00    -0.224 NA
ATOM      3  C15 <0> d           5.717  -1.589  -3.107  0.00  0.00     0.084 A 
ATOM      4  C16 <0> d           6.178  -2.718  -2.540  0.00  0.00     0.078 A 
ATOM      5  O3  <0> d           7.523  -2.691  -2.631  0.00  0.00    -0.294 OA
ATOM      6  C17 <0> d           5.347  -3.810  -1.917  0.00  0.00     0.079 C 
ENDROOT
BRANCH   1   7
ATOM      7  C13 <0> d           9.246  -1.117  -3.559  0.00  0.00     0.044 A 
ATOM      8  C8  <0> d          10.339  -1.859  -3.088  0.00  0.00     0.049 A 
ATOM      9  C9  <0> d          11.630  -1.446  -3.388  0.00  0.00     0.030 A 
ATOM     10  C10 <0> d          11.835  -0.304  -4.137  0.00  0.00     0.002 A 
ATOM     11  C11 <0> d          10.758   0.434  -4.598  0.00  0.00     0.001 A 
ATOM     12  C12 <0> d           9.468   0.035  -4.315  0.00  0.00     0.018 A 
BRANCH   8  13
ATOM     13  N1  <0> d          10.130  -3.009  -2.326  0.00  0.00    -0.322 N 
ATOM     14  C7  <0> d          11.006  -4.031  -2.395  0.00  0.00     0.258 C 
ATOM     15  O2  <0> d          12.020  -3.919  -3.056  0.00  0.00    -0.267 OA
ATOM     16  H9  <0> d           9.354  -3.073  -1.748  0.00  0.00     0.169 HD
BRANCH  14  17
ATOM     17  C4  <0> d          10.734  -5.284  -1.668  0.00  0.00     0.064 A 
ATOM     18  C3  <0> d           9.569  -5.587  -0.823  0.00  0.00     0.051 A 
ATOM     19  C2  <0> d           9.752  -6.839  -0.379  0.00  0.00     0.050 A 
ATOM     20  C1  <0> d           8.810  -7.591   0.526  0.00  0.00     0.076 C 
ATOM     21  O1  <0> d          10.911  -7.313  -0.863  0.00  0.00    -0.319 OA
ATOM     22  C5  <0> d          11.513  -6.403  -1.635  0.00  0.00     0.065 A 
ATOM     23  C6  <0> d          12.829  -6.583  -2.347  0.00  0.00     0.077 C 
ENDBRANCH  14  17
ENDBRANCH   8  13
ENDBRANCH   1   7
BRANCH   3  24
ATOM     24  C18 <0> d           4.270  -1.188  -3.235  0.00  0.00     0.184 C 
BRANCH  24  25
ATOM     25  N3  <0> d           3.871  -0.415  -2.055  0.00  0.00    -0.355 N 
ATOM     26  C19 <0> d           2.612   0.052  -1.950  0.00  0.00     0.227 C 
ATOM     27  O4  <0> d           1.808  -0.167  -2.832  0.00  0.00    -0.273 OA
ATOM     28  H19 <0> d           4.514  -0.240  -1.350  0.00  0.00     0.162 HD
BRANCH  26  29
ATOM     29  C20 <0> d           2.202   0.847  -0.737  0.00  0.00     0.119 A 
ATOM     30  C24 <0> d           0.753   1.257  -0.851  0.00  0.00    -0.031 A 
ATOM     31  C23 <0> d           0.659   2.648  -0.846  0.00  0.00     0.017 A 
ATOM     32  C25 <0> d          -0.391   0.489  -0.950  0.00  0.00     0.009 A 
ATOM     33  C22 <0> d           1.994   3.259  -0.733  0.00  0.00     0.161 A 
ATOM     34  C28 <0> d          -0.604   3.252  -0.943  0.00  0.00     0.016 A 
ATOM     35  C21 <0> d           3.013   2.148  -0.660  0.00  0.00     0.102 A 
ATOM     36  O5  <0> d           2.233   4.447  -0.704  0.00  0.00    -0.292 OA
ATOM     37  C27 <0> d          -1.736   2.473  -1.042  0.00  0.00     0.001 A 
ATOM     38  C26 <0> d          -1.631   1.093  -1.051  0.00  0.00     0.001 A 
ENDBRANCH  26  29
ENDBRANCH  24  25
ENDBRANCH   3  24
TORSDOF 6
