REMARK  6 active torsions:
REMARK  status: ('A' for Active; 'I' for Inactive)
REMARK    1  A    between atoms: C2_2  and  O1_3 
REMARK    2  A    between atoms: O1_3  and  C3_4 
REMARK    3  A    between atoms: C6_7  and  N1_10 
REMARK    4  A    between atoms: C10_13  and  C11_14 
REMARK    5  A    between atoms: N2_15  and  N3_16 
REMARK       I    between atoms: N3_16  and  C12_17 
REMARK    6  A    between atoms: C12_17  and  C13_19 
ROOT
ATOM      1  N1  <0> d           1.146  -5.961   1.744  0.00  0.00    -0.239 N 
ATOM      2  C9  <0> d           1.877  -6.460   2.763  0.00  0.00     0.272 A 
ATOM      3  O2  <0> d           2.465  -5.723   3.534  0.00  0.00    -0.266 OA
ATOM      4  C10 <0> d           1.941  -7.923   2.912  0.00  0.00     0.119 A 
ATOM      5  C19 <0> d           1.193  -8.729   1.927  0.00  0.00     0.287 A 
ATOM      6  N4  <0> d           0.508  -8.088   0.965  0.00  0.00    -0.165 NA
ATOM      7  C20 <0> d           0.483  -6.781   0.885  0.00  0.00     0.290 A 
ATOM      8  O4  <0> d          -0.234  -6.218  -0.107  0.00  0.00    -0.148 OA
ATOM      9  O5  <0> d           1.198  -9.947   1.984  0.00  0.00    -0.265 OA
ENDROOT
BRANCH   4  10
ATOM     10  C11 <0> d           2.668  -8.515   3.929  0.00  0.00     0.130 C 
ATOM     11  N2  <0> d           2.818  -9.854   3.958  0.00  0.00    -0.308 N 
ATOM     12  H11 <0> d           2.487 -10.395   3.225  0.00  0.00     0.186 HD
BRANCH  11  13
ATOM     13  N3  <0> d           3.454 -10.464   5.047  0.00  0.00    -0.266 N 
ATOM     14  C12 <0> d           3.605 -11.803   5.076  0.00  0.00     0.270 C 
ATOM     15  O3  <0> d           3.189 -12.481   4.157  0.00  0.00    -0.266 OA
ATOM     16  H12 <0> d           3.786  -9.923   5.781  0.00  0.00     0.190 HD
BRANCH  14  17
ATOM     17  C13 <0> d           4.276 -12.447   6.226  0.00  0.00     0.033 A 
ATOM     18  C18 <0> d           4.433 -13.833   6.259  0.00  0.00     0.017 A 
ATOM     19  C17 <0> d           5.065 -14.427   7.332  0.00  0.00     0.001 A 
ATOM     20  C16 <0> d           5.532 -13.652   8.379  0.00  0.00     0.000 A 
ATOM     21  C15 <0> d           5.374 -12.278   8.355  0.00  0.00     0.001 A 
ATOM     22  C14 <0> d           4.749 -11.671   7.285  0.00  0.00     0.017 A 
ENDBRANCH  14  17
ENDBRANCH  11  13
ENDBRANCH   4  10
BRANCH   1  23
ATOM     23  C6  <0> d           1.062  -4.571   1.571  0.00  0.00     0.046 A 
ATOM     24  C5  <0> d          -0.135  -3.912   1.816  0.00  0.00     0.033 A 
ATOM     25  C4  <0> d          -0.216  -2.544   1.647  0.00  0.00     0.039 A 
ATOM     26  C3  <0> d           0.898  -1.829   1.232  0.00  0.00     0.068 A 
ATOM     27  C8  <0> d           2.092  -2.488   0.981  0.00  0.00     0.039 A 
ATOM     28  C7  <0> d           2.177  -3.855   1.156  0.00  0.00     0.033 A 
BRANCH  26  29
ATOM     29  O1  <0> d           0.817  -0.482   1.065  0.00  0.00    -0.352 OA
BRANCH  29  30
ATOM     30  C2  <0> d          -0.444   0.132   1.341  0.00  0.00     0.171 C 
ATOM     31  C1  <0> d          -0.341   1.639   1.098  0.00  0.00     0.034 C 
ENDBRANCH  29  30
ENDBRANCH  26  29
ENDBRANCH   1  23
TORSDOF 6
