REMARK  3 active torsions:
REMARK  status: ('A' for Active; 'I' for Inactive)
REMARK       I    between atoms: N1_2  and  C3_4 
REMARK    1  A    between atoms: C3_4  and  C4_6 
REMARK    2  A    between atoms: C4_6  and  N2_7 
REMARK    3  A    between atoms: C11_14  and  N3_17 
ROOT
ATOM      1  N2  <0> d           0.014  -2.659  -2.561  0.00  0.00    -0.306 N 
ATOM      2  C5  <0> d          -1.148  -2.925  -3.286  0.00  0.00     0.048 A 
ATOM      3  C6  <0> d          -2.490  -2.817  -2.928  0.00  0.00     0.030 A 
ATOM      4  C7  <0> d          -3.478  -3.143  -3.834  0.00  0.00     0.004 A 
ATOM      5  C8  <0> d          -3.146  -3.580  -5.104  0.00  0.00     0.020 A 
ATOM      6  C9  <0> d          -1.814  -3.690  -5.468  0.00  0.00     0.022 A 
ATOM      7  C10 <0> d          -0.826  -3.365  -4.564  0.00  0.00     0.028 A 
ATOM      8  C11 <0> d           0.683  -3.374  -4.643  0.00  0.00     0.346 A 
ATOM      9  C12 <0> d           1.126  -2.889  -3.279  0.00  0.00     0.262 A 
ATOM     10  O2  <0> d           2.270  -2.740  -2.904  0.00  0.00    -0.270 OA
ATOM     11 Br1  <0> d          -1.352  -4.287  -7.201  0.00  0.00    -0.050 Br
ENDROOT
BRANCH   1  12
ATOM     12  C4  <0> d           0.021  -2.178  -1.177  0.00  0.00     0.235 C 
BRANCH  12  13
ATOM     13  C3  <0> d           0.000  -0.672  -1.169  0.00  0.00     0.237 C 
ATOM     14  N1  <0> d           0.002  -0.004   0.002  0.00  0.00    -0.359 N 
ATOM     15  C1  <0> d          -0.018   1.461   0.010  0.00  0.00     0.152 C 
ATOM     16  C2  <0> d           0.024  -0.743   1.267  0.00  0.00     0.152 C 
ATOM     17  O1  <0> d          -0.018  -0.060  -2.216  0.00  0.00    -0.272 OA
ENDBRANCH  12  13
ENDBRANCH   1  12
BRANCH   8  18
ATOM     18  N3  <0> d           1.149  -2.455  -5.691  0.00  0.00     0.096 N 
ATOM     19  H13 <0> d           2.156  -2.456  -5.750  0.00  0.00     0.314 HD
ATOM     20  H14 <0> d           0.734  -2.683  -6.582  0.00  0.00     0.314 HD
ENDBRANCH   8  18
TORSDOF 3
