REMARK  3 active torsions:
REMARK  status: ('A' for Active; 'I' for Inactive)
REMARK    1  A    between atoms: C8_9  and  C9_12 
REMARK       I    between atoms: C9_12  and  N2_14 
REMARK    2  A    between atoms: N2_14  and  C10_15 
REMARK    3  A    between atoms: C10_15  and  C11_16 
ROOT
ATOM      1  C1  <0> d          -0.017   1.387   0.010  0.00  0.00     0.044 A 
ATOM      2  C2  <0> d           1.159   2.104   0.002  0.00  0.00     0.033 A 
ATOM      3  C3  <0> d           2.379   1.435  -0.013  0.00  0.00     0.043 A 
ATOM      4  C4  <0> d           2.396   0.026  -0.021  0.00  0.00    -0.004 A 
ATOM      5  C5  <0> d           1.188  -0.683  -0.013  0.00  0.00     0.056 A 
ATOM      6  C6  <0> d           0.002  -0.004   0.002  0.00  0.00     0.117 A 
ATOM      7  F1  <0> d          -1.162  -0.690   0.009  0.00  0.00    -0.206 F 
ATOM      8  C7  <0> d           3.755  -0.370  -0.036  0.00  0.00     0.049 A 
ATOM      9  C8  <0> d           4.515   0.757  -0.038  0.00  0.00     0.102 A 
ATOM     10  N1  <0> d           3.686   1.862  -0.024  0.00  0.00    -0.351 N 
ATOM     11  H1  <0> d           3.978   2.787  -0.021  0.00  0.00     0.166 HD
ENDROOT
BRANCH   9  12
ATOM     12  C9  <0> d           5.985   0.794  -0.052  0.00  0.00     0.268 C 
ATOM     13  O1  <0> d           6.619  -0.244  -0.064  0.00  0.00    -0.266 OA
ATOM     14  N2  <0> d           6.629   1.978  -0.052  0.00  0.00    -0.351 N 
ATOM     15  H6  <0> d           6.123   2.805  -0.043  0.00  0.00     0.163 HD
BRANCH  14  16
ATOM     16  C10 <0> d           8.094   2.014  -0.066  0.00  0.00     0.169 C 
BRANCH  16  17
ATOM     17  C11 <0> d           8.560   3.447  -0.063  0.00  0.00     0.001 A 
ATOM     18  S1  <0> d           8.895   4.524  -1.448  0.00  0.00    -0.103 SA
ATOM     19  C14 <0> d           9.375   5.976  -0.528  0.00  0.00     0.069 A 
ATOM     20  C13 <0> d           9.258   5.548   0.754  0.00  0.00     0.018 A 
ATOM     21  C12 <0> d           8.840   4.252   0.991  0.00  0.00     0.035 A 
ATOM     22 Br1  <0> d           9.659   6.706   2.193  0.00  0.00    -0.051 Br
ENDBRANCH  16  17
ENDBRANCH  14  16
ENDBRANCH   9  12
TORSDOF 3
