REMARK  6 active torsions:
REMARK  status: ('A' for Active; 'I' for Inactive)
REMARK    1  A    between atoms: C3_3  and  C14_19 
REMARK    2  A    between atoms: C7_7  and  N1_8 
REMARK       I    between atoms: N1_8  and  C8_9 
REMARK    3  A    between atoms: C8_9  and  C9_11 
REMARK    4  A    between atoms: C11_14  and  C12_16 
REMARK    5  A    between atoms: C12_16  and  O2_17 
REMARK    6  A    between atoms: C14_19  and  N3_20 
ROOT
ATOM      1  C1  <0> d           1.107   1.776   0.004  0.00  0.00     0.051 C 
ATOM      2  C2  <0> d           0.849   0.296   0.118  0.00  0.00    -0.027 A 
ATOM      3  C3  <0> d           0.354  -0.405  -0.965  0.00  0.00    -0.024 A 
ATOM      4  C4  <0> d           0.117  -1.763  -0.861  0.00  0.00     0.009 A 
ATOM      5  C5  <0> d           0.373  -2.424   0.326  0.00  0.00     0.003 A 
ATOM      6  C6  <0> d           0.868  -1.729   1.412  0.00  0.00     0.030 A 
ATOM      7  C7  <0> d           1.113  -0.366   1.310  0.00  0.00     0.041 A 
ENDROOT
BRANCH   7   8
ATOM      8  N1  <0> d           1.619   0.340   2.406  0.00  0.00    -0.321 N 
ATOM      9  C8  <0> d           1.440  -0.136   3.655  0.00  0.00     0.275 C 
ATOM     10  O1  <0> d           0.755  -1.124   3.836  0.00  0.00    -0.266 OA
ATOM     11  H7  <0> d           2.099   1.171   2.268  0.00  0.00     0.169 HD
BRANCH   9  12
ATOM     12  C9  <0> d           2.073   0.542   4.798  0.00  0.00     0.132 A 
ATOM     13  N2  <0> d           2.833   1.630   4.643  0.00  0.00    -0.238 NA
ATOM     14  C11 <0> d           3.357   2.177   5.707  0.00  0.00     0.099 A 
ATOM     15  S1  <0> d           2.827   1.198   6.963  0.00  0.00    -0.082 SA
ATOM     16  C10 <0> d           1.922   0.091   6.082  0.00  0.00     0.089 A 
BRANCH  14  17
ATOM     17  C12 <0> d           4.236   3.398   5.787  0.00  0.00     0.234 C 
BRANCH  17  18
ATOM     18  O2  <0> d           3.423   4.561   5.957  0.00  0.00    -0.389 OA
ATOM     19  C13 <0> d           4.163   5.780   6.045  0.00  0.00     0.201 C 
ENDBRANCH  17  18
ENDBRANCH  14  17
ENDBRANCH   9  12
ENDBRANCH   7   8
BRANCH   3  20
ATOM     20  C14 <0> d           0.073   0.312  -2.260  0.00  0.00     0.274 C 
BRANCH  20  21
ATOM     21  N3  <0> d          -1.192   1.050  -2.148  0.00  0.00    -0.066 N 
ATOM     22  C18 <0> d          -1.383   1.861  -3.352  0.00  0.00     0.245 C 
ATOM     23  C17 <0> d          -2.478   2.906  -3.107  0.00  0.00     0.101 C 
ATOM     24  S2  <0> d          -4.036   2.030  -2.761  0.00  0.00    -0.166 SA
ATOM     25  C16 <0> d          -3.543   0.831  -1.483  0.00  0.00     0.101 C 
ATOM     26  C15 <0> d          -2.289   0.097  -1.970  0.00  0.00     0.245 C 
ATOM     27  H24 <0> d          -1.149   1.657  -1.343  0.00  0.00     0.280 HD
ENDBRANCH  20  21
ENDBRANCH   3  20
TORSDOF 6
