REMARK  4 active torsions:
REMARK  status: ('A' for Active; 'I' for Inactive)
REMARK    1  A    between atoms: N2_6  and  C7_9 
REMARK    2  A    between atoms: C8_10  and  C12_16 
REMARK    3  A    between atoms: C12_16  and  N4_17 
REMARK    4  A    between atoms: N4_17  and  C13_18 
ROOT
ATOM      1  C7  <0> d          -0.797  -3.020   2.627  0.00  0.00     0.133 A 
ATOM      2  C8  <0> d          -2.100  -3.446   2.861  0.00  0.00     0.015 A 
ATOM      3  C9  <0> d          -2.515  -3.656   4.164  0.00  0.00     0.033 A 
ATOM      4  C10 <0> d          -1.609  -3.432   5.193  0.00  0.00     0.029 A 
ATOM      5  C11 <0> d          -0.330  -3.010   4.887  0.00  0.00     0.138 A 
ATOM      6  N3  <0> d           0.040  -2.822   3.634  0.00  0.00    -0.242 NA
ATOM      7 Br1  <0> d          -2.121  -3.703   6.993  0.00  0.00    -0.050 Br
ENDROOT
BRANCH   1   8
ATOM      8  N2  <0> d          -0.366  -2.804   1.322  0.00  0.00    -0.364 N 
ATOM      9  C4  <0> d          -0.657  -1.506   0.682  0.00  0.00     0.126 C 
ATOM     10  C3  <0> d           0.553  -1.004  -0.126  0.00  0.00     0.047 C 
ATOM     11  C2  <0> d           1.826  -1.300   0.637  0.00  0.00     0.236 C 
ATOM     12  N1  <0> d           2.366  -2.583   0.194  0.00  0.00    -0.073 N 
ATOM     13  C1  <0> d           3.827  -2.549   0.350  0.00  0.00     0.269 C 
ATOM     14  C6  <0> d           1.870  -3.709   0.887  0.00  0.00     0.254 C 
ATOM     15  H25 <0> d           2.155  -2.693  -0.787  0.00  0.00     0.279 HD
ATOM     16  C5  <0> d           0.350  -3.862   0.640  0.00  0.00     0.152 C 
ENDBRANCH   1   8
BRANCH   2  17
ATOM     17  C12 <0> d          -3.047  -3.675   1.712  0.00  0.00     0.275 C 
BRANCH  17  18
ATOM     18  N4  <0> d          -2.778  -4.988   1.110  0.00  0.00    -0.067 N 
ATOM     19  H18 <0> d          -1.806  -5.043   0.844  0.00  0.00     0.277 HD
ATOM     20  H24 <0> d          -2.986  -5.714   1.779  0.00  0.00     0.277 HD
BRANCH  18  21
ATOM     21  C13 <0> d          -3.621  -5.163  -0.080  0.00  0.00     0.186 A 
ATOM     22  C15 <0> d          -3.405  -6.423  -0.920  0.00  0.00     0.035 A 
ATOM     23  C14 <0> d          -4.658  -6.288  -0.052  0.00  0.00     0.035 A 
ENDBRANCH  18  21
ENDBRANCH  17  18
ENDBRANCH   2  17
TORSDOF 4
