REMARK  4 active torsions:
REMARK  status: ('A' for Active; 'I' for Inactive)
REMARK    1  A    between atoms: C6_6  and  N2_12 
REMARK    2  A    between atoms: C7_7  and  C8_8 
REMARK       I    between atoms: C8_8  and  N1_10 
REMARK       I    between atoms: N2_12  and  C10_13 
REMARK    3  A    between atoms: C10_13  and  C11_15 
REMARK    4  A    between atoms: C15_19  and  N3_21 
ROOT
ATOM      1  C11 <0> d          -0.420  -4.908   3.657  0.00  0.00     0.034 A 
ATOM      2  C12 <0> d          -0.131  -4.245   4.851  0.00  0.00     0.017 A 
ATOM      3  C13 <0> d           0.071  -4.966   6.010  0.00  0.00     0.003 A 
ATOM      4  C14 <0> d          -0.011  -6.346   5.993  0.00  0.00     0.032 A 
ATOM      5  C15 <0> d          -0.297  -7.016   4.810  0.00  0.00     0.060 A 
ATOM      6  C16 <0> d          -0.508  -6.300   3.642  0.00  0.00     0.048 A 
ENDROOT
BRANCH   1   7
ATOM      7  C10 <0> d          -0.638  -4.138   2.414  0.00  0.00     0.256 C 
ATOM      8  N2  <0> d          -0.553  -2.793   2.432  0.00  0.00    -0.322 N 
ATOM      9  H13 <0> d          -0.305  -2.333   3.249  0.00  0.00     0.169 HD
ATOM     10  O2  <0> d          -0.894  -4.717   1.377  0.00  0.00    -0.267 OA
BRANCH   8  11
ATOM     11  C6  <0> d          -0.820  -2.064   1.277  0.00  0.00     0.051 A 
ATOM     12  C5  <0> d          -0.599  -2.629   0.028  0.00  0.00     0.030 A 
ATOM     13  C4  <0> d          -0.866  -1.903  -1.116  0.00  0.00     0.003 A 
ATOM     14  C3  <0> d          -1.354  -0.610  -1.029  0.00  0.00     0.008 A 
ATOM     15  C2  <0> d          -1.580  -0.033   0.203  0.00  0.00    -0.044 A 
ATOM     16  C1  <0> d          -2.111   1.375   0.290  0.00  0.00     0.049 C 
ATOM     17  C7  <0> d          -1.310  -0.752   1.369  0.00  0.00     0.064 A 
BRANCH  17  18
ATOM     18  C8  <0> d          -1.543  -0.138   2.690  0.00  0.00     0.254 C 
ATOM     19  O1  <0> d          -2.625  -0.257   3.233  0.00  0.00    -0.268 OA
ATOM     20  N1  <0> d          -0.558   0.555   3.294  0.00  0.00    -0.361 N 
ATOM     21  C9  <0> d          -0.790   1.165   4.606  0.00  0.00     0.149 C 
ATOM     22  H9  <0> d           0.305   0.650   2.861  0.00  0.00     0.162 HD
ENDBRANCH  17  18
ENDBRANCH   8  11
ENDBRANCH   1   7
BRANCH   5  23
ATOM     23  N3  <0> d          -0.378  -8.414   4.799  0.00  0.00    -0.221 N 
ATOM     24  N4  <0> d           0.317  -9.147   3.828  0.00  0.00    -0.260 N 
ATOM     25  C24 <0> d           0.659 -10.431   4.068  0.00  0.00     0.241 C 
ATOM     26  H24 <0> d           0.554  -8.730   2.984  0.00  0.00     0.190 HD
ATOM     27  C23 <0> d           0.225 -11.091   5.350  0.00  0.00     0.096 C 
ATOM     28  O4  <0> d           1.310 -11.051   3.254  0.00  0.00    -0.271 OA
ATOM     29  C18 <0> d          -1.161 -10.556   5.741  0.00  0.00     0.097 C 
ATOM     30  C22 <0> d           0.118 -12.604   5.172  0.00  0.00     0.042 C 
ATOM     31  C17 <0> d          -1.130  -9.052   5.720  0.00  0.00     0.248 C 
ATOM     32  C19 <0> d          -1.498 -11.061   7.146  0.00  0.00     0.042 C 
ATOM     33  O3  <0> d          -1.777  -8.416   6.525  0.00  0.00    -0.271 OA
ATOM     34  C20 <0> d          -1.275 -12.545   7.215  0.00  0.00    -0.030 C 
ATOM     35  C21 <0> d          -0.572 -13.215   6.359  0.00  0.00    -0.030 C 
ENDBRANCH   5  23
TORSDOF 4
