REMARK  5 active torsions:
REMARK  status: ('A' for Active; 'I' for Inactive)
REMARK    1  A    between atoms: C2_2  and  C3_3 
REMARK    2  A    between atoms: C2_2  and  N3_21 
REMARK    3  A    between atoms: C3_3  and  N1_4 
REMARK       I    between atoms: N1_4  and  C4_5 
REMARK    4  A    between atoms: C4_5  and  C5_7 
REMARK       I    between atoms: C5_7  and  N2_9 
REMARK    5  A    between atoms: N2_9  and  C6_10 
ROOT
ATOM      1  C5  <0> d          -2.380  -4.282  -0.647  0.00  0.00     0.314 C 
ATOM      2  O2  <0> d          -1.360  -4.769  -1.088  0.00  0.00    -0.262 OA
ATOM      3  N2  <0> d          -3.369  -5.081  -0.199  0.00  0.00    -0.314 N 
ATOM      4  H8  <0> d          -4.150  -4.694   0.227  0.00  0.00     0.169 HD
ENDROOT
BRANCH   1   5
ATOM      5  C4  <0> d          -2.540  -2.798  -0.600  0.00  0.00     0.309 C 
ATOM      6  N1  <0> d          -1.551  -1.999  -1.048  0.00  0.00    -0.351 N 
ATOM      7  H7  <0> d          -0.736  -2.388  -1.400  0.00  0.00     0.162 HD
ATOM      8  O1  <0> d          -3.561  -2.311  -0.159  0.00  0.00    -0.262 OA
BRANCH   6   9
ATOM      9  C3  <0> d          -1.708  -0.543  -1.002  0.00  0.00     0.155 C 
BRANCH   9  10
ATOM     10  C2  <0> d          -0.509   0.121  -1.682  0.00  0.00     0.202 C 
ATOM     11  C1  <0> d          -0.514  -0.224  -3.173  0.00  0.00     0.042 C 
BRANCH  10  12
ATOM     12  N3  <0> d          -0.597   1.578  -1.516  0.00  0.00    -0.066 N 
ATOM     13  C15 <0> d           0.514   2.240  -2.233  0.00  0.00     0.235 C 
ATOM     14  C14 <0> d           0.932   3.460  -1.390  0.00  0.00     0.029 C 
ATOM     15  C13 <0> d           0.014   3.424  -0.146  0.00  0.00     0.029 C 
ATOM     16  C12 <0> d          -0.430   1.941  -0.086  0.00  0.00     0.235 C 
ATOM     17  H17 <0> d          -1.484   1.915  -1.861  0.00  0.00     0.280 HD
ENDBRANCH  10  12
ENDBRANCH   9  10
ENDBRANCH   6   9
ENDBRANCH   1   5
BRANCH   3  18
ATOM     18  C6  <0> d          -3.270  -6.469  -0.349  0.00  0.00     0.119 A 
ATOM     19  C11 <0> d          -2.088  -7.122  -0.016  0.00  0.00     0.188 A 
ATOM     20  C10 <0> d          -1.994  -8.496  -0.161  0.00  0.00     0.199 A 
ATOM     21  F1  <0> d          -1.035  -6.418   0.453  0.00  0.00    -0.200 F 
ATOM     22  C9  <0> d          -3.072  -9.219  -0.647  0.00  0.00     0.199 A 
ATOM     23  F2  <0> d          -0.848  -9.132   0.168  0.00  0.00    -0.199 F 
ATOM     24  C8  <0> d          -4.249  -8.569  -0.984  0.00  0.00     0.199 A 
ATOM     25  F3  <0> d          -2.976 -10.559  -0.791  0.00  0.00    -0.199 F 
ATOM     26  C7  <0> d          -4.350  -7.196  -0.837  0.00  0.00     0.188 A 
ATOM     27  F4  <0> d          -5.298  -9.276  -1.458  0.00  0.00    -0.199 F 
ATOM     28  F5  <0> d          -5.497  -6.563  -1.165  0.00  0.00    -0.200 F 
ENDBRANCH   3  18
TORSDOF 5
