REMARK  5 active torsions:
REMARK  status: ('A' for Active; 'I' for Inactive)
REMARK    1  A    between atoms: C3_3  and  S2_6 
REMARK    2  A    between atoms: S2_6  and  N1_9 
REMARK    3  A    between atoms: N1_9  and  C5_10 
REMARK    4  A    between atoms: C8_13  and  C11_16 
REMARK    5  A    between atoms: C11_16  and  N2_25 
ROOT
ATOM      1  C5  <0> d          -1.926   2.554   3.552  0.00  0.00     0.042 A 
ATOM      2  C6  <0> d          -2.215   1.373   2.880  0.00  0.00     0.031 A 
ATOM      3  C7  <0> d          -1.479   1.015   1.769  0.00  0.00     0.011 A 
ATOM      4  C8  <0> d          -0.454   1.830   1.324  0.00  0.00    -0.032 A 
ATOM      5  C9  <0> d          -0.160   3.003   1.994  0.00  0.00     0.011 A 
ATOM      6  C10 <0> d          -0.896   3.371   3.103  0.00  0.00     0.031 A 
ENDROOT
BRANCH   1   7
ATOM      7  N1  <0> d          -2.670   2.920   4.676  0.00  0.00    -0.280 N 
ATOM      8  H4  <0> d          -3.333   3.625   4.611  0.00  0.00     0.179 HD
BRANCH   7   9
ATOM      9  S2  <0> d          -2.419   2.151   6.121  0.00  0.00     0.269 S 
ATOM     10  O1  <0> d          -3.280   2.770   7.066  0.00  0.00    -0.200 OA
ATOM     11  O2  <0> d          -2.462   0.756   5.851  0.00  0.00    -0.200 OA
BRANCH   9  12
ATOM     12  C3  <0> d          -0.771   2.515   6.627  0.00  0.00     0.120 A 
ATOM     13  C2  <0> d          -0.329   3.493   7.456  0.00  0.00     0.033 A 
ATOM     14  C1  <0> d           1.026   3.591   7.714  0.00  0.00     0.009 A 
ATOM     15  C4  <0> d           1.872   2.708   7.130  0.00  0.00     0.051 A 
ATOM     16  S1  <0> d           0.749   1.689   6.187  0.00  0.00    -0.088 SA
ENDBRANCH   9  12
ENDBRANCH   7   9
ENDBRANCH   1   7
BRANCH   4  17
ATOM     17  C11 <0> d           0.348   1.435   0.111  0.00  0.00     0.273 C 
BRANCH  17  18
ATOM     18  N2  <0> d          -0.285   2.025  -1.082  0.00  0.00    -0.066 N 
ATOM     19  C12 <0> d          -1.614   1.409  -1.302  0.00  0.00     0.250 C 
ATOM     20  C13 <0> d          -2.418   2.283  -2.270  0.00  0.00     0.168 C 
ATOM     21  S3  <0> d          -1.561   2.309  -3.874  0.00  0.00     0.147 S 
ATOM     22  O3  <0> d          -2.106   3.358  -4.662  0.00  0.00    -0.228 OA
ATOM     23  O4  <0> d          -1.536   0.989  -4.399  0.00  0.00    -0.228 OA
ATOM     24  C14 <0> d           0.129   2.770  -3.383  0.00  0.00     0.168 C 
ATOM     25  C15 <0> d           0.585   1.829  -2.263  0.00  0.00     0.250 C 
ATOM     26  H19 <0> d          -0.410   3.032  -0.929  0.00  0.00     0.280 HD
ENDBRANCH  17  18
ENDBRANCH   4  17
TORSDOF 5
