REMARK  4 active torsions:
REMARK  status: ('A' for Active; 'I' for Inactive)
REMARK    1  A    between atoms: C4_4  and  O5_25 
REMARK    2  A    between atoms: C5_5  and  O4_23 
REMARK    3  A    between atoms: C7_7  and  C8_8 
REMARK    4  A    between atoms: N2_15  and  C13_18 
ROOT
ATOM      1  C8  <0> d          -0.070   5.344   0.031  0.00  0.00     0.034 C 
ATOM      2  C9  <0> d          -0.064   4.047  -0.446  0.00  0.00     0.101 A 
ATOM      3  C10 <0> d           1.145   3.456  -1.053  0.00  0.00     0.265 A 
ATOM      4  O1  <0> d           2.173   4.098  -1.151  0.00  0.00    -0.267 OA
ATOM      5  N1  <0> d           1.077   2.183  -1.497  0.00  0.00    -0.274 N 
ATOM      6  C11 <0> d          -0.050   1.465  -1.395  0.00  0.00     0.332 A 
ATOM      7  O2  <0> d          -0.044   0.324  -1.815  0.00  0.00    -0.246 OA
ATOM      8  N2  <0> d          -1.184   1.938  -0.861  0.00  0.00    -0.261 N 
ATOM      9  C12 <0> d          -1.264   3.192  -0.371  0.00  0.00     0.267 A 
ATOM     10  O3  <0> d          -2.299   3.608   0.116  0.00  0.00    -0.267 OA
ATOM     11  H7  <0> d           1.862   1.779  -1.899  0.00  0.00     0.173 HD
ENDROOT
BRANCH   1  12
ATOM     12  C7  <0> d           1.182   6.092   0.135  0.00  0.00    -0.026 A 
ATOM     13  C2  <0> d           1.266   7.398  -0.369  0.00  0.00    -0.049 A 
ATOM     14  C1  <0> d           0.064   8.034  -1.019  0.00  0.00     0.049 C 
ATOM     15  C3  <0> d           2.445   8.100  -0.266  0.00  0.00     0.047 A 
ATOM     16  C4  <0> d           3.557   7.515   0.327  0.00  0.00     0.102 A 
ATOM     17  C5  <0> d           3.485   6.214   0.827  0.00  0.00     0.102 A 
ATOM     18  C6  <0> d           2.307   5.503   0.734  0.00  0.00     0.051 A 
BRANCH  16  19
ATOM     19  O5  <0> d           4.718   8.212   0.421  0.00  0.00    -0.353 OA
ATOM     20  C19 <0> d           4.724   9.538  -0.110  0.00  0.00     0.210 C 
ENDBRANCH  16  19
BRANCH  17  21
ATOM     21  O4  <0> d           4.577   5.646   1.406  0.00  0.00    -0.353 OA
ATOM     22  C18 <0> d           4.431   4.311   1.896  0.00  0.00     0.210 C 
ENDBRANCH  17  21
ENDBRANCH   1  12
BRANCH   8  23
ATOM     23  C13 <0> d          -2.364   1.070  -0.803  0.00  0.00     0.098 C 
ATOM     24  C17 <0> d          -2.760   0.625  -2.222  0.00  0.00     0.026 C 
ATOM     25  C16 <0> d          -2.661  -0.914  -2.244  0.00  0.00     0.002 C 
ATOM     26  C15 <0> d          -2.814  -1.327  -0.759  0.00  0.00     0.002 C 
ATOM     27  C14 <0> d          -2.037  -0.213  -0.012  0.00  0.00     0.026 C 
ENDBRANCH   8  23
TORSDOF 4
