REMARK  4 active torsions:
REMARK  status: ('A' for Active; 'I' for Inactive)
REMARK    1  A    between atoms: C6_6  and  N1_7 
REMARK       I    between atoms: N1_7  and  C7_8 
REMARK    2  A    between atoms: C7_8  and  C8_10 
REMARK    3  A    between atoms: C9_11  and  N4_25 
REMARK    4  A    between atoms: C13_15  and  C15_19 
ROOT
ATOM      1  C8  <0> d          -2.400  -2.782  -0.198  0.00  0.00     0.102 A 
ATOM      2  C9  <0> d          -2.583  -4.144  -0.309  0.00  0.00     0.061 A 
ATOM      3  C10 <0> d          -3.942  -4.654  -0.396  0.00  0.00     0.028 A 
ATOM      4  C11 <0> d          -4.375  -5.999  -0.515  0.00  0.00     0.019 A 
ATOM      5  C12 <0> d          -5.709  -6.265  -0.583  0.00  0.00     0.033 A 
ATOM      6  C13 <0> d          -6.641  -5.224  -0.536  0.00  0.00     0.068 A 
ATOM      7  N2  <0> d          -6.234  -3.967  -0.425  0.00  0.00    -0.240 NA
ATOM      8  C14 <0> d          -4.956  -3.668  -0.355  0.00  0.00     0.111 A 
ATOM      9  S1  <0> d          -4.063  -2.141  -0.199  0.00  0.00    -0.062 SA
ENDROOT
BRANCH   1  10
ATOM     10  C7  <0> d          -1.182  -2.064  -0.099  0.00  0.00     0.265 C 
ATOM     11  N1  <0> d          -1.199  -0.721   0.010  0.00  0.00    -0.322 N 
ATOM     12  H5  <0> d          -2.043  -0.252   0.098  0.00  0.00     0.169 HD
ATOM     13  O1  <0> d          -0.121  -2.661  -0.113  0.00  0.00    -0.267 OA
BRANCH  11  14
ATOM     14  C6  <0> d           0.002  -0.004  -0.004  0.00  0.00     0.035 A 
ATOM     15  C1  <0> d           1.072  -0.453  -0.767  0.00  0.00     0.031 A 
ATOM     16  C2  <0> d           2.256   0.258  -0.779  0.00  0.00     0.021 A 
ATOM     17  C3  <0> d           2.377   1.416  -0.032  0.00  0.00     0.011 A 
ATOM     18  C4  <0> d           1.312   1.866   0.730  0.00  0.00     0.021 A 
ATOM     19 Br1  <0> d           4.000   2.386  -0.050  0.00  0.00    -0.051 Br
ATOM     20  C5  <0> d           0.126   1.159   0.746  0.00  0.00     0.031 A 
ENDBRANCH  11  14
ENDBRANCH   1  10
BRANCH   2  21
ATOM     21  N4  <0> d          -1.496  -5.007  -0.338  0.00  0.00    -0.397 N 
ATOM     22  H12 <0> d          -0.594  -4.654  -0.279  0.00  0.00     0.156 HD
ATOM     23  H13 <0> d          -1.638  -5.963  -0.417  0.00  0.00     0.156 HD
ENDBRANCH   2  21
BRANCH   6  24
ATOM     24  C15 <0> d          -8.091  -5.527  -0.611  0.00  0.00    -0.005 A 
ATOM     25  C19 <0> d          -9.042  -4.504  -0.566  0.00  0.00     0.033 A 
ATOM     26  C18 <0> d         -10.381  -4.830  -0.644  0.00  0.00     0.117 A 
ATOM     27  N3  <0> d         -10.767  -6.087  -0.749  0.00  0.00    -0.273 NA
ATOM     28  C17 <0> d          -9.903  -7.082  -0.790  0.00  0.00     0.117 A 
ATOM     29  C16 <0> d          -8.545  -6.845  -0.723  0.00  0.00     0.033 A 
ENDBRANCH   6  24
TORSDOF 4
