REMARK  3 active torsions:
REMARK  status: ('A' for Active; 'I' for Inactive)
REMARK    1  A    between atoms: C7_10  and  C8_11 
REMARK       I    between atoms: C8_11  and  N3_13 
REMARK    2  A    between atoms: N3_13  and  C9_14 
REMARK    3  A    between atoms: C9_14  and  C10_15 
ROOT
ATOM      1  C1  <0> d           1.632   1.431  -0.722  0.00  0.00     0.050 C 
ATOM      2  C2  <0> d           1.502  -0.069  -0.663  0.00  0.00    -0.024 A 
ATOM      3  C3  <0> d           0.622  -0.734  -1.532  0.00  0.00     0.032 A 
ATOM      4  C4  <0> d          -0.230  -0.199  -2.530  0.00  0.00     0.046 A 
ATOM      5  N1  <0> d          -0.982  -1.011  -3.239  0.00  0.00    -0.238 NA
ATOM      6  C5  <0> d          -0.977  -2.321  -3.058  0.00  0.00     0.123 A 
ATOM      7  N2  <0> d          -0.208  -2.885  -2.147  0.00  0.00    -0.226 NA
ATOM      8  C6  <0> d           0.577  -2.146  -1.393  0.00  0.00     0.113 A 
ATOM      9  S1  <0> d           1.737  -2.465  -0.090  0.00  0.00    -0.063 SA
ATOM     10  C7  <0> d           2.241  -0.783   0.227  0.00  0.00     0.081 A 
ATOM     11  C11 <0> d          -1.868  -3.187  -3.911  0.00  0.00     0.093 C 
ATOM     12  C12 <0> d          -0.274   1.288  -2.775  0.00  0.00     0.071 C 
ENDROOT
BRANCH  10  13
ATOM     13  C8  <0> d           3.216  -0.290   1.211  0.00  0.00     0.259 C 
ATOM     14  O1  <0> d           3.442   0.902   1.298  0.00  0.00    -0.267 OA
ATOM     15  N3  <0> d           3.858  -1.158   2.018  0.00  0.00    -0.348 N 
ATOM     16  H4  <0> d           3.677  -2.109   1.948  0.00  0.00     0.163 HD
BRANCH  15  17
ATOM     17  C9  <0> d           4.829  -0.666   2.998  0.00  0.00     0.240 C 
BRANCH  17  18
ATOM     18  C10 <0> d           5.408  -1.848   3.779  0.00  0.00     0.403 C 
ATOM     19  F1  <0> d           6.043  -2.725   2.893  0.00  0.00    -0.169 F 
ATOM     20  F2  <0> d           6.335  -1.379   4.715  0.00  0.00    -0.169 F 
ATOM     21  F3  <0> d           4.375  -2.521   4.441  0.00  0.00    -0.169 F 
ENDBRANCH  17  18
ENDBRANCH  15  17
ENDBRANCH  10  13
TORSDOF 3
