REMARK  7 active torsions:
REMARK  status: ('A' for Active; 'I' for Inactive)
REMARK    1  A    between atoms: C2_2  and  C3_3 
REMARK    2  A    between atoms: C3_3  and  S1_4 
REMARK    3  A    between atoms: S1_4  and  C4_7 
REMARK    4  A    between atoms: C7_10  and  N1_13 
REMARK    5  A    between atoms: C12_17  and  C13_18 
REMARK    6  A    between atoms: C13_18  and  C14_19 
REMARK    7  A    between atoms: C14_19  and  N3_20 
ROOT
ATOM      1  C4  <0> d           0.858  -3.147  -3.470  0.00  0.00     0.059 A 
ATOM      2  C5  <0> d           0.395  -3.526  -4.716  0.00  0.00     0.026 A 
ATOM      3  C6  <0> d           1.288  -3.790  -5.736  0.00  0.00     0.031 A 
ATOM      4  C7  <0> d           2.653  -3.675  -5.508  0.00  0.00     0.040 A 
ATOM      5  C8  <0> d           3.115  -3.293  -4.256  0.00  0.00     0.031 A 
ATOM      6  C9  <0> d           2.216  -3.026  -3.242  0.00  0.00     0.026 A 
ENDROOT
BRANCH   4   7
ATOM      7  N1  <0> d           3.562  -3.942  -6.541  0.00  0.00    -0.309 N 
ATOM      8  C12 <0> d           4.586  -4.834  -6.505  0.00  0.00     0.112 A 
ATOM      9  N2  <0> d           5.206  -4.803  -7.653  0.00  0.00    -0.246 NA
ATOM     10  C11 <0> d           4.618  -3.899  -8.451  0.00  0.00     0.136 A 
ATOM     11  C10 <0> d           3.590  -3.349  -7.777  0.00  0.00     0.118 A 
BRANCH   8  12
ATOM     12  C13 <0> d           4.945  -5.714  -5.335  0.00  0.00     0.106 C 
BRANCH  12  13
ATOM     13  C14 <0> d           4.113  -6.997  -5.389  0.00  0.00     0.237 C 
BRANCH  13  14
ATOM     14  N3  <0> d           4.478  -7.865  -4.261  0.00  0.00    -0.079 N 
ATOM     15  H18 <0> d           5.459  -8.097  -4.319  0.00  0.00     0.274 HD
ATOM     16  H19 <0> d           4.297  -7.383  -3.393  0.00  0.00     0.274 HD
ATOM     17  H20 <0> d           3.930  -8.711  -4.296  0.00  0.00     0.274 HD
ENDBRANCH  13  14
ENDBRANCH  12  13
ENDBRANCH   8  12
ENDBRANCH   4   7
BRANCH   1  18
ATOM     18  S1  <0> d          -0.285  -2.811  -2.171  0.00  0.00     0.175 S 
ATOM     19  O1  <0> d           0.441  -3.059  -0.976  0.00  0.00    -0.223 OA
ATOM     20  O2  <0> d          -1.435  -3.581  -2.493  0.00  0.00    -0.223 OA
BRANCH  18  21
ATOM     21  C3  <0> d          -0.655  -1.042  -2.322  0.00  0.00     0.145 C 
BRANCH  21  22
ATOM     22  C2  <0> d          -1.649  -0.634  -1.233  0.00  0.00     0.011 C 
ATOM     23  C1  <0> d          -1.960   0.859  -1.360  0.00  0.00     0.006 C 
ENDBRANCH  21  22
ENDBRANCH  18  21
ENDBRANCH   1  18
TORSDOF 7
