REMARK  3 active torsions:
REMARK  status: ('A' for Active; 'I' for Inactive)
REMARK    1  A    between atoms: C2_2  and  C6_10 
REMARK       I    between atoms: C6_10  and  N2_12 
REMARK    2  A    between atoms: N2_12  and  C7_13 
REMARK    3  A    between atoms: C7_13  and  C8_14 
ROOT
ATOM      1  C6  <0> d           1.225   3.534   0.009  0.00  0.00     0.253 C 
ATOM      2  O2  <0> d           2.283   4.133   0.002  0.00  0.00    -0.268 OA
ATOM      3  N2  <0> d           0.063   4.217   0.023  0.00  0.00    -0.356 N 
ATOM      4  H5  <0> d          -0.781   3.739   0.029  0.00  0.00     0.162 HD
ENDROOT
BRANCH   1   5
ATOM      5  C2  <0> d           1.213   2.060   0.002  0.00  0.00     0.049 A 
ATOM      6  C1  <0> d          -0.016   1.356   0.009  0.00  0.00     0.048 A 
ATOM      7  C5  <0> d           0.002  -0.004   0.002  0.00  0.00     0.102 A 
ATOM      8  C4  <0> d           1.238  -0.680  -0.013  0.00  0.00     0.267 A 
ATOM      9 Cl1  <0> d          -1.485  -0.899   0.012  0.00  0.00    -0.078 Cl
ATOM     10  N1  <0> d           2.393   0.009  -0.021  0.00  0.00    -0.331 N 
ATOM     11  O1  <0> d           1.260  -1.900  -0.020  0.00  0.00    -0.266 OA
ATOM     12  C3  <0> d           2.399   1.355  -0.014  0.00  0.00     0.108 A 
ATOM     13  H1  <0> d           3.236  -0.472  -0.031  0.00  0.00     0.168 HD
ENDBRANCH   1   5
BRANCH   3  14
ATOM     14  C7  <0> d           0.075   5.682   0.030  0.00  0.00     0.128 C 
BRANCH  14  15
ATOM     15  C8  <0> d          -1.363   6.204   0.046  0.00  0.00     0.007 C 
ATOM     16  C13 <0> d          -2.063   5.822  -1.260  0.00  0.00     0.033 C 
ATOM     17  C12 <0> d          -3.372   6.551  -1.375  0.00  0.00    -0.030 C 
ATOM     18  C11 <0> d          -3.690   7.590  -0.672  0.00  0.00    -0.031 C 
ATOM     19  C10 <0> d          -2.797   8.210   0.362  0.00  0.00     0.027 C 
ATOM     20  C9  <0> d          -1.356   7.733   0.170  0.00  0.00     0.010 C 
ENDBRANCH  14  15
ENDBRANCH   3  14
TORSDOF 3
