REMARK  6 active torsions:
REMARK  status: ('A' for Active; 'I' for Inactive)
REMARK    1  A    between atoms: C2_2  and  N1_3 
REMARK    2  A    between atoms: N1_3  and  C4_5 
REMARK    3  A    between atoms: C4_5  and  C5_6 
REMARK    4  A    between atoms: C9_10  and  C11_12 
REMARK    5  A    between atoms: C11_12  and  N2_13 
REMARK       I    between atoms: N2_13  and  C12_14 
REMARK    6  A    between atoms: C12_14  and  C13_16 
ROOT
ATOM      1  N2  <0> d          -6.311  -2.477  -2.451  0.00  0.00    -0.353 N 
ATOM      2  C12 <0> d          -7.091  -2.566  -3.546  0.00  0.00     0.252 C 
ATOM      3  O1  <0> d          -7.186  -3.621  -4.142  0.00  0.00    -0.268 OA
ATOM      4  H19 <0> d          -6.236  -1.635  -1.976  0.00  0.00     0.163 HD
ENDROOT
BRANCH   2   5
ATOM      5  C13 <0> d          -7.831  -1.380  -4.024  0.00  0.00     0.034 A 
ATOM      6  C18 <0> d          -8.638  -1.470  -5.157  0.00  0.00     0.049 A 
ATOM      7  C17 <0> d          -9.337  -0.357  -5.600  0.00  0.00     0.063 A 
ATOM      8  C16 <0> d          -9.219   0.856  -4.915  0.00  0.00     0.062 A 
ATOM      9  N3  <0> d         -10.146  -0.458  -6.729  0.00  0.00    -0.317 N 
ATOM     10  C15 <0> d          -8.406   0.942  -3.786  0.00  0.00     0.033 A 
ATOM     11  N4  <0> d          -9.908   1.981  -5.349  0.00  0.00    -0.317 N 
ATOM     12  C14 <0> d          -7.718  -0.163  -3.343  0.00  0.00     0.019 A 
ATOM     13  C20 <0> d         -10.698   1.914  -6.439  0.00  0.00     0.314 A 
ATOM     14  H2  <0> d          -9.819   2.818  -4.866  0.00  0.00     0.169 HD
ATOM     15  C19 <0> d         -10.825   0.620  -7.171  0.00  0.00     0.314 A 
ATOM     16  O3  <0> d         -11.301   2.896  -6.821  0.00  0.00    -0.262 OA
ATOM     17  O2  <0> d         -11.534   0.539  -8.155  0.00  0.00    -0.262 OA
ATOM     18  H1  <0> d         -10.222  -1.304  -7.197  0.00  0.00     0.169 HD
ENDBRANCH   2   5
BRANCH   1  19
ATOM     19  C11 <0> d          -5.578  -3.653  -1.977  0.00  0.00     0.161 C 
BRANCH  19  20
ATOM     20  C9  <0> d          -4.787  -3.291  -0.746  0.00  0.00    -0.040 A 
ATOM     21  C8  <0> d          -5.356  -3.428   0.506  0.00  0.00     0.009 A 
ATOM     22  C7  <0> d          -4.631  -3.096   1.635  0.00  0.00     0.001 A 
ATOM     23  C6  <0> d          -3.337  -2.626   1.512  0.00  0.00     0.009 A 
ATOM     24  C5  <0> d          -2.768  -2.489   0.259  0.00  0.00    -0.032 A 
ATOM     25  C10 <0> d          -3.494  -2.817  -0.870  0.00  0.00     0.017 A 
BRANCH  24  26
ATOM     26  C4  <0> d          -1.357  -1.977   0.125  0.00  0.00     0.273 C 
BRANCH  26  27
ATOM     27  N1  <0> d          -1.376  -0.512   0.012  0.00  0.00    -0.071 N 
ATOM     28  C3  <0> d          -2.050  -0.126  -1.234  0.00  0.00     0.270 C 
ATOM     29  H23 <0> d          -1.873  -0.121   0.799  0.00  0.00     0.279 HD
BRANCH  27  30
ATOM     30  C2  <0> d           0.002  -0.004   0.002  0.00  0.00     0.230 C 
ATOM     31  C1  <0> d          -0.019   1.526   0.010  0.00  0.00     0.034 C 
ENDBRANCH  27  30
ENDBRANCH  26  27
ENDBRANCH  24  26
ENDBRANCH  19  20
ENDBRANCH   1  19
TORSDOF 6
