REMARK  3 active torsions:
REMARK  status: ('A' for Active; 'I' for Inactive)
REMARK    1  A    between atoms: O1_2  and  C2_3 
REMARK    2  A    between atoms: C6_7  and  C8_10 
REMARK    3  A    between atoms: C7_8  and  O2_9 
ROOT
ATOM      1  C8  <0> d           1.246  -2.188  -0.028  0.00  0.00     0.101 C 
ATOM      2  C9  <0> d           1.314  -2.692  -1.455  0.00  0.00     0.024 C 
ATOM      3  C10 <0> d           2.563  -2.356  -2.278  0.00  0.00     0.034 C 
ATOM      4  C11 <0> d           2.634  -3.554  -3.228  0.00  0.00    -0.029 C 
ATOM      5  C12 <0> d           2.046  -4.608  -2.672  0.00  0.00    -0.021 C 
ATOM      6  C13 <0> d           1.574  -4.225  -1.318  0.00  0.00     0.050 C 
ATOM      7  C14 <0> d           0.363  -4.808  -0.701  0.00  0.00    -0.004 A 
ATOM      8  C15 <0> d          -0.345  -4.024   0.213  0.00  0.00     0.039 A 
ATOM      9  C16 <0> d          -1.476  -4.571   0.822  0.00  0.00     0.057 A 
ATOM     10  C17 <0> d          -1.892  -5.851   0.520  0.00  0.00     0.051 A 
ATOM     11  C18 <0> d          -1.189  -6.613  -0.396  0.00  0.00     0.058 A 
ATOM     12  C19 <0> d          -0.062  -6.086  -1.003  0.00  0.00     0.064 A 
ATOM     13 Cl1  <0> d           0.822  -7.039  -2.153  0.00  0.00    -0.082 Cl
ATOM     14 Cl2  <0> d          -1.716  -8.222  -0.780  0.00  0.00    -0.082 Cl
ATOM     15 Cl3  <0> d          -2.372  -3.629   1.972  0.00  0.00    -0.082 Cl
ATOM     16  N1  <0> d           0.005  -2.719   0.559  0.00  0.00    -0.282 NA
ATOM     17  H16 <0> d          -0.766  -2.085   0.407  0.00  0.00     0.128 HD
ENDROOT
BRANCH   1  18
ATOM     18  C6  <0> d           1.218  -0.682  -0.016  0.00  0.00    -0.004 A 
ATOM     19  C5  <0> d           0.947   0.014  -1.180  0.00  0.00     0.012 A 
ATOM     20  C4  <0> d           0.921   1.396  -1.172  0.00  0.00     0.003 A 
ATOM     21  C3  <0> d           1.165   2.089  -0.001  0.00  0.00     0.039 A 
ATOM     22  C2  <0> d           1.437   1.398   1.169  0.00  0.00     0.101 A 
ATOM     23  C7  <0> d           1.464   0.006   1.161  0.00  0.00     0.106 A 
BRANCH  22  24
ATOM     24  O1  <0> d           1.677   2.078   2.321  0.00  0.00    -0.353 OA
ATOM     25  C1  <0> d           1.634   3.505   2.254  0.00  0.00     0.210 C 
ENDBRANCH  22  24
BRANCH  23  26
ATOM     26  O2  <0> d           1.730  -0.676   2.307  0.00  0.00    -0.357 OA
ATOM     27  H10 <0> d           2.673  -0.797   2.483  0.00  0.00     0.217 HD
ENDBRANCH  23  26
ENDBRANCH   1  18
TORSDOF 3
