REMARK  3 active torsions:
REMARK  status: ('A' for Active; 'I' for Inactive)
REMARK    1  A    between atoms: O1_2  and  C2_3 
REMARK    2  A    between atoms: C4_5  and  C6_8 
REMARK    3  A    between atoms: C7_11  and  C9_14 
ROOT
ATOM      1  C6  <0> d           1.047  -4.258  -1.665  0.00  0.00     0.135 A 
ATOM      2  N2  <0> d           1.186  -5.222  -2.611  0.00  0.00    -0.340 N 
ATOM      3  H3  <0> d           1.461  -5.091  -3.532  0.00  0.00     0.167 HD
ATOM      4  C7  <0> d           0.862  -6.421  -2.014  0.00  0.00     0.068 A 
ATOM      5  C8  <0> d           0.538  -6.134  -0.722  0.00  0.00     0.149 A 
ATOM      6  N3  <0> d           0.667  -4.814  -0.546  0.00  0.00    -0.243 NA
ENDROOT
BRANCH   1   7
ATOM      7  C4  <0> d           1.297  -2.786  -1.870  0.00  0.00     0.257 C 
ATOM      8  C3  <0> d           0.052  -1.958  -1.463  0.00  0.00     0.074 C 
ATOM      9  C2  <0> d           0.652  -0.570  -1.138  0.00  0.00     0.148 C 
ATOM     10  C5  <0> d           2.138  -0.834  -0.830  0.00  0.00     0.265 C 
ATOM     11  N1  <0> d           2.350  -2.295  -0.945  0.00  0.00    -0.061 N 
ATOM     12  H9  <0> d           2.251  -2.733  -0.041  0.00  0.00     0.278 HD
ATOM     13  H15 <0> d           3.264  -2.484  -1.326  0.00  0.00     0.278 HD
BRANCH   9  14
ATOM     14  O1  <0> d           0.002  -0.004   0.002  0.00  0.00    -0.389 OA
ATOM     15  C1  <0> d          -0.017   1.425   0.010  0.00  0.00     0.202 C 
ENDBRANCH   9  14
ENDBRANCH   1   7
BRANCH   4  16
ATOM     16  C9  <0> d           0.866  -7.750  -2.648  0.00  0.00     0.034 A 
ATOM     17  S1  <0> d           1.276  -8.195  -4.328  0.00  0.00    -0.076 SA
ATOM     18  C12 <0> d           1.011  -9.955  -4.197  0.00  0.00     0.075 A 
ATOM     19  C11 <0> d           0.625 -10.089  -2.901  0.00  0.00     0.033 A 
ATOM     20 Cl1  <0> d           1.192 -11.180  -5.414  0.00  0.00    -0.076 Cl
ATOM     21  C10 <0> d           0.548  -8.968  -2.104  0.00  0.00     0.023 A 
ENDBRANCH   4  16
TORSDOF 3
