REMARK  5 active torsions:
REMARK  status: ('A' for Active; 'I' for Inactive)
REMARK    1  A    between atoms: C2_2  and  N1_3 
REMARK    2  A    between atoms: C3_4  and  C5_9 
REMARK    3  A    between atoms: C5_9  and  N4_10 
REMARK       I    between atoms: N4_10  and  C6_11 
REMARK    4  A    between atoms: C6_11  and  C7_13 
REMARK    5  A    between atoms: C9_15  and  C11_18 
ROOT
ATOM      1  N4  <0> d          -2.731  -1.025   3.468  0.00  0.00    -0.349 N 
ATOM      2  C6  <0> d          -2.543  -0.961   4.801  0.00  0.00     0.258 C 
ATOM      3  O1  <0> d          -1.480  -0.571   5.247  0.00  0.00    -0.267 OA
ATOM      4  H9  <0> d          -3.578  -1.336   3.112  0.00  0.00     0.163 HD
ENDROOT
BRANCH   1   5
ATOM      5  C5  <0> d          -1.656  -0.625   2.556  0.00  0.00     0.203 C 
BRANCH   5   6
ATOM      6  C3  <0> d          -2.118  -0.790   1.131  0.00  0.00     0.146 A 
ATOM      7  N1  <0> d          -1.372  -0.511   0.012  0.00  0.00    -0.308 N 
ATOM      8  C4  <0> d          -2.123  -0.778  -1.075  0.00  0.00     0.196 A 
ATOM      9  N3  <0> d          -3.319  -1.227  -0.639  0.00  0.00    -0.251 N 
ATOM     10  S1  <0> d          -1.646  -0.587  -2.708  0.00  0.00    -0.039 SA
ATOM     11  N2  <0> d          -3.282  -1.218   0.762  0.00  0.00    -0.157 NA
ATOM     12  H6  <0> d          -4.067  -1.501  -1.193  0.00  0.00     0.191 HD
BRANCH   7  13
ATOM     13  C2  <0> d           0.002  -0.004   0.002  0.00  0.00     0.128 C 
ATOM     14  C1  <0> d          -0.019   1.526   0.010  0.00  0.00     0.027 C 
ENDBRANCH   7  13
ENDBRANCH   5   6
ENDBRANCH   1   5
BRANCH   2  15
ATOM     15  C7  <0> d          -3.620  -1.362   5.714  0.00  0.00     0.073 A 
ATOM     16  S2  <0> d          -5.250  -1.960   5.318  0.00  0.00    -0.096 SA
ATOM     17  C10 <0> d          -5.846  -2.190   6.871  0.00  0.00     0.065 A 
ATOM     18  C9  <0> d          -4.797  -1.799   7.691  0.00  0.00     0.017 A 
ATOM     19  C8  <0> d          -3.625  -1.363   7.081  0.00  0.00     0.040 A 
BRANCH  18  20
ATOM     20  C11 <0> d          -4.920  -1.844   9.151  0.00  0.00     0.156 C 
ATOM     21  O2  <0> d          -3.990  -1.498   9.849  0.00  0.00    -0.293 OA
ATOM     22  C12 <0> d          -6.201  -2.321   9.785  0.00  0.00     0.097 C 
ENDBRANCH  18  20
ENDBRANCH   2  15
TORSDOF 5
