REMARK  8 active torsions:
REMARK  status: ('A' for Active; 'I' for Inactive)
REMARK    1  A    between atoms: C2_2  and  C3_3 
REMARK    2  A    between atoms: C2_2  and  N2_22 
REMARK    3  A    between atoms: C3_3  and  O2_5 
REMARK    4  A    between atoms: O2_5  and  C4_6 
REMARK    5  A    between atoms: C4_6  and  C5_7 
REMARK       I    between atoms: C5_7  and  N1_9 
REMARK    6  A    between atoms: N1_9  and  C6_10 
REMARK    7  A    between atoms: C11_15  and  C12_16 
REMARK    8  A    between atoms: N2_22  and  C18_23 
ROOT
ATOM      1  O2  <0> d          -2.257  -0.196  -0.976  0.00  0.00    -0.310 OA
ENDROOT
BRANCH   1   2
ATOM      2  C3  <0> d          -1.419  -0.506   0.026  0.00  0.00     0.281 C 
ATOM      3  O1  <0> d          -1.799  -1.204   0.936  0.00  0.00    -0.263 OA
BRANCH   2   4
ATOM      4  C2  <0> d          -0.006   0.017   0.016  0.00  0.00     0.179 C 
ATOM      5  C1  <0> d          -0.028   1.546   0.013  0.00  0.00     0.043 C 
BRANCH   4   6
ATOM      6  N2  <0> d           0.699  -0.460   1.209  0.00  0.00    -0.360 N 
ATOM      7  H17 <0> d           0.199  -0.696   2.006  0.00  0.00     0.162 HD
BRANCH   6   8
ATOM      8  C18 <0> d           2.072  -0.572   1.199  0.00  0.00     0.149 A 
ATOM      9  C20 <0> d           2.788  -1.049   2.392  0.00  0.00     0.034 A 
ATOM     10  C19 <0> d           4.175  -1.099   2.191  0.00  0.00     0.095 A 
ATOM     11  C21 <0> d           2.303  -1.447   3.647  0.00  0.00     0.017 A 
ATOM     12  S1  <0> d           4.354  -0.523   0.524  0.00  0.00     0.286 S 
ATOM     13  C24 <0> d           5.036  -1.517   3.163  0.00  0.00     0.026 A 
ATOM     14  N3  <0> d           2.747  -0.253   0.141  0.00  0.00    -0.141 NA
ATOM     15  O4  <0> d           4.809  -1.614  -0.264  0.00  0.00    -0.198 OA
ATOM     16  O5  <0> d           5.007   0.738   0.569  0.00  0.00    -0.198 OA
ATOM     17  C23 <0> d           4.539  -1.898   4.402  0.00  0.00     0.002 A 
ATOM     18  C22 <0> d           3.175  -1.863   4.628  0.00  0.00     0.001 A 
ENDBRANCH   6   8
ENDBRANCH   4   6
ENDBRANCH   2   4
ENDBRANCH   1   2
BRANCH   1  19
ATOM     19  C4  <0> d          -3.582  -0.725  -0.902  0.00  0.00     0.281 C 
BRANCH  19  20
ATOM     20  C5  <0> d          -4.371  -0.274  -2.104  0.00  0.00     0.246 C 
ATOM     21  O3  <0> d          -3.850   0.431  -2.942  0.00  0.00    -0.271 OA
ATOM     22  N1  <0> d          -5.656  -0.655  -2.248  0.00  0.00    -0.325 N 
ATOM     23  H7  <0> d          -6.049  -1.283  -1.622  0.00  0.00     0.169 HD
BRANCH  22  24
ATOM     24  C6  <0> d          -6.422  -0.145  -3.300  0.00  0.00     0.045 A 
ATOM     25  C11 <0> d          -7.517  -0.868  -3.787  0.00  0.00     0.001 A 
ATOM     26  C10 <0> d          -8.277  -0.349  -4.832  0.00  0.00     0.014 A 
ATOM     27  C9  <0> d          -7.942   0.869  -5.388  0.00  0.00     0.001 A 
ATOM     28  C8  <0> d          -6.855   1.580  -4.909  0.00  0.00     0.002 A 
ATOM     29  C7  <0> d          -6.097   1.077  -3.870  0.00  0.00     0.030 A 
BRANCH  25  30
ATOM     30  C12 <0> d          -7.869  -2.179  -3.189  0.00  0.00    -0.024 A 
ATOM     31  C17 <0> d          -9.180  -2.437  -2.793  0.00  0.00     0.012 A 
ATOM     32  C16 <0> d          -9.503  -3.661  -2.242  0.00  0.00     0.001 A 
ATOM     33  C15 <0> d          -8.527  -4.625  -2.072  0.00  0.00     0.000 A 
ATOM     34  C14 <0> d          -7.223  -4.373  -2.458  0.00  0.00     0.001 A 
ATOM     35  C13 <0> d          -6.889  -3.155  -3.016  0.00  0.00     0.012 A 
ENDBRANCH  25  30
ENDBRANCH  22  24
ENDBRANCH  19  20
ENDBRANCH   1  19
TORSDOF 8
