REMARK  5 active torsions:
REMARK  status: ('A' for Active; 'I' for Inactive)
REMARK    1  A    between atoms: C6_6  and  C7_7 
REMARK    2  A    between atoms: C10_10  and  C11_12 
REMARK    3  A    between atoms: C11_12  and  C12_13 
REMARK    4  A    between atoms: C11_12  and  N1_17 
REMARK    5  A    between atoms: C12_13  and  C13_14 
ROOT
ATOM      1  C7  <0> d          -1.266  -0.763   0.011  0.00  0.00     0.086 A 
ATOM      2  C8  <0> d          -1.385  -2.118   0.010  0.00  0.00     0.040 A 
ATOM      3  C9  <0> d          -2.765  -2.404   0.020  0.00  0.00     0.038 A 
ATOM      4  C10 <0> d          -3.413  -1.222   0.027  0.00  0.00     0.084 A 
ATOM      5  O1  <0> d          -2.504  -0.233   0.026  0.00  0.00    -0.312 OA
ENDROOT
BRANCH   4   6
ATOM      6  C11 <0> d          -4.909  -1.041   0.038  0.00  0.00     0.250 C 
BRANCH   6   7
ATOM      7  C12 <0> d          -5.375  -0.733   1.462  0.00  0.00     0.152 C 
BRANCH   7   8
ATOM      8  C13 <0> d          -6.880  -0.673   1.496  0.00  0.00     0.174 C 
ATOM      9  O2  <0> d          -7.521  -0.859   0.476  0.00  0.00    -0.648 OA
ATOM     10  O3  <0> d          -7.457  -0.438   2.544  0.00  0.00    -0.648 OA
ENDBRANCH   7   8
ENDBRANCH   6   7
BRANCH   6  11
ATOM     11  N1  <0> d          -5.274   0.072  -0.848  0.00  0.00    -0.069 N 
ATOM     12  H9  <0> d          -4.830   0.919  -0.525  0.00  0.00     0.275 HD
ATOM     13  H10 <0> d          -4.966  -0.131  -1.788  0.00  0.00     0.275 HD
ATOM     14  H11 <0> d          -6.275   0.194  -0.841  0.00  0.00     0.275 HD
ENDBRANCH   6  11
ENDBRANCH   4   6
BRANCH   1  15
ATOM     15  C6  <0> d           0.002  -0.004   0.002  0.00  0.00    -0.001 A 
ATOM     16  C1  <0> d          -0.017   1.391   0.010  0.00  0.00     0.016 A 
ATOM     17  C2  <0> d           1.170   2.095   0.002  0.00  0.00     0.026 A 
ATOM     18  C3  <0> d           2.378   1.420  -0.013  0.00  0.00     0.055 A 
ATOM     19  C4  <0> d           2.404   0.035  -0.021  0.00  0.00     0.056 A 
ATOM     20 Cl2  <0> d           3.867   2.313  -0.022  0.00  0.00    -0.083 Cl
ATOM     21  C5  <0> d           1.223  -0.680  -0.014  0.00  0.00     0.040 A 
ATOM     22 Cl1  <0> d           3.924  -0.804  -0.041  0.00  0.00    -0.083 Cl
ENDBRANCH   1  15
TORSDOF 5
