REMARK  3 active torsions:
REMARK  status: ('A' for Active; 'I' for Inactive)
REMARK    1  A    between atoms: N1_2  and  C2_3 
REMARK    2  A    between atoms: C6_7  and  C7_9 
REMARK       I    between atoms: C7_9  and  N3_11 
REMARK    3  A    between atoms: N3_11  and  C9_13 
ROOT
ATOM      1  C7  <0> d          -2.182  -4.267   0.236  0.00  0.00     0.274 C 
ATOM      2  O1  <0> d          -3.195  -4.937   0.292  0.00  0.00    -0.266 OA
ATOM      3  N3  <0> d          -1.010  -4.844  -0.098  0.00  0.00    -0.345 N 
ATOM      4  C8  <0> d           0.221  -4.050  -0.107  0.00  0.00     0.153 C 
ENDROOT
BRANCH   1   5
ATOM      5  C6  <0> d          -2.235  -2.818   0.535  0.00  0.00     0.148 A 
ATOM      6  C5  <0> d          -3.466  -2.203   0.751  0.00  0.00     0.068 A 
ATOM      7  C4  <0> d          -3.504  -0.843   1.031  0.00  0.00     0.030 A 
ATOM      8 Cl1  <0> d          -4.934  -3.125   0.672  0.00  0.00    -0.082 Cl
ATOM      9  C3  <0> d          -2.312  -0.145   1.086  0.00  0.00     0.052 A 
ATOM     10  C2  <0> d          -1.113  -0.823   0.859  0.00  0.00     0.123 A 
ATOM     11  N2  <0> d          -1.109  -2.115   0.590  0.00  0.00    -0.224 NA
BRANCH  10  12
ATOM     12  N1  <0> d           0.090  -0.128   0.912  0.00  0.00    -0.379 N 
ATOM     13  C1  <0> d           0.095   1.306   1.211  0.00  0.00     0.147 C 
ATOM     14  H5  <0> d           0.926  -0.593   0.752  0.00  0.00     0.160 HD
ENDBRANCH  10  12
ENDBRANCH   1   5
BRANCH   3  15
ATOM     15  C9  <0> d          -0.968  -6.265  -0.453  0.00  0.00     0.101 C 
ATOM     16  C12 <0> d          -0.051  -7.016   0.542  0.00  0.00     0.165 C 
ATOM     17  S1  <0> d           0.658  -8.357  -0.495  0.00  0.00     0.146 S 
ATOM     18  C11 <0> d          -0.096  -7.920  -2.119  0.00  0.00     0.142 C 
ATOM     19  O2  <0> d           2.066  -8.182  -0.577  0.00  0.00    -0.228 OA
ATOM     20  O3  <0> d           0.133  -9.605  -0.063  0.00  0.00    -0.228 OA
ATOM     21  C10 <0> d          -0.424  -6.418  -1.883  0.00  0.00     0.041 C 
ENDBRANCH   3  15
TORSDOF 3
