REMARK  4 active torsions:
REMARK  status: ('A' for Active; 'I' for Inactive)
REMARK    1  A    between atoms: N1_5  and  C5_7 
REMARK    2  A    between atoms: C5_7  and  C6_8 
REMARK    3  A    between atoms: C6_8  and  C7_9 
REMARK    4  A    between atoms: C6_8  and  N3_12 
ROOT
ATOM      1  C5  <0> d           0.053  -3.295   1.486  0.00  0.00     0.195 C 
ENDROOT
BRANCH   1   2
ATOM      2  N1  <0> d           0.034  -2.109   0.625  0.00  0.00    -0.270 N 
ATOM      3  C4  <0> d           0.027  -2.108  -0.725  0.00  0.00     0.046 A 
ATOM      4  C3  <0> d           0.008  -0.818  -1.136  0.00  0.00     0.060 A 
ATOM      5  C9  <0> d           0.039  -3.324  -1.615  0.00  0.00     0.071 C 
ATOM      6  C2  <0> d           0.002  -0.004   0.002  0.00  0.00     0.070 A 
ATOM      7 Br1  <0> d          -0.009  -0.222  -2.930  0.00  0.00    -0.047 Br
ATOM      8  C1  <0> d          -0.018   1.503   0.010  0.00  0.00     0.074 C 
ATOM      9  N2  <0> d           0.023  -0.777   1.058  0.00  0.00    -0.176 NA
ENDBRANCH   1   2
BRANCH   1  10
ATOM     10  C6  <0> d           1.503  -3.688   1.779  0.00  0.00     0.304 C 
BRANCH  10  11
ATOM     11  C7  <0> d           1.526  -4.976   2.561  0.00  0.00     0.206 C 
ATOM     12  O1  <0> d           1.206  -6.022   2.022  0.00  0.00    -0.646 OA
ATOM     13  O2  <0> d           1.864  -4.972   3.732  0.00  0.00    -0.646 OA
ENDBRANCH  10  11
BRANCH  10  14
ATOM     14  N3  <0> d           2.149  -2.627   2.563  0.00  0.00    -0.063 N 
ATOM     15  C8  <0> d           3.571  -2.948   2.743  0.00  0.00     0.268 C 
ATOM     16  H7  <0> d           2.061  -1.748   2.076  0.00  0.00     0.277 HD
ATOM     17  H14 <0> d           1.703  -2.558   3.466  0.00  0.00     0.277 HD
ENDBRANCH  10  14
ENDBRANCH   1  10
TORSDOF 4
