REMARK  4 active torsions:
REMARK  status: ('A' for Active; 'I' for Inactive)
REMARK    1  A    between atoms: C5_5  and  C8_8 
REMARK    2  A    between atoms: C11_11  and  O1_15 
REMARK    3  A    between atoms: C11_11  and  O2_17 
REMARK    4  A    between atoms: C12_13  and  N2_14 
ROOT
ATOM      1  C8  <0> d           0.238  -4.465  -0.242  0.00  0.00     0.083 A 
ATOM      2  C9  <0> d           0.425  -4.979   1.186  0.00  0.00     0.144 A 
ATOM      3  C10 <0> d          -0.971  -4.990   0.535  0.00  0.00     0.164 A 
ATOM      4  C11 <0> d          -1.303  -6.490   0.444  0.00  0.00     0.273 A 
ATOM      5  N1  <0> d          -0.158  -7.209   1.000  0.00  0.00    -0.322 N 
ATOM      6  C12 <0> d           0.775  -6.430   1.403  0.00  0.00     0.101 A 
ATOM      7  C15 <0> d          -2.040  -4.063   0.940  0.00  0.00     0.080 C 
ATOM      8  N3  <0> d          -2.865  -3.347   1.252  0.00  0.00    -0.196 NA
ATOM      9  C16 <0> d           0.785  -4.029   2.252  0.00  0.00     0.080 C 
ATOM     10  N4  <0> d           1.062  -3.296   3.074  0.00  0.00    -0.196 NA
ATOM     11  H17 <0> d          -0.110  -8.176   1.058  0.00  0.00     0.166 HD
ENDROOT
BRANCH   1  12
ATOM     12  C5  <0> d           0.330  -2.978  -0.463  0.00  0.00    -0.050 A 
ATOM     13  C4  <0> d           1.281  -2.236   0.212  0.00  0.00     0.008 A 
ATOM     14  C3  <0> d           1.366  -0.872   0.009  0.00  0.00     0.007 A 
ATOM     15  C2  <0> d           0.500  -0.248  -0.869  0.00  0.00    -0.062 A 
ATOM     16  C1  <0> d           0.593   1.240  -1.091  0.00  0.00     0.048 C 
ATOM     17  C7  <0> d          -0.455  -0.989  -1.541  0.00  0.00     0.007 A 
ATOM     18  C6  <0> d          -0.537  -2.354  -1.341  0.00  0.00     0.008 A 
ENDBRANCH   1  12
BRANCH   4  19
ATOM     19  O1  <0> d          -2.478  -6.779   1.205  0.00  0.00    -0.342 OA
ATOM     20  C13 <0> d          -2.868  -8.153   1.173  0.00  0.00     0.207 C 
ENDBRANCH   4  19
BRANCH   4  21
ATOM     21  O2  <0> d          -1.500  -6.865  -0.921  0.00  0.00    -0.342 OA
ATOM     22  C14 <0> d          -2.636  -6.253  -1.534  0.00  0.00     0.207 C 
ENDBRANCH   4  21
BRANCH   6  23
ATOM     23  N2  <0> d           1.949  -6.861   1.961  0.00  0.00    -0.387 N 
ATOM     24  H9  <0> d           2.617  -6.218   2.245  0.00  0.00     0.157 HD
ATOM     25  H10 <0> d           2.113  -7.811   2.072  0.00  0.00     0.157 HD
ENDBRANCH   6  23
TORSDOF 4
