REMARK  7 active torsions:
REMARK  status: ('A' for Active; 'I' for Inactive)
REMARK    1  A    between atoms: C2_2  and  C3_3 
REMARK    2  A    between atoms: C2_2  and  O2_9 
REMARK       I    between atoms: C3_3  and  N1_5 
REMARK    3  A    between atoms: N1_5  and  C4_6 
REMARK    4  A    between atoms: O2_9  and  C7_10 
REMARK    5  A    between atoms: C8_11  and  C13_17 
REMARK    6  A    between atoms: C13_17  and  C14_18 
REMARK    7  A    between atoms: C14_18  and  N2_19 
ROOT
ATOM      1  C7  <0> d          -1.834  -0.796   1.148  0.00  0.00     0.093 A 
ATOM      2  C8  <0> d          -1.629  -2.035   1.737  0.00  0.00    -0.022 A 
ATOM      3  C9  <0> d          -2.191  -2.316   2.967  0.00  0.00     0.010 A 
ATOM      4  C10 <0> d          -2.959  -1.363   3.611  0.00  0.00     0.002 A 
ATOM      5  C11 <0> d          -3.166  -0.128   3.027  0.00  0.00     0.022 A 
ATOM      6  C12 <0> d          -2.600   0.160   1.799  0.00  0.00     0.044 A 
ATOM      7 Br1  <0> d          -2.877   1.853   1.003  0.00  0.00    -0.048 Br
ENDROOT
BRANCH   1   8
ATOM      8  O2  <0> d          -1.282  -0.518  -0.062  0.00  0.00    -0.335 OA
BRANCH   8   9
ATOM      9  C2  <0> d           0.065  -0.041  -0.066  0.00  0.00     0.216 C 
ATOM     10  C1  <0> d           0.073   1.462  -0.354  0.00  0.00     0.050 C 
BRANCH   9  11
ATOM     11  C3  <0> d           0.851  -0.760  -1.132  0.00  0.00     0.247 C 
ATOM     12  O1  <0> d           0.290  -1.533  -1.880  0.00  0.00    -0.271 OA
ATOM     13  N1  <0> d           2.176  -0.546  -1.254  0.00  0.00    -0.355 N 
ATOM     14  H5  <0> d           2.624   0.072  -0.655  0.00  0.00     0.162 HD
BRANCH  13  15
ATOM     15  C4  <0> d           2.939  -1.246  -2.290  0.00  0.00     0.076 C 
ATOM     16  C5  <0> d           2.841  -0.471  -3.606  0.00  0.00     0.032 C 
ATOM     17  C6  <0> d           4.405  -1.345  -1.864  0.00  0.00     0.032 C 
ENDBRANCH  13  15
ENDBRANCH   9  11
ENDBRANCH   8   9
ENDBRANCH   1   8
BRANCH   2  18
ATOM     18  C13 <0> d          -0.792  -3.074   1.036  0.00  0.00     0.068 C 
BRANCH  18  19
ATOM     19  C14 <0> d           0.674  -2.905   1.438  0.00  0.00     0.234 C 
BRANCH  19  20
ATOM     20  N2  <0> d           1.479  -3.961   0.809  0.00  0.00    -0.079 N 
ATOM     21  H20 <0> d           1.396  -3.896  -0.194  0.00  0.00     0.274 HD
ATOM     22  H21 <0> d           2.446  -3.850   1.074  0.00  0.00     0.274 HD
ATOM     23  H22 <0> d           1.148  -4.864   1.116  0.00  0.00     0.274 HD
ENDBRANCH  19  20
ENDBRANCH  18  19
ENDBRANCH   2  18
TORSDOF 7
