REMARK  6 active torsions:
REMARK  status: ('A' for Active; 'I' for Inactive)
REMARK    1  A    between atoms: N1_2  and  C2_3 
REMARK       I    between atoms: N1_2  and  C15_21 
REMARK    2  A    between atoms: C2_3  and  C3_4 
REMARK    3  A    between atoms: C3_4  and  C4_5 
REMARK    4  A    between atoms: C5_8  and  C6_10 
REMARK    5  A    between atoms: C11_15  and  O2_19 
REMARK    6  A    between atoms: C15_21  and  C16_23 
ROOT
ATOM      1  C4  <0> d          -1.071  -1.794   3.140  0.00  0.00     0.131 A 
ATOM      2  N2  <0> d           0.059  -2.126   3.651  0.00  0.00    -0.118 NA
ATOM      3  O1  <0> d          -0.120  -2.828   4.867  0.00  0.00    -0.226 OA
ATOM      4  C5  <0> d          -1.538  -2.910   5.080  0.00  0.00     0.281 A 
ATOM      5  N3  <0> d          -2.121  -2.212   3.923  0.00  0.00    -0.346 N 
ATOM      6  H10 <0> d          -3.065  -2.075   3.745  0.00  0.00     0.163 HD
ENDROOT
BRANCH   1   7
ATOM      7  C3  <0> d          -1.226  -1.035   1.847  0.00  0.00     0.100 C 
BRANCH   7   8
ATOM      8  C2  <0> d           0.155  -0.742   1.259  0.00  0.00     0.133 C 
BRANCH   8   9
ATOM      9  N1  <0> d           0.004  -0.004   0.002  0.00  0.00    -0.352 N 
ATOM     10  C1  <0> d          -0.032   1.460   0.012  0.00  0.00     0.152 C 
ATOM     11  C15 <0> d          -0.102  -0.673  -1.163  0.00  0.00     0.253 C 
ATOM     12  O3  <0> d          -0.179  -1.886  -1.163  0.00  0.00    -0.267 OA
BRANCH  11  13
ATOM     13  C16 <0> d          -0.124   0.069  -2.442  0.00  0.00     0.032 A 
ATOM     14  C21 <0> d          -0.904  -0.391  -3.505  0.00  0.00     0.018 A 
ATOM     15  C20 <0> d          -0.925   0.308  -4.693  0.00  0.00     0.025 A 
ATOM     16  C19 <0> d          -0.166   1.458  -4.837  0.00  0.00     0.034 A 
ATOM     17  C18 <0> d           0.615   1.915  -3.788  0.00  0.00     0.025 A 
ATOM     18 Cl1  <0> d          -0.192   2.329  -6.338  0.00  0.00    -0.084 Cl
ATOM     19  C17 <0> d           0.639   1.228  -2.593  0.00  0.00     0.018 A 
ENDBRANCH  11  13
ENDBRANCH   8   9
ENDBRANCH   7   8
ENDBRANCH   1   7
BRANCH   4  20
ATOM     20  C6  <0> d          -1.925  -2.201   6.380  0.00  0.00     0.157 A 
ATOM     21  N4  <0> d          -1.162  -2.755   7.504  0.00  0.00    -0.377 N 
ATOM     22  C13 <0> d          -0.441  -1.791   8.032  0.00  0.00     0.041 A 
ATOM     23  H22 <0> d          -1.185  -3.677   7.806  0.00  0.00     0.160 HD
ATOM     24  C8  <0> d          -0.668  -0.522   7.303  0.00  0.00    -0.011 A 
ATOM     25  C12 <0> d           0.464  -1.781   9.123  0.00  0.00     0.066 A 
ATOM     26  C7  <0> d          -1.555  -0.737   6.306  0.00  0.00     0.016 A 
ATOM     27  C9  <0> d           0.053   0.677   7.748  0.00  0.00     0.016 A 
ATOM     28  C10 <0> d           0.895   0.583   8.800  0.00  0.00     0.037 A 
ATOM     29  C11 <0> d           1.097  -0.633   9.479  0.00  0.00     0.070 A 
BRANCH  29  30
ATOM     30  O2  <0> d           1.956  -0.661  10.528  0.00  0.00    -0.356 OA
ATOM     31  C14 <0> d           2.601   0.568  10.870  0.00  0.00     0.210 C 
ENDBRANCH  29  30
ENDBRANCH   4  20
TORSDOF 6
