REMARK  2 active torsions:
REMARK  status: ('A' for Active; 'I' for Inactive)
REMARK    1  A    between atoms: C6_6  and  N1_7 
REMARK       I    between atoms: N1_7  and  C7_8 
REMARK    2  A    between atoms: C7_8  and  C8_10 
ROOT
ATOM      1  N1  <0> d          -1.199  -0.721   0.010  0.00  0.00    -0.321 N 
ATOM      2  C7  <0> d          -1.182  -2.064  -0.099  0.00  0.00     0.283 C 
ATOM      3  O1  <0> d          -0.122  -2.660  -0.113  0.00  0.00    -0.265 OA
ATOM      4  H5  <0> d          -2.043  -0.252   0.098  0.00  0.00     0.169 HD
ENDROOT
BRANCH   2   5
ATOM      5  C8  <0> d          -2.451  -2.812  -0.202  0.00  0.00     0.189 A 
ATOM      6  S1  <0> d          -2.706  -4.574  -0.354  0.00  0.00    -0.021 SA
ATOM      7  C10 <0> d          -4.480  -4.555  -0.409  0.00  0.00     0.218 A 
ATOM      8  N3  <0> d          -4.764  -3.211  -0.315  0.00  0.00    -0.198 N 
ATOM      9  N5  <0> d          -5.595  -5.213  -0.500  0.00  0.00    -0.121 NA
ATOM     10  N2  <0> d          -3.677  -2.354  -0.210  0.00  0.00    -0.151 NA
ATOM     11  C9  <0> d          -6.145  -3.166  -0.361  0.00  0.00     0.261 A 
ATOM     12  N4  <0> d          -6.583  -4.388  -0.471  0.00  0.00    -0.141 NA
ENDBRANCH   2   5
BRANCH   1  13
ATOM     13  C6  <0> d           0.002  -0.004  -0.004  0.00  0.00     0.035 A 
ATOM     14  C1  <0> d           1.072  -0.453  -0.767  0.00  0.00     0.031 A 
ATOM     15  C2  <0> d           2.256   0.258  -0.779  0.00  0.00     0.021 A 
ATOM     16  C3  <0> d           2.377   1.416  -0.032  0.00  0.00     0.011 A 
ATOM     17  C4  <0> d           1.312   1.866   0.730  0.00  0.00     0.021 A 
ATOM     18 Br1  <0> d           4.000   2.386  -0.050  0.00  0.00    -0.051 Br
ATOM     19  C5  <0> d           0.126   1.159   0.746  0.00  0.00     0.031 A 
ENDBRANCH   1  13
TORSDOF 2
