REMARK  6 active torsions:
REMARK  status: ('A' for Active; 'I' for Inactive)
REMARK    1  A    between atoms: C5_5  and  S1_8 
REMARK    2  A    between atoms: S1_8  and  C8_9 
REMARK    3  A    between atoms: C12_13  and  O2_28 
REMARK    4  A    between atoms: C15_17  and  C16_18 
REMARK       I    between atoms: C16_18  and  N2_20 
REMARK    5  A    between atoms: N2_20  and  C17_21 
REMARK    6  A    between atoms: C17_21  and  C18_22 
ROOT
ATOM      1  C8  <0> d           0.017  -4.819   1.612  0.00  0.00     0.028 A 
ATOM      2  C9  <0> d          -0.098  -3.876   2.625  0.00  0.00     0.006 A 
ATOM      3  C10 <0> d          -0.204  -2.466   2.605  0.00  0.00     0.017 A 
ATOM      4  C11 <0> d          -0.305  -1.782   3.771  0.00  0.00     0.038 A 
ATOM      5  C12 <0> d          -0.306  -2.440   5.009  0.00  0.00     0.070 A 
ATOM      6  C13 <0> d          -0.206  -3.797   5.098  0.00  0.00     0.066 A 
ATOM      7  C14 <0> d          -0.098  -4.573   3.921  0.00  0.00     0.043 A 
ATOM      8  N1  <0> d           0.009  -5.878   3.742  0.00  0.00    -0.372 N 
ATOM      9  C15 <0> d           0.084  -6.161   2.306  0.00  0.00     0.215 A 
ATOM     10  H22 <0> d           0.031  -6.542   4.449  0.00  0.00     0.161 HD
ENDROOT
BRANCH   9  11
ATOM     11  C16 <0> d           1.386  -6.848   1.982  0.00  0.00     0.245 C 
ATOM     12  O1  <0> d           2.301  -6.819   2.778  0.00  0.00    -0.271 OA
ATOM     13  N2  <0> d           1.534  -7.494   0.809  0.00  0.00    -0.355 N 
ATOM     14  H12 <0> d           0.802  -7.517   0.173  0.00  0.00     0.162 HD
BRANCH  13  15
ATOM     15  C17 <0> d           2.800  -8.162   0.495  0.00  0.00     0.162 C 
BRANCH  15  16
ATOM     16  C18 <0> d           2.705  -8.803  -0.865  0.00  0.00    -0.023 A 
ATOM     17  C22 <0> d           3.065  -8.099  -1.998  0.00  0.00     0.124 A 
ATOM     18  N3  <0> d           2.991  -8.656  -3.191  0.00  0.00    -0.273 NA
ATOM     19  C21 <0> d           2.562  -9.893  -3.353  0.00  0.00     0.116 A 
ATOM     20  C20 <0> d           2.179 -10.656  -2.267  0.00  0.00     0.020 A 
ATOM     21  C19 <0> d           2.250 -10.107  -0.996  0.00  0.00     0.012 A 
ENDBRANCH  15  16
ENDBRANCH  13  15
ENDBRANCH   9  11
BRANCH   1  22
ATOM     22  S1  <0> d           0.063  -4.533  -0.023  0.00  0.00    -0.091 SA
BRANCH  22  23
ATOM     23  C5  <0> d          -1.453  -5.206  -0.617  0.00  0.00     0.005 A 
ATOM     24  C4  <0> d          -1.702  -5.263  -1.982  0.00  0.00     0.019 A 
ATOM     25  C3  <0> d          -2.891  -5.791  -2.444  0.00  0.00     0.008 A 
ATOM     26  C2  <0> d          -3.833  -6.264  -1.549  0.00  0.00    -0.062 A 
ATOM     27  C1  <0> d          -5.130  -6.840  -2.057  0.00  0.00     0.048 C 
ATOM     28  C7  <0> d          -3.591  -6.204  -0.189  0.00  0.00     0.008 A 
ATOM     29  C6  <0> d          -2.402  -5.681   0.280  0.00  0.00     0.019 A 
ENDBRANCH  22  23
ENDBRANCH   1  22
BRANCH   5  30
ATOM     30  O2  <0> d          -0.408  -1.708   6.147  0.00  0.00    -0.356 OA
ATOM     31  C23 <0> d          -0.510  -0.291   6.000  0.00  0.00     0.210 C 
ENDBRANCH   5  30
TORSDOF 6
