REMARK  4 active torsions:
REMARK  status: ('A' for Active; 'I' for Inactive)
REMARK    1  A    between atoms: N1_2  and  C2_3 
REMARK       I    between atoms: N1_2  and  C12_15 
REMARK    2  A    between atoms: N2_6  and  C7_9 
REMARK       I    between atoms: C12_15  and  N3_17 
REMARK    3  A    between atoms: N3_17  and  C13_18 
REMARK    4  A    between atoms: C18_23  and  C19_24 
ROOT
ATOM      1  C1  <0> d          -0.018   1.461   0.010  0.00  0.00     0.155 C 
ATOM      2  N1  <0> d           0.002  -0.004   0.002  0.00  0.00    -0.334 N 
ATOM      3  C12 <0> d           0.000  -0.672  -1.169  0.00  0.00     0.318 C 
ATOM      4  O2  <0> d           0.017  -1.887  -1.175  0.00  0.00    -0.247 OA
ATOM      5  N3  <0> d          -0.020   0.009  -2.332  0.00  0.00    -0.338 N 
ATOM      6  H24 <0> d          -0.033   0.978  -2.327  0.00  0.00     0.164 HD
ENDROOT
BRANCH   2   7
ATOM      7  C2  <0> d           0.024  -0.743   1.267  0.00  0.00     0.091 C 
ATOM      8  C6  <0> d           1.276  -0.362   2.061  0.00  0.00     0.053 C 
ATOM      9  C5  <0> d           1.253  -1.076   3.414  0.00  0.00     0.237 C 
ATOM     10  N2  <0> d           0.056  -0.675   4.163  0.00  0.00    -0.067 N 
ATOM     11  C4  <0> d          -1.149  -1.102   3.441  0.00  0.00     0.237 C 
ATOM     12  H33 <0> d           0.046   0.328   4.267  0.00  0.00     0.280 HD
ATOM     13  C3  <0> d          -1.218  -0.388   2.089  0.00  0.00     0.053 C 
BRANCH  10  14
ATOM     14  C7  <0> d           0.077  -1.303   5.491  0.00  0.00     0.192 C 
ATOM     15  C11 <0> d           1.334  -0.860   6.247  0.00  0.00     0.059 C 
ATOM     16  C10 <0> d           1.308  -1.455   7.657  0.00  0.00     0.169 C 
ATOM     17  O1  <0> d           0.117  -1.038   8.327  0.00  0.00    -0.391 OA
ATOM     18  C9  <0> d          -1.090  -1.465   7.691  0.00  0.00     0.169 C 
ATOM     19  C8  <0> d          -1.161  -0.870   6.282  0.00  0.00     0.059 C 
ENDBRANCH  10  14
ENDBRANCH   2   7
BRANCH   5  20
ATOM     20  C13 <0> d          -0.022  -0.717  -3.605  0.00  0.00     0.098 C 
ATOM     21  C18 <0> d          -0.654   0.158  -4.690  0.00  0.00     0.116 C 
ATOM     22  C17 <0> d          -0.657  -0.600  -6.019  0.00  0.00     0.015 C 
ATOM     23  C16 <0> d           0.782  -0.943  -6.413  0.00  0.00     0.001 C 
ATOM     24  C15 <0> d           1.413  -1.817  -5.329  0.00  0.00     0.002 C 
ATOM     25  C14 <0> d           1.416  -1.059  -3.999  0.00  0.00     0.026 C 
BRANCH  21  26
ATOM     26  C19 <0> d          -2.092   0.500  -4.295  0.00  0.00     0.393 C 
ATOM     27  F1  <0> d          -2.090   1.193  -3.080  0.00  0.00    -0.171 F 
ATOM     28  F2  <0> d          -2.670   1.300  -5.287  0.00  0.00    -0.171 F 
ATOM     29  F3  <0> d          -2.832  -0.680  -4.158  0.00  0.00    -0.171 F 
ENDBRANCH  21  26
ENDBRANCH   5  20
TORSDOF 4
