REMARK  4 active torsions:
REMARK  status: ('A' for Active; 'I' for Inactive)
REMARK    1  A    between atoms: C5_5  and  C8_8 
REMARK    2  A    between atoms: C8_8  and  C9_9 
REMARK    3  A    between atoms: C10_11  and  N5_24 
REMARK    4  A    between atoms: C12_13  and  C14_18 
ROOT
ATOM      1  C9  <0> d           1.708  -4.312   0.015  0.00  0.00     0.135 A 
ATOM      2  N1  <0> d           2.350  -4.416  -1.134  0.00  0.00    -0.215 NA
ATOM      3  C10 <0> d           3.581  -4.917  -1.188  0.00  0.00     0.145 A 
ATOM      4  C11 <0> d           4.184  -5.335   0.009  0.00  0.00     0.097 A 
ATOM      5  C12 <0> d           5.481  -5.921   0.363  0.00  0.00     0.114 A 
ATOM      6  N2  <0> d           5.479  -6.103   1.658  0.00  0.00    -0.124 NA
ATOM      7  O1  <0> d           4.246  -5.668   2.195  0.00  0.00    -0.192 OA
ATOM      8  C13 <0> d           3.462  -5.205   1.207  0.00  0.00     0.212 A 
ATOM      9  N3  <0> d           2.238  -4.687   1.161  0.00  0.00    -0.206 NA
ENDROOT
BRANCH   1  10
ATOM     10  C8  <0> d           0.316  -3.736   0.017  0.00  0.00     0.119 C 
BRANCH  10  11
ATOM     11  C5  <0> d           0.391  -2.242   0.194  0.00  0.00    -0.051 A 
ATOM     12  C4  <0> d           0.481  -1.418  -0.912  0.00  0.00     0.008 A 
ATOM     13  C3  <0> d           0.548  -0.047  -0.750  0.00  0.00     0.007 A 
ATOM     14  C2  <0> d           0.525   0.500   0.519  0.00  0.00    -0.062 A 
ATOM     15  C1  <0> d           0.599   1.995   0.697  0.00  0.00     0.048 C 
ATOM     16  C7  <0> d           0.441  -0.324   1.626  0.00  0.00     0.007 A 
ATOM     17  C6  <0> d           0.368  -1.694   1.463  0.00  0.00     0.008 A 
ENDBRANCH  10  11
ENDBRANCH   1  10
BRANCH   3  18
ATOM     18  N5  <0> d           4.249  -5.024  -2.392  0.00  0.00    -0.362 N 
ATOM     19  C22 <0> d           5.237  -4.015  -2.801  0.00  0.00     0.152 C 
ATOM     20  C21 <0> d           4.910  -3.555  -4.221  0.00  0.00     0.252 C 
ATOM     21  N6  <0> d           4.832  -4.722  -5.108  0.00  0.00    -0.072 N 
ATOM     22  C20 <0> d           3.715  -5.585  -4.703  0.00  0.00     0.252 C 
ATOM     23  H18 <0> d           5.694  -5.243  -5.054  0.00  0.00     0.277 HD
ATOM     24  H23 <0> d           4.688  -4.412  -6.058  0.00  0.00     0.277 HD
ATOM     25  C19 <0> d           3.988  -6.148  -3.304  0.00  0.00     0.152 C 
ENDBRANCH   3  18
BRANCH   5  26
ATOM     26  C14 <0> d           6.585  -6.247  -0.571  0.00  0.00     0.013 A 
ATOM     27  C18 <0> d           6.346  -7.011  -1.711  0.00  0.00     0.130 A 
ATOM     28  N4  <0> d           7.325  -7.297  -2.545  0.00  0.00    -0.272 NA
ATOM     29  C17 <0> d           8.561  -6.886  -2.334  0.00  0.00     0.116 A 
ATOM     30  C16 <0> d           8.880  -6.128  -1.223  0.00  0.00     0.020 A 
ATOM     31  C15 <0> d           7.885  -5.796  -0.320  0.00  0.00     0.017 A 
ENDBRANCH   5  26
TORSDOF 4
