REMARK  3 active torsions:
REMARK  status: ('A' for Active; 'I' for Inactive)
REMARK    1  A    between atoms: C2_2  and  C3_3 
REMARK    2  A    between atoms: C3_3  and  C8_9 
REMARK    3  A    between atoms: C8_9  and  N2_10 
ROOT
ATOM      1  C3  <0> d           0.787  -0.441   1.463  0.00  0.00     0.007 C 
ATOM      2  C4  <0> d           2.007  -0.080   2.314  0.00  0.00     0.014 C 
ATOM      3  C5  <0> d           1.993   1.425   2.597  0.00  0.00     0.028 C 
ATOM      4  C6  <0> d           1.965   2.188   1.270  0.00  0.00     0.232 C 
ATOM      5  N1  <0> d           0.762   1.819   0.515  0.00  0.00    -0.074 N 
ATOM      6  C7  <0> d           0.804   0.390   0.178  0.00  0.00     0.243 C 
ATOM      7  H12 <0> d          -0.056   2.007   1.074  0.00  0.00     0.277 HD
ATOM      8  H32 <0> d           0.719   2.362  -0.334  0.00  0.00     0.277 HD
ENDROOT
BRANCH   1   9
ATOM      9  C2  <0> d          -0.491  -0.141   2.249  0.00  0.00     0.008 C 
ATOM     10  C1  <0> d          -0.481  -0.929   3.560  0.00  0.00     0.006 C 
ENDBRANCH   1   9
BRANCH   1  11
ATOM     11  C8  <0> d           0.831  -1.929   1.109  0.00  0.00     0.246 C 
BRANCH  11  12
ATOM     12  N2  <0> d          -0.535  -2.420   0.884  0.00  0.00    -0.070 N 
ATOM     13  C15 <0> d          -0.512  -3.883   0.754  0.00  0.00     0.235 C 
ATOM     14  C14 <0> d          -1.507  -4.496   1.748  0.00  0.00     0.028 C 
ATOM     15  C13 <0> d          -2.928  -4.310   1.223  0.00  0.00     0.002 C 
ATOM     16  C12 <0> d          -3.366  -2.859   1.429  0.00  0.00     0.000 C 
ATOM     17  C11 <0> d          -3.511  -2.181   0.066  0.00  0.00     0.002 C 
ATOM     18  C10 <0> d          -2.314  -2.577  -0.807  0.00  0.00     0.028 C 
ATOM     19  C9  <0> d          -1.073  -1.817  -0.343  0.00  0.00     0.235 C 
ATOM     20  H31 <0> d          -1.117  -2.162   1.666  0.00  0.00     0.279 HD
ENDBRANCH  11  12
ENDBRANCH   1  11
TORSDOF 3
