REMARK  4 active torsions:
REMARK  status: ('A' for Active; 'I' for Inactive)
REMARK    1  A    between atoms: C4_5  and  C8_11 
REMARK    2  A    between atoms: C8_11  and  N3_12 
REMARK    3  A    between atoms: C11_15  and  C14_18 
REMARK    4  A    between atoms: C14_18  and  C15_19 
REMARK       I    between atoms: C15_19  and  N4_21 
ROOT
ATOM      1  N3  <0> d           6.415   0.872  -1.437  0.00  0.00    -0.066 N 
ATOM      2  C9  <0> d           6.030  -0.319  -2.203  0.00  0.00     0.235 C 
ATOM      3  C10 <0> d           6.449  -0.147  -3.665  0.00  0.00     0.032 C 
ATOM      4  C11 <0> d           7.968   0.040  -3.736  0.00  0.00    -0.003 C 
ATOM      5  C12 <0> d           8.366   1.241  -2.873  0.00  0.00     0.032 C 
ATOM      6  C13 <0> d           7.875   1.017  -1.441  0.00  0.00     0.235 C 
ATOM      7  H20 <0> d           5.995   1.689  -1.855  0.00  0.00     0.280 HD
ENDROOT
BRANCH   1   8
ATOM      8  C8  <0> d           5.941   0.736  -0.053  0.00  0.00     0.295 C 
BRANCH   8   9
ATOM      9  C4  <0> d           4.435   0.710  -0.037  0.00  0.00     0.078 A 
ATOM     10  N1  <0> d           3.638   1.781  -0.024  0.00  0.00    -0.232 NA
ATOM     11  C3  <0> d           2.373   1.382  -0.013  0.00  0.00     0.134 A 
ATOM     12  C2  <0> d           1.155   2.091   0.002  0.00  0.00     0.052 A 
ATOM     13  N2  <0> d           2.361   0.012  -0.020  0.00  0.00    -0.314 N 
ATOM     14  C1  <0> d          -0.017   1.401   0.010  0.00  0.00     0.024 A 
ATOM     15  C7  <0> d           0.002  -0.004   0.002  0.00  0.00     0.027 A 
ATOM     16  C6  <0> d           1.177  -0.669  -0.013  0.00  0.00     0.117 A 
ATOM     17 Br1  <0> d          -1.625  -0.968   0.012  0.00  0.00    -0.050 Br
ATOM     18  C5  <0> d           3.665  -0.401  -0.036  0.00  0.00     0.127 A 
ENDBRANCH   8   9
ENDBRANCH   1   8
BRANCH   4  19
ATOM     19  C14 <0> d           8.385   0.292  -5.187  0.00  0.00     0.107 C 
BRANCH  19  20
ATOM     20  C15 <0> d           9.888   0.353  -5.274  0.00  0.00     0.215 C 
ATOM     21  O1  <0> d          10.559   0.210  -4.274  0.00  0.00    -0.274 OA
ATOM     22  N4  <0> d          10.486   0.568  -6.462  0.00  0.00    -0.370 N 
ATOM     23  H18 <0> d           9.948   0.683  -7.262  0.00  0.00     0.159 HD
ATOM     24  H19 <0> d          11.453   0.607  -6.519  0.00  0.00     0.159 HD
ENDBRANCH  19  20
ENDBRANCH   4  19
TORSDOF 4
