REMARK  5 active torsions:
REMARK  status: ('A' for Active; 'I' for Inactive)
REMARK    1  A    between atoms: C5_5  and  C8_8 
REMARK    2  A    between atoms: C9_10  and  C10_13 
REMARK    3  A    between atoms: C15_20  and  S1_25 
REMARK    4  A    between atoms: S1_25  and  N4_28 
REMARK    5  A    between atoms: N4_28  and  C19_29 
ROOT
ATOM      1  C10 <0> d           0.567  -7.088   1.619  0.00  0.00     0.059 A 
ATOM      2  H2  <0> d           1.988  -6.409   4.444  0.00  0.00     0.165 HD
ATOM      3  C11 <0> d           0.980  -6.393   2.700  0.00  0.00     0.104 A 
ATOM      4  N3  <0> d           1.717  -6.953   3.688  0.00  0.00    -0.364 N 
ATOM      5  C12 <0> d           2.093  -8.277   3.647  0.00  0.00     0.046 A 
ATOM      6  C13 <0> d           2.851  -8.844   4.668  0.00  0.00     0.032 A 
ATOM      7  C14 <0> d           3.209 -10.172   4.596  0.00  0.00     0.027 A 
ATOM      8  C15 <0> d           2.823 -10.953   3.515  0.00  0.00     0.080 A 
ATOM      9  C16 <0> d           2.079 -10.416   2.502  0.00  0.00     0.043 A 
ATOM     10  C17 <0> d           1.704  -9.074   2.555  0.00  0.00     0.043 A 
ATOM     11  C18 <0> d           0.897  -8.457   1.488  0.00  0.00     0.196 A 
ATOM     12  O2  <0> d           0.530  -9.104   0.521  0.00  0.00    -0.287 OA
ENDROOT
BRANCH   1  13
ATOM     13  C9  <0> d          -0.251  -6.405   0.553  0.00  0.00     0.291 A 
ATOM     14  N1  <0> d          -0.467  -4.996   0.903  0.00  0.00    -0.342 N 
ATOM     15  C8  <0> d           0.059  -4.253  -0.021  0.00  0.00     0.133 A 
ATOM     16  H23 <0> d          -0.926  -4.674   1.694  0.00  0.00     0.164 HD
ATOM     17  N2  <0> d           0.631  -5.014  -1.011  0.00  0.00    -0.247 N 
ATOM     18  O1  <0> d           0.467  -6.386  -0.690  0.00  0.00    -0.247 OA
ATOM     19  H10 <0> d           1.078  -4.669  -1.800  0.00  0.00     0.196 HD
BRANCH  15  20
ATOM     20  C5  <0> d           0.040  -2.773  -0.013  0.00  0.00     0.009 A 
ATOM     21  C4  <0> d           0.024  -2.066  -1.216  0.00  0.00     0.016 A 
ATOM     22  C3  <0> d           0.006  -0.686  -1.201  0.00  0.00     0.007 A 
ATOM     23  C2  <0> d           0.002  -0.004   0.002  0.00  0.00    -0.062 A 
ATOM     24  C1  <0> d          -0.018   1.503   0.010  0.00  0.00     0.048 C 
ATOM     25  C7  <0> d           0.023  -0.699   1.198  0.00  0.00     0.007 A 
ATOM     26  C6  <0> d           0.036  -2.079   1.197  0.00  0.00     0.016 A 
ENDBRANCH  15  20
ENDBRANCH   1  13
BRANCH   8  27
ATOM     27  S1  <0> d           3.297 -12.648   3.449  0.00  0.00     0.259 S 
ATOM     28  O3  <0> d           3.278 -13.022   2.078  0.00  0.00    -0.201 OA
ATOM     29  O4  <0> d           4.459 -12.777   4.257  0.00  0.00    -0.201 OA
BRANCH  27  30
ATOM     30  N4  <0> d           2.103 -13.520   4.194  0.00  0.00    -0.311 N 
ATOM     31  H15 <0> d           2.293 -14.001   5.014  0.00  0.00     0.172 HD
BRANCH  30  32
ATOM     32  C19 <0> d           0.758 -13.566   3.613  0.00  0.00     0.085 C 
ATOM     33  C20 <0> d           0.145 -14.947   3.855  0.00  0.00     0.032 C 
ATOM     34  C21 <0> d          -0.117 -12.497   4.269  0.00  0.00     0.032 C 
ENDBRANCH  30  32
ENDBRANCH  27  30
ENDBRANCH   8  27
TORSDOF 5
