REMARK  6 active torsions:
REMARK  status: ('A' for Active; 'I' for Inactive)
REMARK    1  A    between atoms: N1_5  and  C5_7 
REMARK    2  A    between atoms: C5_7  and  C6_8 
REMARK    3  A    between atoms: C6_8  and  C7_9 
REMARK    4  A    between atoms: C7_9  and  C9_11 
REMARK    5  A    between atoms: C7_9  and  N3_14 
REMARK    6  A    between atoms: N3_14  and  C10_15 
ROOT
ATOM      1  C7  <0> d           1.524  -4.926   2.677  0.00  0.00     0.210 C 
ATOM      2  C8  <0> d           0.804  -4.614   3.991  0.00  0.00     0.058 C 
ENDROOT
BRANCH   1   3
ATOM      3  C6  <0> d           1.503  -3.688   1.779  0.00  0.00     0.072 C 
BRANCH   3   4
ATOM      4  C5  <0> d           0.053  -3.295   1.486  0.00  0.00     0.154 C 
BRANCH   4   5
ATOM      5  N1  <0> d           0.034  -2.109   0.625  0.00  0.00    -0.273 N 
ATOM      6  C4  <0> d           0.027  -2.108  -0.725  0.00  0.00     0.046 A 
ATOM      7  C3  <0> d           0.008  -0.818  -1.136  0.00  0.00     0.060 A 
ATOM      8  C13 <0> d           0.039  -3.324  -1.615  0.00  0.00     0.071 C 
ATOM      9  C2  <0> d           0.002  -0.004   0.002  0.00  0.00     0.070 A 
ATOM     10 Br1  <0> d          -0.009  -0.222  -2.930  0.00  0.00    -0.047 Br
ATOM     11  C1  <0> d          -0.018   1.503   0.010  0.00  0.00     0.074 C 
ATOM     12  N2  <0> d           0.023  -0.777   1.058  0.00  0.00    -0.176 NA
ENDBRANCH   4   5
ENDBRANCH   3   4
ENDBRANCH   1   3
BRANCH   1  13
ATOM     13  C9  <0> d           0.826  -6.065   1.980  0.00  0.00     0.210 C 
ATOM     14  O1  <0> d           1.431  -7.095   1.740  0.00  0.00    -0.646 OA
ATOM     15  O2  <0> d          -0.345  -5.955   1.656  0.00  0.00    -0.646 OA
ENDBRANCH   1  13
BRANCH   1  16
ATOM     16  N3  <0> d           2.915  -5.303   2.959  0.00  0.00    -0.052 N 
ATOM     17  H11 <0> d           3.390  -5.508   2.092  0.00  0.00     0.279 HD
ATOM     18  H20 <0> d           3.383  -4.540   3.426  0.00  0.00     0.279 HD
BRANCH  16  19
ATOM     19  C10 <0> d           2.935  -6.492   3.822  0.00  0.00     0.187 A 
ATOM     20  C12 <0> d           4.297  -7.114   4.135  0.00  0.00     0.035 A 
ATOM     21  C11 <0> d           3.543  -6.341   5.218  0.00  0.00     0.035 A 
ENDBRANCH  16  19
ENDBRANCH   1  16
TORSDOF 6
