REMARK  4 active torsions:
REMARK  status: ('A' for Active; 'I' for Inactive)
REMARK    1  A    between atoms: C2_2  and  N1_3 
REMARK    2  A    between atoms: C5_6  and  N2_9 
REMARK    3  A    between atoms: N2_9  and  C9_11 
REMARK    4  A    between atoms: C10_12  and  N5_18 
ROOT
ATOM      1  N2  <0> d          -4.941  -2.533  -0.934  0.00  0.00    -0.363 N 
ATOM      2  C8  <0> d          -5.766  -2.038   0.171  0.00  0.00     0.152 C 
ENDROOT
BRANCH   1   3
ATOM      3  C5  <0> d          -3.547  -2.099  -1.058  0.00  0.00     0.088 C 
ATOM      4  C4  <0> d          -3.497  -0.577  -1.213  0.00  0.00     0.053 C 
ATOM      5  C3  <0> d          -2.036  -0.122  -1.263  0.00  0.00     0.237 C 
ATOM      6  N1  <0> d          -1.357  -0.512  -0.021  0.00  0.00    -0.071 N 
ATOM      7  C7  <0> d          -1.338  -1.975   0.098  0.00  0.00     0.237 C 
ATOM      8  H21 <0> d          -1.848  -0.117   0.767  0.00  0.00     0.279 HD
ATOM      9  C6  <0> d          -2.772  -2.500   0.200  0.00  0.00     0.053 C 
BRANCH   6  10
ATOM     10  C2  <0> d           0.022  -0.006  -0.041  0.00  0.00     0.230 C 
ATOM     11  C1  <0> d           0.004   1.524  -0.040  0.00  0.00     0.034 C 
ENDBRANCH   6  10
ENDBRANCH   1   3
BRANCH   1  12
ATOM     12  C9  <0> d          -5.479  -3.413  -1.863  0.00  0.00     0.156 A 
ATOM     13  N4  <0> d          -5.987  -2.963  -3.005  0.00  0.00    -0.222 NA
ATOM     14  C12 <0> d          -6.494  -3.795  -3.893  0.00  0.00     0.237 A 
ATOM     15  N3  <0> d          -6.533  -5.095  -3.688  0.00  0.00    -0.227 NA
ATOM     16  C11 <0> d          -6.052  -5.627  -2.571  0.00  0.00     0.157 A 
ATOM     17  C10 <0> d          -5.502  -4.791  -1.609  0.00  0.00     0.113 A 
ATOM     18 Cl1  <0> d          -6.110  -7.343  -2.317  0.00  0.00    -0.060 Cl
BRANCH  17  19
ATOM     19  N5  <0> d          -4.984  -5.311  -0.416  0.00  0.00    -0.393 N 
ATOM     20  H19 <0> d          -4.673  -4.712   0.281  0.00  0.00     0.156 HD
ATOM     21  H20 <0> d          -4.935  -6.271  -0.286  0.00  0.00     0.156 HD
ENDBRANCH  17  19
ENDBRANCH   1  12
TORSDOF 4
