REMARK  3 active torsions:
REMARK  status: ('A' for Active; 'I' for Inactive)
REMARK    1  A    between atoms: O1_2  and  C2_3 
REMARK    2  A    between atoms: C6_7  and  C16_19 
REMARK    3  A    between atoms: C13_14  and  O3_18 
REMARK       I    between atoms: C16_19  and  N1_21 
ROOT
ATOM      1  C2  <0> d          -1.203  -0.639   0.010  0.00  0.00     0.099 C 
ATOM      2  C3  <0> d          -2.346   0.044   0.019  0.00  0.00     0.090 C 
ATOM      3  C4  <0> d          -3.719  -0.634  -0.068  0.00  0.00     0.030 C 
ATOM      4  C5  <0> d          -4.042  -0.857  -1.542  0.00  0.00     0.032 C 
ATOM      5  C6  <0> d          -3.317   0.210  -2.368  0.00  0.00     0.079 C 
ATOM      6  C7  <0> d          -4.267   1.359  -2.683  0.00  0.00     0.014 C 
ATOM      7  C8  <0> d          -4.763   2.007  -1.392  0.00  0.00     0.002 C 
ATOM      8  C9  <0> d          -5.549   0.986  -0.564  0.00  0.00     0.017 C 
ATOM      9  C10 <0> d          -4.646   0.412   0.531  0.00  0.00     0.018 C 
ATOM     10  C11 <0> d          -5.441   0.052   1.745  0.00  0.00    -0.015 C 
ATOM     11  C12 <0> d          -5.900   1.103   2.411  0.00  0.00     0.001 C 
ATOM     12  C13 <0> d          -5.692   2.517   1.972  0.00  0.00     0.143 C 
ATOM     13  C14 <0> d          -4.408   2.774   1.183  0.00  0.00     0.069 C 
ATOM     14  C15 <0> d          -3.644   1.488   1.032  0.00  0.00     0.144 C 
ATOM     15  O2  <0> d          -2.574   1.395   0.099  0.00  0.00    -0.345 OA
ATOM     16  C17 <0> d          -3.669  -1.934   0.709  0.00  0.00     0.064 C 
ATOM     17  C18 <0> d          -2.438  -2.715   0.322  0.00  0.00    -0.008 C 
ATOM     18  C19 <0> d          -1.296  -2.114   0.003  0.00  0.00     0.054 C 
ATOM     19 Br1  <0> d          -2.522  -4.603   0.283  0.00  0.00    -0.056 Br
ENDROOT
BRANCH   5  20
ATOM     20  C16 <0> d          -2.829  -0.400  -3.656  0.00  0.00     0.219 C 
ATOM     21  O4  <0> d          -3.040  -1.572  -3.890  0.00  0.00    -0.273 OA
ATOM     22  N1  <0> d          -2.159   0.355  -4.549  0.00  0.00    -0.370 N 
ATOM     23  H20 <0> d          -1.990   1.292  -4.362  0.00  0.00     0.159 HD
ATOM     24  H21 <0> d          -1.845  -0.038  -5.378  0.00  0.00     0.159 HD
ENDBRANCH   5  20
BRANCH   1  25
ATOM     25  O1  <0> d           0.002  -0.004   0.002  0.00  0.00    -0.353 OA
ATOM     26  C1  <0> d          -0.017   1.425   0.010  0.00  0.00     0.210 C 
ENDBRANCH   1  25
BRANCH  12  27
ATOM     27  O3  <0> d          -6.801   2.902   1.158  0.00  0.00    -0.392 OA
ATOM     28  H19 <0> d          -7.656   2.855   1.608  0.00  0.00     0.210 HD
ENDBRANCH  12  27
TORSDOF 3
