REMARK  6 active torsions:
REMARK  status: ('A' for Active; 'I' for Inactive)
REMARK    1  A    between atoms: C6_6  and  C7_7 
REMARK    2  A    between atoms: C7_7  and  N1_8 
REMARK       I    between atoms: N1_8  and  C8_9 
REMARK    3  A    between atoms: C8_9  and  C9_11 
REMARK    4  A    between atoms: C10_14  and  C11_16 
REMARK    5  A    between atoms: C11_16  and  N4_17 
REMARK    6  A    between atoms: C15_21  and  C16_22 
ROOT
ATOM      1  C9  <0> d          -3.302  -1.937  -2.993  0.00  0.00     0.189 A 
ATOM      2  N2  <0> d          -2.728  -1.589  -4.141  0.00  0.00    -0.136 NA
ATOM      3  N3  <0> d          -3.292  -1.912  -5.225  0.00  0.00    -0.144 NA
ATOM      4  C10 <0> d          -4.428  -2.580  -5.250  0.00  0.00     0.125 A 
ATOM      5  S1  <0> d          -4.747  -2.790  -3.608  0.00  0.00    -0.044 SA
ENDROOT
BRANCH   1   6
ATOM      6  C8  <0> d          -2.867  -1.693  -1.607  0.00  0.00     0.279 C 
ATOM      7  N1  <0> d          -1.726  -1.017  -1.368  0.00  0.00    -0.351 N 
ATOM      8  H8  <0> d          -1.191  -0.691  -2.109  0.00  0.00     0.163 HD
ATOM      9  O1  <0> d          -3.537  -2.102  -0.679  0.00  0.00    -0.265 OA
BRANCH   7  10
ATOM     10  C7  <0> d          -1.293  -0.775   0.010  0.00  0.00     0.161 C 
BRANCH  10  11
ATOM     11  C6  <0> d           0.002  -0.004   0.002  0.00  0.00    -0.040 A 
ATOM     12  C1  <0> d          -0.017   1.378   0.010  0.00  0.00     0.012 A 
ATOM     13  C2  <0> d           1.170   2.086   0.002  0.00  0.00     0.043 A 
ATOM     14  C3  <0> d           2.379   1.410  -0.013  0.00  0.00     0.116 A 
ATOM     15  C4  <0> d           2.396   0.026  -0.021  0.00  0.00     0.043 A 
ATOM     16  F1  <0> d           3.540   2.101  -0.021  0.00  0.00    -0.206 F 
ATOM     17  C5  <0> d           1.208  -0.680  -0.013  0.00  0.00     0.012 A 
ENDBRANCH  10  11
ENDBRANCH   7  10
ENDBRANCH   1   6
BRANCH   4  18
ATOM     18  C11 <0> d          -5.231  -3.041  -6.439  0.00  0.00     0.304 C 
BRANCH  18  19
ATOM     19  N4  <0> d          -4.791  -4.385  -6.835  0.00  0.00    -0.057 N 
ATOM     20  C15 <0> d          -5.488  -4.793  -8.069  0.00  0.00     0.222 C 
ATOM     21  C14 <0> d          -6.306  -6.058  -7.736  0.00  0.00     0.040 C 
ATOM     22  C13 <0> d          -6.475  -5.969  -6.196  0.00  0.00     0.030 C 
ATOM     23  C12 <0> d          -5.121  -5.353  -5.767  0.00  0.00     0.236 C 
ATOM     24  H20 <0> d          -3.794  -4.384  -6.994  0.00  0.00     0.281 HD
BRANCH  20  25
ATOM     25  C16 <0> d          -4.483  -5.101  -9.148  0.00  0.00    -0.021 A 
ATOM     26  C19 <0> d          -3.337  -5.761  -8.852  0.00  0.00     0.058 A 
ATOM     27  S2  <0> d          -2.543  -5.858 -10.449  0.00  0.00    -0.113 SA
ATOM     28  C18 <0> d          -3.789  -5.003 -11.401  0.00  0.00     0.050 A 
ATOM     29  C17 <0> d          -4.713  -4.710 -10.454  0.00  0.00     0.017 A 
ENDBRANCH  20  25
ENDBRANCH  18  19
ENDBRANCH   4  18
TORSDOF 6
