REMARK  7 active torsions:
REMARK  status: ('A' for Active; 'I' for Inactive)
REMARK    1  A    between atoms: C2_2  and  N1_4 
REMARK    2  A    between atoms: C4_5  and  C6_10 
REMARK    3  A    between atoms: C6_10  and  C7_11 
REMARK    4  A    between atoms: C7_11  and  N4_12 
REMARK       I    between atoms: N4_12  and  C8_13 
REMARK    5  A    between atoms: C8_13  and  C9_15 
REMARK    6  A    between atoms: C10_16  and  S3_20 
REMARK    7  A    between atoms: S3_20  and  C13_21 
ROOT
ATOM      1  N4  <0> d           4.478  -3.106   0.694  0.00  0.00    -0.356 N 
ATOM      2  C8  <0> d           5.578  -3.868   0.535  0.00  0.00     0.259 C 
ATOM      3  O1  <0> d           5.974  -4.140  -0.584  0.00  0.00    -0.267 OA
ATOM      4  H13 <0> d           4.162  -2.889   1.585  0.00  0.00     0.162 HD
ENDROOT
BRANCH   1   5
ATOM      5  C7  <0> d           3.758  -2.605  -0.480  0.00  0.00     0.130 C 
BRANCH   5   6
ATOM      6  C6  <0> d           2.557  -1.774  -0.025  0.00  0.00     0.100 C 
BRANCH   6   7
ATOM      7  C4  <0> d           1.816  -1.258  -1.232  0.00  0.00     0.130 A 
ATOM      8  N1  <0> d           0.688  -0.476  -1.203  0.00  0.00    -0.305 N 
ATOM      9  C5  <0> d           0.315  -0.223  -2.474  0.00  0.00     0.196 A 
ATOM     10  N3  <0> d           1.206  -0.831  -3.285  0.00  0.00    -0.251 N 
ATOM     11  S1  <0> d          -1.037   0.704  -2.968  0.00  0.00    -0.039 SA
ATOM     12  N2  <0> d           2.140  -1.480  -2.465  0.00  0.00    -0.159 NA
ATOM     13  H8  <0> d           1.199  -0.824  -4.255  0.00  0.00     0.191 HD
BRANCH   8  14
ATOM     14  C2  <0> d           0.002  -0.004   0.002  0.00  0.00     0.085 C 
ATOM     15  C1  <0> d          -0.019   1.526   0.010  0.00  0.00     0.032 C 
ATOM     16  C3  <0> d          -1.433  -0.534   0.013  0.00  0.00     0.032 C 
ENDBRANCH   8  14
ENDBRANCH   6   7
ENDBRANCH   5   6
ENDBRANCH   1   5
BRANCH   2  17
ATOM     17  C9  <0> d           6.273  -4.352   1.668  0.00  0.00     0.089 A 
ATOM     18  S2  <0> d           5.914  -4.105   3.396  0.00  0.00    -0.095 SA
ATOM     19  C12 <0> d           7.178  -4.986   4.064  0.00  0.00     0.052 A 
ATOM     20  C11 <0> d           7.866  -5.452   2.996  0.00  0.00     0.027 A 
ATOM     21  C10 <0> d           7.423  -5.141   1.724  0.00  0.00     0.028 A 
BRANCH  21  22
ATOM     22  S3  <0> d           8.251  -5.703   0.274  0.00  0.00    -0.059 SA
BRANCH  22  23
ATOM     23  C13 <0> d           9.649  -6.667   0.914  0.00  0.00     0.420 C 
ATOM     24  F1  <0> d          10.462  -5.843   1.700  0.00  0.00    -0.202 F 
ATOM     25  F2  <0> d           9.169  -7.726   1.691  0.00  0.00    -0.202 F 
ENDBRANCH  22  23
ENDBRANCH  21  22
ENDBRANCH   2  17
TORSDOF 7
