REMARK  6 active torsions:
REMARK  status: ('A' for Active; 'I' for Inactive)
REMARK    1  A    between atoms: C7_7  and  C13_15 
REMARK    2  A    between atoms: C13_15  and  N2_16 
REMARK    3  A    between atoms: C17_20  and  C19_22 
REMARK    4  A    between atoms: C19_22  and  N3_23 
REMARK    5  A    between atoms: C21_25  and  C22_28 
REMARK    6  A    between atoms: C22_28  and  N6_29 
ROOT
ATOM      1  N2  <0> d          -0.469  -3.118   1.379  0.00  0.00    -0.067 N 
ATOM      2  C14 <0> d           0.474  -3.931   2.156  0.00  0.00     0.235 C 
ATOM      3  C15 <0> d           0.037  -3.959   3.623  0.00  0.00     0.028 C 
ATOM      4  C16 <0> d          -1.373  -4.547   3.719  0.00  0.00     0.010 C 
ATOM      5  C17 <0> d          -2.326  -3.710   2.862  0.00  0.00     0.031 C 
ATOM      6  C18 <0> d          -1.821  -3.690   1.418  0.00  0.00     0.241 C 
ATOM      7  H29 <0> d          -0.513  -2.121   1.842  0.00  0.00     0.280 HD
ENDROOT
BRANCH   1   8
ATOM      8  C13 <0> d          -0.007  -2.955  -0.006  0.00  0.00     0.274 C 
BRANCH   8   9
ATOM      9  C7  <0> d           1.266  -2.147  -0.018  0.00  0.00    -0.015 A 
ATOM     10  C5  <0> d           1.225  -0.684  -0.015  0.00  0.00    -0.001 A 
ATOM     11  C4  <0> d           2.434   0.039  -0.027  0.00  0.00     0.054 A 
ATOM     12  C6  <0> d           0.002  -0.004   0.002  0.00  0.00     0.014 A 
ATOM     13  C3  <0> d           2.387   1.429  -0.014  0.00  0.00    -0.030 A 
ATOM     14  N1  <0> d           3.633  -0.643  -0.051  0.00  0.00    -0.313 N 
ATOM     15  C2  <0> d           1.172   2.079   0.002  0.00  0.00     0.009 A 
ATOM     16  C12 <0> d           3.662   2.235  -0.018  0.00  0.00     0.042 C 
ATOM     17  C1  <0> d          -0.016   1.361   0.009  0.00  0.00     0.002 A 
ATOM     18  C11 <0> d           4.766   1.413   0.654  0.00  0.00     0.025 C 
ATOM     19  C10 <0> d           4.907   0.081  -0.085  0.00  0.00     0.133 C 
ATOM     20  C9  <0> d           3.657  -1.991  -0.046  0.00  0.00     0.248 A 
ATOM     21  C8  <0> d           2.475  -2.760  -0.033  0.00  0.00     0.084 A 
ATOM     22  O1  <0> d           4.733  -2.563  -0.054  0.00  0.00    -0.268 OA
ENDBRANCH   8   9
ENDBRANCH   1   8
BRANCH   5  23
ATOM     23  C19 <0> d          -3.727  -4.326   2.905  0.00  0.00     0.158 C 
BRANCH  23  24
ATOM     24  N3  <0> d          -4.258  -4.237   4.267  0.00  0.00    -0.260 N 
ATOM     25  N5  <0> d          -3.686  -4.684   5.330  0.00  0.00    -0.066 NA
ATOM     26  N4  <0> d          -4.417  -4.444   6.362  0.00  0.00    -0.134 NA
ATOM     27  C21 <0> d          -5.525  -3.806   5.968  0.00  0.00     0.101 A 
ATOM     28  C20 <0> d          -5.430  -3.664   4.625  0.00  0.00     0.144 A 
BRANCH  27  29
ATOM     29  C22 <0> d          -6.655  -3.335   6.847  0.00  0.00     0.292 C 
BRANCH  29  30
ATOM     30  N6  <0> d          -7.602  -4.437   7.061  0.00  0.00    -0.074 N 
ATOM     31  H27 <0> d          -8.426  -4.093   7.703  0.00  0.00     0.274 HD
ATOM     32  H28 <0> d          -7.083  -5.277   7.548  0.00  0.00     0.274 HD
ATOM     33  H30 <0> d          -8.005  -4.768   6.092  0.00  0.00     0.274 HD
ENDBRANCH  29  30
ENDBRANCH  27  29
ENDBRANCH  23  24
ENDBRANCH   5  23
TORSDOF 6
