REMARK  7 active torsions:
REMARK  status: ('A' for Active; 'I' for Inactive)
REMARK    1  A    between atoms: C2_2  and  N1_3 
REMARK    2  A    between atoms: C3_4  and  C16_25 
REMARK    3  A    between atoms: C4_7  and  S1_8 
REMARK    4  A    between atoms: S1_8  and  C5_9 
REMARK    5  A    between atoms: C5_9  and  C6_10 
REMARK       I    between atoms: C6_10  and  N4_12 
REMARK    6  A    between atoms: N4_12  and  C7_13 
REMARK    7  A    between atoms: C8_14  and  C15_22 
REMARK       I    between atoms: C15_22  and  N5_24 
ROOT
ATOM      1  C6  <0> d           3.730  10.699  -0.195  0.00  0.00     0.232 C 
ATOM      2  O1  <0> d           4.872  10.449  -0.518  0.00  0.00    -0.272 OA
ATOM      3  N4  <0> d           3.356  11.976   0.023  0.00  0.00    -0.320 N 
ATOM      4  H8  <0> d           2.443  12.176   0.282  0.00  0.00     0.169 HD
ENDROOT
BRANCH   1   5
ATOM      5  C5  <0> d           2.730   9.583  -0.038  0.00  0.00     0.185 C 
BRANCH   5   6
ATOM      6  S1  <0> d           3.530   8.000  -0.397  0.00  0.00    -0.081 SA
BRANCH   6   7
ATOM      7  C4  <0> d           2.172   6.906  -0.144  0.00  0.00     0.192 A 
ATOM      8  N1  <0> d           2.193   5.545  -0.272  0.00  0.00    -0.307 N 
ATOM      9  C3  <0> d           0.914   5.126   0.019  0.00  0.00     0.171 A 
ATOM     10  N2  <0> d           0.212   6.201   0.304  0.00  0.00    -0.128 NA
ATOM     11  N3  <0> d           0.953   7.247   0.208  0.00  0.00    -0.122 NA
BRANCH   8  12
ATOM     12  C2  <0> d           3.337   4.708  -0.643  0.00  0.00     0.128 C 
ATOM     13  C1  <0> d           3.376   4.544  -2.164  0.00  0.00     0.027 C 
ENDBRANCH   8  12
BRANCH   9  14
ATOM     14  C16 <0> d           0.426   3.737   0.017  0.00  0.00     0.052 A 
ATOM     15  S3  <0> d           1.361   2.216   0.001  0.00  0.00    -0.098 SA
ATOM     16  C19 <0> d          -0.013   1.076   0.008  0.00  0.00     0.050 A 
ATOM     17  C18 <0> d          -1.081   1.915   0.017  0.00  0.00     0.009 A 
ATOM     18  C17 <0> d          -0.866   3.275   0.026  0.00  0.00     0.023 A 
ENDBRANCH   9  14
ENDBRANCH   6   7
ENDBRANCH   5   6
ENDBRANCH   1   5
BRANCH   3  19
ATOM     19  C7  <0> d           4.277  13.002  -0.121  0.00  0.00     0.093 A 
ATOM     20  S2  <0> d           5.947  12.896  -0.570  0.00  0.00    -0.075 SA
ATOM     21  C10 <0> d           6.367  14.615  -0.519  0.00  0.00    -0.008 A 
ATOM     22  C9  <0> d           5.224  15.239  -0.160  0.00  0.00    -0.026 A 
ATOM     23  C11 <0> d           7.691  15.251  -0.808  0.00  0.00     0.047 C 
ATOM     24  C8  <0> d           4.082  14.365   0.052  0.00  0.00     0.072 A 
ATOM     25  C14 <0> d           5.173  16.754  -0.004  0.00  0.00     0.041 C 
ATOM     26  C13 <0> d           6.601  17.282   0.145  0.00  0.00     0.005 C 
ATOM     27  C12 <0> d           7.471  16.759  -1.001  0.00  0.00     0.005 C 
BRANCH  24  28
ATOM     28  C15 <0> d           2.775  14.904   0.439  0.00  0.00     0.252 C 
ATOM     29  O2  <0> d           2.495  15.036   1.616  0.00  0.00    -0.268 OA
ATOM     30  N5  <0> d           1.882  15.253  -0.509  0.00  0.00    -0.366 N 
ATOM     31  H17 <0> d           2.105  15.148  -1.447  0.00  0.00     0.159 HD
ATOM     32  H18 <0> d           1.017  15.609  -0.253  0.00  0.00     0.159 HD
ENDBRANCH  24  28
ENDBRANCH   3  19
TORSDOF 7
