REMARK  4 active torsions:
REMARK  status: ('A' for Active; 'I' for Inactive)
REMARK    1  A    between atoms: C4_4  and  C6_6 
REMARK    2  A    between atoms: C4_4  and  N1_9 
REMARK    3  A    between atoms: N1_9  and  C7_10 
REMARK    4  A    between atoms: C7_10  and  C8_11 
ROOT
ATOM      1  N1  <0> d           1.982  -1.216  -0.339  0.00  0.00    -0.056 N 
ATOM      2  H10 <0> d           2.156  -0.662  -1.164  0.00  0.00     0.278 HD
ATOM      3  H19 <0> d           2.859  -1.537   0.043  0.00  0.00     0.278 HD
ENDROOT
BRANCH   1   4
ATOM      4  C4  <0> d           1.281  -0.400   0.661  0.00  0.00     0.212 C 
ATOM      5  C3  <0> d          -0.119  -0.013   0.140  0.00  0.00     0.050 C 
ATOM      6  C2  <0> d          -1.060  -1.081   0.748  0.00  0.00     0.003 C 
ATOM      7  C1  <0> d          -0.465  -1.296   2.162  0.00  0.00     0.003 C 
ATOM      8  C5  <0> d           1.060  -1.216   1.947  0.00  0.00     0.050 C 
BRANCH   4   9
ATOM      9  C6  <0> d           2.079   0.840   0.967  0.00  0.00     0.210 C 
ATOM     10  O1  <0> d           1.628   1.685   1.721  0.00  0.00    -0.646 OA
ATOM     11  O2  <0> d           3.178   0.999   0.462  0.00  0.00    -0.646 OA
ENDBRANCH   4   9
ENDBRANCH   1   4
BRANCH   1  12
ATOM     12  C7  <0> d           1.151  -2.375  -0.696  0.00  0.00     0.239 C 
BRANCH  12  13
ATOM     13  C8  <0> d           1.934  -3.295  -1.634  0.00  0.00     0.026 C 
ATOM     14  C11 <0> d           1.111  -4.584  -1.913  0.00  0.00     0.146 C 
ATOM     15  S1  <0> d           1.926  -5.178  -3.455  0.00  0.00     0.144 S 
ATOM     16  C10 <0> d           2.677  -3.600  -4.029  0.00  0.00     0.141 C 
ATOM     17  O3  <0> d           2.964  -6.085  -3.110  0.00  0.00    -0.228 OA
ATOM     18  O4  <0> d           0.927  -5.579  -4.383  0.00  0.00    -0.228 OA
ATOM     19  C9  <0> d           2.178  -2.583  -2.975  0.00  0.00     0.022 C 
ENDBRANCH  12  13
ENDBRANCH   1  12
TORSDOF 4
