REMARK  5 active torsions:
REMARK  status: ('A' for Active; 'I' for Inactive)
REMARK    1  A    between atoms: N3_8  and  C7_11 
REMARK    2  A    between atoms: C7_11  and  N4_12 
REMARK    3  A    between atoms: C10_15  and  N5_18 
REMARK    4  A    between atoms: N5_18  and  S1_19 
REMARK    5  A    between atoms: S1_19  and  C13_22 
ROOT
ATOM      1  N4  <0> d          -2.462   7.062   1.399  0.00  0.00    -0.053 N 
ATOM      2  C8  <0> d          -3.424   6.422   2.306  0.00  0.00     0.239 C 
ATOM      3  C9  <0> d          -3.232   6.967   3.723  0.00  0.00     0.053 C 
ATOM      4  C10 <0> d          -3.441   8.484   3.714  0.00  0.00     0.096 C 
ATOM      5  C11 <0> d          -2.459   9.121   2.727  0.00  0.00     0.053 C 
ATOM      6  C12 <0> d          -2.674   8.514   1.338  0.00  0.00     0.239 C 
ATOM      7  H20 <0> d          -1.453   6.887   1.803  0.00  0.00     0.281 HD
ENDROOT
BRANCH   1   8
ATOM      8  C7  <0> d          -2.523   6.464   0.059  0.00  0.00     0.390 C 
BRANCH   8   9
ATOM      9  N3  <0> d          -1.755   5.216   0.045  0.00  0.00    -0.191 N 
ATOM     10  N2  <0> d          -0.358   5.105   0.032  0.00  0.00    -0.148 NA
ATOM     11  C4  <0> d          -0.056   3.827   0.022  0.00  0.00     0.158 A 
ATOM     12  N1  <0> d          -1.232   3.100   0.030  0.00  0.00    -0.256 N 
ATOM     13  C5  <0> d           1.188   3.146   0.007  0.00  0.00     0.053 A 
ATOM     14  C3  <0> d          -1.189   1.726   0.017  0.00  0.00     0.103 A 
ATOM     15  C6  <0> d          -2.264   3.967   0.044  0.00  0.00     0.352 A 
ATOM     16  C2  <0> d          -0.013   1.076   0.008  0.00  0.00     0.018 A 
ATOM     17  C1  <0> d           1.203   1.791   0.000  0.00  0.00     0.005 A 
ATOM     18  O1  <0> d          -3.447   3.675   0.053  0.00  0.00    -0.244 OA
ENDBRANCH   8   9
ENDBRANCH   1   8
BRANCH   4  19
ATOM     19  N5  <0> d          -3.201   9.019   5.057  0.00  0.00    -0.310 N 
ATOM     20  H16 <0> d          -2.173   9.109   5.437  0.00  0.00     0.172 HD
BRANCH  19  21
ATOM     21  S1  <0> d          -4.471   9.255   6.093  0.00  0.00     0.265 S 
ATOM     22  O2  <0> d          -3.920   9.750   7.305  0.00  0.00    -0.200 OA
ATOM     23  O3  <0> d          -5.465   9.963   5.363  0.00  0.00    -0.200 OA
BRANCH  21  24
ATOM     24  C13 <0> d          -5.149   7.670   6.457  0.00  0.00     0.119 A 
ATOM     25  S2  <0> d          -6.446   6.780   5.613  0.00  0.00    -0.088 SA
ATOM     26  C16 <0> d          -6.461   5.321   6.642  0.00  0.00     0.051 A 
ATOM     27  C15 <0> d          -5.496   5.608   7.550  0.00  0.00     0.009 A 
ATOM     28  C14 <0> d          -4.824   6.812   7.455  0.00  0.00     0.033 A 
ENDBRANCH  21  24
ENDBRANCH  19  21
ENDBRANCH   4  19
TORSDOF 5
