REMARK  5 active torsions:
REMARK  status: ('A' for Active; 'I' for Inactive)
REMARK    1  A    between atoms: C2_2  and  C3_3 
REMARK    2  A    between atoms: C2_2  and  N1_6 
REMARK    3  A    between atoms: C3_3  and  O1_4 
REMARK    4  A    between atoms: N1_6  and  C5_7 
REMARK    5  A    between atoms: C5_7  and  C9_12 
ROOT
ATOM      1  C5  <0> d          -0.230   0.006  -2.386  0.00  0.00     0.222 C 
ATOM      2  C6  <0> d          -1.525  -0.737  -2.061  0.00  0.00     0.061 C 
ATOM      3  C7  <0> d          -2.483   0.180  -1.250  0.00  0.00     0.077 C 
ATOM      4  S1  <0> d          -2.191   1.780  -2.124  0.00  0.00    -0.166 SA
ATOM      5  C8  <0> d          -0.418   1.526  -2.553  0.00  0.00     0.124 C 
ENDROOT
BRANCH   1   6
ATOM      6  N1  <0> d           0.733  -0.232  -1.302  0.00  0.00    -0.049 N 
ATOM      7  H10 <0> d           1.562   0.321  -1.461  0.00  0.00     0.279 HD
ATOM      8  H17 <0> d           0.981  -1.210  -1.281  0.00  0.00     0.279 HD
BRANCH   6   9
ATOM      9  C2  <0> d           0.130   0.148  -0.018  0.00  0.00     0.207 C 
ATOM     10  C1  <0> d          -0.020   1.669   0.044  0.00  0.00     0.042 C 
BRANCH   9  11
ATOM     11  C3  <0> d           1.028  -0.324   1.127  0.00  0.00     0.199 C 
BRANCH  11  12
ATOM     12  O1  <0> d           2.274   0.374   1.073  0.00  0.00    -0.394 OA
ATOM     13  C4  <0> d           3.192   0.006   2.105  0.00  0.00     0.201 C 
ENDBRANCH  11  12
ENDBRANCH   9  11
ENDBRANCH   6   9
ENDBRANCH   1   6
BRANCH   1  14
ATOM     14  C9  <0> d           0.336  -0.554  -3.665  0.00  0.00     0.211 C 
ATOM     15  O2  <0> d           1.367  -1.206  -3.642  0.00  0.00    -0.646 OA
ATOM     16  O3  <0> d          -0.236  -0.356  -4.723  0.00  0.00    -0.646 OA
ENDBRANCH   1  14
TORSDOF 5
