REMARK  3 active torsions:
REMARK  status: ('A' for Active; 'I' for Inactive)
REMARK    1  A    between atoms: C5_5  and  N4_12 
REMARK    2  A    between atoms: N4_12  and  C9_13 
REMARK    3  A    between atoms: C9_13  and  C10_14 
ROOT
ATOM      1  C1  <0> d          -0.018   1.503   0.010  0.00  0.00     0.073 C 
ATOM      2  C2  <0> d           0.002  -0.004   0.002  0.00  0.00     0.065 A 
ATOM      3  C3  <0> d           0.008  -0.858  -1.180  0.00  0.00     0.040 A 
ATOM      4  C4  <0> d          -0.002  -0.615  -2.559  0.00  0.00     0.048 A 
ATOM      5  C5  <0> d           0.009  -1.707  -3.413  0.00  0.00     0.047 A 
ATOM      6  C6  <0> d           0.028  -2.994  -2.876  0.00  0.00     0.148 A 
ATOM      7  N1  <0> d           0.037  -3.195  -1.577  0.00  0.00    -0.239 NA
ATOM      8  C7  <0> d           0.029  -2.187  -0.714  0.00  0.00     0.157 A 
ATOM      9  N2  <0> d           0.034  -2.120   0.655  0.00  0.00    -0.256 N 
ATOM     10  N3  <0> d           0.023  -0.778   1.049  0.00  0.00    -0.175 NA
ATOM     11  C8  <0> d           0.053  -3.270   1.562  0.00  0.00     0.182 C 
ENDROOT
BRANCH   5  12
ATOM     12  N4  <0> d          -0.002  -1.520  -4.800  0.00  0.00    -0.384 N 
ATOM     13  H9  <0> d          -0.016  -0.623  -5.168  0.00  0.00     0.160 HD
BRANCH  12  14
ATOM     14  C9  <0> d           0.009  -2.679  -5.696  0.00  0.00     0.161 C 
BRANCH  14  15
ATOM     15  C10 <0> d          -0.004  -2.208  -7.127  0.00  0.00    -0.005 A 
ATOM     16  C13 <0> d           1.179  -1.970  -7.807  0.00  0.00     0.128 A 
ATOM     17  N6  <0> d           1.128  -1.563  -9.066  0.00  0.00    -0.254 NA
ATOM     18  C12 <0> d          -0.029  -1.373  -9.667  0.00  0.00     0.232 A 
ATOM     19  N5  <0> d          -1.175  -1.584  -9.050  0.00  0.00    -0.254 NA
ATOM     20  C11 <0> d          -1.202  -1.997  -7.793  0.00  0.00     0.128 A 
ENDBRANCH  14  15
ENDBRANCH  12  14
ENDBRANCH   5  12
TORSDOF 3
