REMARK  4 active torsions:
REMARK  status: ('A' for Active; 'I' for Inactive)
REMARK    1  A    between atoms: C2_2  and  C3_3 
REMARK    2  A    between atoms: C2_2  and  N4_16 
REMARK       I    between atoms: C3_3  and  N1_5 
REMARK    3  A    between atoms: N1_5  and  N2_6 
REMARK       I    between atoms: N2_6  and  C4_7 
REMARK    4  A    between atoms: C4_7  and  C5_9 
ROOT
ATOM      1  C3  <0> d           0.707  -0.490  -1.238  0.00  0.00     0.259 C 
ATOM      2  O1  <0> d           1.704  -1.174  -1.140  0.00  0.00    -0.269 OA
ATOM      3  N1  <0> d           0.231  -0.164  -2.456  0.00  0.00    -0.265 N 
ATOM      4  H6  <0> d          -0.566   0.383  -2.534  0.00  0.00     0.190 HD
ENDROOT
BRANCH   3   5
ATOM      5  N2  <0> d           0.887  -0.616  -3.608  0.00  0.00    -0.262 N 
ATOM      6  C4  <0> d           0.410  -0.290  -4.826  0.00  0.00     0.286 C 
ATOM      7  O2  <0> d          -0.590   0.397  -4.925  0.00  0.00    -0.264 OA
ATOM      8  H7  <0> d           1.684  -1.163  -3.530  0.00  0.00     0.190 HD
BRANCH   6   9
ATOM      9  C5  <0> d           1.097  -0.763  -6.033  0.00  0.00     0.103 A 
ATOM     10  N3  <0> d           2.231  -1.542  -6.071  0.00  0.00    -0.360 N 
ATOM     11  C8  <0> d           2.556  -1.771  -7.367  0.00  0.00     0.107 A 
ATOM     12  H2  <0> d           2.716  -1.874  -5.299  0.00  0.00     0.165 HD
ATOM     13  C7  <0> d           1.655  -1.145  -8.162  0.00  0.00     0.028 A 
ATOM     14  C6  <0> d           0.727  -0.503  -7.336  0.00  0.00     0.055 A 
ATOM     15 Br1  <0> d           1.653  -1.139 -10.053  0.00  0.00    -0.050 Br
ENDBRANCH   6   9
ENDBRANCH   3   5
BRANCH   1  16
ATOM     16  C2  <0> d           0.002  -0.004   0.002  0.00  0.00     0.179 C 
ATOM     17  C1  <0> d          -0.019   1.526   0.010  0.00  0.00     0.043 C 
BRANCH  16  18
ATOM     18  N4  <0> d           0.711  -0.489   1.189  0.00  0.00    -0.337 N 
ATOM     19  C11 <0> d           1.994  -0.229   1.518  0.00  0.00     0.209 A 
ATOM     20  N5  <0> d           2.268  -0.831   2.643  0.00  0.00    -0.255 NA
ATOM     21  C10 <0> d           1.182  -1.497   3.064  0.00  0.00     0.135 A 
ATOM     22  C9  <0> d           0.197  -1.296   2.168  0.00  0.00     0.112 A 
ENDBRANCH  16  18
ENDBRANCH   1  16
TORSDOF 4
