REMARK  5 active torsions:
REMARK  status: ('A' for Active; 'I' for Inactive)
REMARK    1  A    between atoms: C6_6  and  S1_7 
REMARK    2  A    between atoms: S1_7  and  C7_10 
REMARK    3  A    between atoms: C7_10  and  C8_11 
REMARK    4  A    between atoms: C8_11  and  N1_20 
REMARK    5  A    between atoms: C11_14  and  O3_17 
ROOT
ATOM      1  C7  <0> d          -1.409  -0.535   0.263  0.00  0.00     0.173 C 
ENDROOT
BRANCH   1   2
ATOM      2  S1  <0> d          -1.384  -2.349   0.253  0.00  0.00     0.177 S 
ATOM      3  O1  <0> d          -1.107  -2.827  -1.056  0.00  0.00    -0.223 OA
ATOM      4  O2  <0> d          -0.655  -2.834   1.372  0.00  0.00    -0.223 OA
BRANCH   2   5
ATOM      5  C6  <0> d          -3.052  -2.826   0.562  0.00  0.00     0.059 A 
ATOM      6  C1  <0> d          -3.486  -3.022   1.860  0.00  0.00     0.025 A 
ATOM      7  C2  <0> d          -4.795  -3.392   2.103  0.00  0.00     0.020 A 
ATOM      8  C3  <0> d          -5.669  -3.575   1.047  0.00  0.00     0.011 A 
ATOM      9  C4  <0> d          -5.234  -3.384  -0.252  0.00  0.00     0.020 A 
ATOM     10 Br1  <0> d          -7.459  -4.088   1.379  0.00  0.00    -0.051 Br
ATOM     11  C5  <0> d          -3.925  -3.009  -0.494  0.00  0.00     0.025 A 
ENDBRANCH   2   5
ENDBRANCH   1   2
BRANCH   1  12
ATOM     12  C8  <0> d           0.002  -0.004   0.002  0.00  0.00     0.250 C 
BRANCH  12  13
ATOM     13  N1  <0> d          -0.031   1.473   0.036  0.00  0.00    -0.070 N 
ATOM     14  C9  <0> d          -0.806   1.987  -1.113  0.00  0.00     0.237 C 
ATOM     15  C10 <0> d          -0.927   3.507  -0.991  0.00  0.00     0.059 C 
ATOM     16  C11 <0> d           0.473   4.127  -0.995  0.00  0.00     0.121 C 
ATOM     17  C12 <0> d           1.290   3.531   0.155  0.00  0.00     0.059 C 
ATOM     18  C13 <0> d           1.346   2.010   0.000  0.00  0.00     0.237 C 
ATOM     19  H19 <0> d          -0.485   1.776   0.906  0.00  0.00     0.279 HD
BRANCH  16  20
ATOM     20  O3  <0> d           0.370   5.542  -0.824  0.00  0.00    -0.395 OA
ATOM     21  H18 <0> d          -0.136   5.986  -1.518  0.00  0.00     0.210 HD
ENDBRANCH  16  20
ENDBRANCH  12  13
ENDBRANCH   1  12
TORSDOF 5
