REMARK  4 active torsions:
REMARK  status: ('A' for Active; 'I' for Inactive)
REMARK       I    between atoms: N1_2  and  C2_3 
REMARK       I    between atoms: C2_3  and  N2_5 
REMARK       I    between atoms: N2_5  and  C3_6 
REMARK    1  A    between atoms: C3_6  and  C4_8 
REMARK    2  A    between atoms: C4_8  and  O3_9 
REMARK    3  A    between atoms: O3_9  and  C5_10 
REMARK    4  A    between atoms: C5_10  and  C6_12 
ROOT
ATOM      1  C6  <0> d          -0.098   5.350   0.028  0.00  0.00     0.157 C 
ATOM      2  C7  <0> d          -0.053   3.846   0.022  0.00  0.00    -0.006 A 
ATOM      3  C8  <0> d          -1.238   3.132   0.030  0.00  0.00     0.011 A 
ATOM      4  C9  <0> d          -1.219   1.751   0.017  0.00  0.00     0.001 A 
ATOM      5  C10 <0> d          -0.013   1.076   0.008  0.00  0.00     0.003 A 
ATOM      6  C11 <0> d           1.173   1.782   0.000  0.00  0.00     0.038 A 
ATOM      7  C12 <0> d           1.157   3.172   0.007  0.00  0.00     0.083 A 
ATOM      8  O5  <0> d           2.332   3.847  -0.000  0.00  0.00    -0.310 OA
ATOM      9  C13 <0> d           2.378   5.138   0.407  0.00  0.00     0.083 A 
ATOM     10  C14 <0> d           1.233   5.917   0.442  0.00  0.00    -0.006 A 
ATOM     11  C15 <0> d           1.308   7.234   0.861  0.00  0.00     0.011 A 
ATOM     12  C16 <0> d           2.521   7.774   1.244  0.00  0.00     0.001 A 
ATOM     13  C17 <0> d           3.665   6.999   1.211  0.00  0.00     0.003 A 
ATOM     14  C18 <0> d           3.596   5.685   0.794  0.00  0.00     0.038 A 
ENDROOT
BRANCH   1  15
ATOM     15  C5  <0> d          -0.439   5.842  -1.355  0.00  0.00     0.272 C 
ATOM     16  O4  <0> d           0.321   6.576  -1.940  0.00  0.00    -0.264 OA
BRANCH  15  17
ATOM     17  O3  <0> d          -1.589   5.464  -1.936  0.00  0.00    -0.311 OA
BRANCH  17  18
ATOM     18  C4  <0> d          -1.852   5.976  -3.269  0.00  0.00     0.281 C 
BRANCH  18  19
ATOM     19  C3  <0> d          -3.177   5.449  -3.757  0.00  0.00     0.249 C 
ATOM     20  N2  <0> d          -3.632   5.795  -4.978  0.00  0.00    -0.278 N 
ATOM     21  C2  <0> d          -4.817   5.323  -5.414  0.00  0.00     0.322 C 
ATOM     22  H5  <0> d          -3.106   6.382  -5.542  0.00  0.00     0.173 HD
ATOM     23  N1  <0> d          -5.271   5.669  -6.635  0.00  0.00    -0.347 N 
ATOM     24  O1  <0> d          -5.475   4.587  -4.706  0.00  0.00    -0.247 OA
ATOM     25  C1  <0> d          -6.559   5.157  -7.109  0.00  0.00     0.151 C 
ATOM     26  H4  <0> d          -4.745   6.256  -7.199  0.00  0.00     0.163 HD
ATOM     27  O2  <0> d          -3.834   4.715  -3.051  0.00  0.00    -0.271 OA
ENDBRANCH  18  19
ENDBRANCH  17  18
ENDBRANCH  15  17
ENDBRANCH   1  15
TORSDOF 4
