REMARK  5 active torsions:
REMARK  status: ('A' for Active; 'I' for Inactive)
REMARK    1  A    between atoms: C3_3  and  C10_11 
REMARK    2  A    between atoms: C5_5  and  C7_7 
REMARK    3  A    between atoms: C8_8  and  C9_9 
REMARK    4  A    between atoms: C9_9  and  N1_10 
REMARK    5  A    between atoms: C10_11  and  N2_12 
ROOT
ATOM      1  C1  <0> d          -0.017   1.375   0.010  0.00  0.00     0.002 A 
ATOM      2  C2  <0> d           1.170   2.086   0.002  0.00  0.00     0.009 A 
ATOM      3  C3  <0> d           2.382   1.420  -0.013  0.00  0.00    -0.038 A 
ATOM      4  C4  <0> d           2.415   0.041  -0.021  0.00  0.00     0.029 A 
ATOM      5  C5  <0> d           1.222  -0.682  -0.013  0.00  0.00     0.018 A 
ATOM      6  C6  <0> d           0.002  -0.004   0.002  0.00  0.00     0.020 A 
ENDROOT
BRANCH   3   7
ATOM      7  C10 <0> d           3.670   2.203  -0.023  0.00  0.00     0.173 C 
BRANCH   7   8
ATOM      8  N2  <0> d           4.102   2.449   1.355  0.00  0.00    -0.284 N 
ATOM      9  C16 <0> d           4.891   1.548   1.918  0.00  0.00     0.226 C 
ATOM     10  C15 <0> d           5.238   1.515   3.378  0.00  0.00     0.103 C 
ATOM     11  O2  <0> d           5.370   0.694   1.204  0.00  0.00    -0.273 OA
ATOM     12  C14 <0> d           3.976   1.752   4.220  0.00  0.00     0.010 C 
ATOM     13  C13 <0> d           3.779   3.247   4.409  0.00  0.00     0.010 C 
ATOM     14  C12 <0> d           4.285   4.059   3.232  0.00  0.00     0.103 C 
ATOM     15  C11 <0> d           3.660   3.572   1.952  0.00  0.00     0.226 C 
ATOM     16  O1  <0> d           2.748   4.197   1.454  0.00  0.00    -0.273 OA
ENDBRANCH   7   8
ENDBRANCH   3   7
BRANCH   5  17
ATOM     17  C7  <0> d           1.248  -2.114  -0.022  0.00  0.00    -0.065 C 
ATOM     18  C8  <0> d           1.270  -3.288  -0.029  0.00  0.00    -0.074 C 
BRANCH  18  19
ATOM     19  C9  <0> d           1.297  -4.760  -0.037  0.00  0.00     0.323 C 
BRANCH  19  20
ATOM     20  N1  <0> d          -0.078  -5.275  -0.026  0.00  0.00    -0.069 N 
ATOM     21  H7  <0> d          -0.552  -4.952   0.804  0.00  0.00     0.275 HD
ATOM     22  H8  <0> d          -0.569  -4.943  -0.843  0.00  0.00     0.275 HD
ATOM     23  H19 <0> d          -0.060  -6.284  -0.032  0.00  0.00     0.275 HD
ENDBRANCH  19  20
ENDBRANCH  18  19
ENDBRANCH   5  17
TORSDOF 5
