REMARK  4 active torsions:
REMARK  status: ('A' for Active; 'I' for Inactive)
REMARK    1  A    between atoms: C9_11  and  C11_14 
REMARK       I    between atoms: C11_14  and  N2_16 
REMARK    2  A    between atoms: N2_16  and  C12_17 
REMARK    3  A    between atoms: N4_20  and  C15_22 
REMARK    4  A    between atoms: C15_22  and  C16_23 
ROOT
ATOM      1  C11 <0> d           2.194  -4.685   0.833  0.00  0.00     0.267 C 
ATOM      2  O3  <0> d           2.938  -4.569   1.784  0.00  0.00    -0.269 OA
ATOM      3  N2  <0> d           2.699  -4.724  -0.416  0.00  0.00    -0.322 N 
ATOM      4  H11 <0> d           2.105  -4.818  -1.177  0.00  0.00     0.169 HD
ENDROOT
BRANCH   1   5
ATOM      5  C9  <0> d           0.706  -4.787   1.048  0.00  0.00     0.225 C 
ATOM      6  C8  <0> d           0.342  -4.129   2.355  0.00  0.00     0.267 C 
ATOM      7  N1  <0> d           0.086  -2.805   2.389  0.00  0.00    -0.322 N 
ATOM      8  O1  <0> d           0.279  -4.788   3.371  0.00  0.00    -0.269 OA
ATOM      9  C6  <0> d           0.038  -2.085   1.188  0.00  0.00     0.069 A 
ATOM     10  H7  <0> d          -0.063  -2.356   3.236  0.00  0.00     0.169 HD
ATOM     11  C5  <0> d           0.031  -2.773  -0.024  0.00  0.00     0.098 A 
ATOM     12  C7  <0> d           0.023  -0.700   1.197  0.00  0.00     0.039 A 
ATOM     13  C4  <0> d           0.019  -2.070  -1.216  0.00  0.00     0.040 A 
ATOM     14  O2  <0> d           0.025  -4.133  -0.026  0.00  0.00    -0.319 OA
ATOM     15  C3  <0> d           0.006  -0.687  -1.200  0.00  0.00     0.009 A 
ATOM     16  C2  <0> d           0.002  -0.004   0.002  0.00  0.00    -0.060 A 
ATOM     17  C1  <0> d          -0.018   1.503   0.010  0.00  0.00     0.048 C 
ATOM     18  C10 <0> d           0.298  -6.261   1.088  0.00  0.00     0.068 C 
ENDBRANCH   1   5
BRANCH   3  19
ATOM     19  C12 <0> d           4.089  -4.630  -0.616  0.00  0.00     0.071 A 
ATOM     20  C14 <0> d           4.728  -4.655  -1.814  0.00  0.00     0.143 A 
ATOM     21  N4  <0> d           6.059  -4.535  -1.571  0.00  0.00    -0.275 N 
ATOM     22  N3  <0> d           6.237  -4.442  -0.185  0.00  0.00    -0.183 NA
ATOM     23  C13 <0> d           5.061  -4.498   0.386  0.00  0.00     0.169 A 
BRANCH  21  24
ATOM     24  C15 <0> d           7.121  -4.512  -2.581  0.00  0.00     0.194 C 
BRANCH  24  25
ATOM     25  C16 <0> d           7.955  -3.270  -2.404  0.00  0.00     0.022 A 
ATOM     26  C21 <0> d           9.062  -3.291  -1.575  0.00  0.00     0.045 A 
ATOM     27  C20 <0> d           9.831  -2.152  -1.417  0.00  0.00     0.024 A 
ATOM     28 Cl1  <0> d           9.490  -4.750  -0.737  0.00  0.00    -0.084 Cl
ATOM     29  C19 <0> d           9.487  -0.988  -2.079  0.00  0.00     0.005 A 
ATOM     30  C18 <0> d           8.378  -0.963  -2.904  0.00  0.00     0.043 A 
ATOM     31  C17 <0> d           7.611  -2.104  -3.067  0.00  0.00     0.126 A 
ATOM     32  F1  <0> d           6.527  -2.080  -3.873  0.00  0.00    -0.205 F 
ENDBRANCH  24  25
ENDBRANCH  21  24
ENDBRANCH   3  19
TORSDOF 4
