REMARK  5 active torsions:
REMARK  status: ('A' for Active; 'I' for Inactive)
REMARK    1  A    between atoms: C2_2  and  C3_4 
REMARK    2  A    between atoms: C3_4  and  C4_5 
REMARK    3  A    between atoms: C3_4  and  C19_23 
REMARK    4  A    between atoms: C4_5  and  C5_6 
REMARK    5  A    between atoms: C4_5  and  C11_12 
ROOT
ATOM      1  C4  <0> d          -1.792  -0.868  -1.321  0.00  0.00     0.069 C 
ENDROOT
BRANCH   1   2
ATOM      2  C3  <0> d          -1.472  -0.706   0.166  0.00  0.00     0.135 C 
BRANCH   2   3
ATOM      3  C2  <0> d          -1.443  -2.062   0.824  0.00  0.00     0.135 C 
ATOM      4  C1  <0> d          -0.156  -2.843   0.884  0.00  0.00     0.091 C 
ATOM      5  O1  <0> d          -2.452  -2.522   1.302  0.00  0.00    -0.298 OA
ENDBRANCH   2   3
BRANCH   2   6
ATOM      6  C19 <0> d          -2.530   0.146   0.818  0.00  0.00     0.135 C 
ATOM      7  O3  <0> d          -3.468  -0.375   1.372  0.00  0.00    -0.298 OA
ATOM      8  C20 <0> d          -2.417   1.648   0.779  0.00  0.00     0.091 C 
ENDBRANCH   2   6
ENDBRANCH   1   2
BRANCH   1   9
ATOM      9  C5  <0> d          -3.120  -1.562  -1.477  0.00  0.00    -0.050 A 
ATOM     10  C10 <0> d          -3.195  -2.769  -2.148  0.00  0.00     0.007 A 
ATOM     11  C9  <0> d          -4.412  -3.408  -2.287  0.00  0.00     0.001 A 
ATOM     12  C8  <0> d          -5.557  -2.837  -1.762  0.00  0.00     0.000 A 
ATOM     13  C7  <0> d          -5.483  -1.628  -1.096  0.00  0.00     0.001 A 
ATOM     14  C6  <0> d          -4.265  -0.991  -0.954  0.00  0.00     0.007 A 
ENDBRANCH   1   9
BRANCH   1  15
ATOM     15  C11 <0> d          -1.857   0.511  -1.981  0.00  0.00     0.184 A 
ATOM     16  N2  <0> d          -2.345   0.328  -3.357  0.00  0.00    -0.374 N 
ATOM     17  C18 <0> d          -1.602   0.746  -4.340  0.00  0.00     0.055 A 
ATOM     18  H19 <0> d          -3.200  -0.096  -3.528  0.00  0.00     0.160 HD
ATOM     19  C13 <0> d          -0.290   1.394  -4.088  0.00  0.00     0.061 A 
ATOM     20  C17 <0> d          -2.043   0.587  -5.736  0.00  0.00     0.031 A 
ATOM     21  N1  <0> d           0.174   1.573  -2.863  0.00  0.00    -0.323 N 
ATOM     22  C14 <0> d           0.464   1.824  -5.203  0.00  0.00     0.032 A 
ATOM     23  C12 <0> d          -0.514   1.178  -1.790  0.00  0.00     0.245 A 
ATOM     24  H20 <0> d           1.036   2.001  -2.741  0.00  0.00     0.169 HD
ATOM     25  O2  <0> d          -0.067   1.353  -0.673  0.00  0.00    -0.271 OA
ATOM     26  C15 <0> d          -0.006   1.643  -6.459  0.00  0.00     0.002 A 
ATOM     27  C16 <0> d          -1.242   1.034  -6.728  0.00  0.00     0.002 A 
ENDBRANCH   1  15
TORSDOF 5
