REMARK  5 active torsions:
REMARK  status: ('A' for Active; 'I' for Inactive)
REMARK    1  A    between atoms: C2_2  and  C3_3 
REMARK    2  A    between atoms: C5_6  and  C6_8 
REMARK    3  A    between atoms: C6_8  and  N2_9 
REMARK       I    between atoms: N2_9  and  C8_11 
REMARK    4  A    between atoms: C8_11  and  C9_13 
REMARK    5  A    between atoms: N4_25  and  C17_26 
ROOT
ATOM      1  C9  <0> d          -5.557  -5.586   0.309  0.00  0.00     0.034 A 
ATOM      2  C10 <0> d          -5.351  -6.114   1.587  0.00  0.00     0.019 A 
ATOM      3  C11 <0> d          -5.414  -7.473   1.790  0.00  0.00     0.033 A 
ATOM      4  C12 <0> d          -5.684  -8.330   0.725  0.00  0.00     0.064 A 
ATOM      5  C13 <0> d          -5.891  -7.809  -0.555  0.00  0.00     0.063 A 
ATOM      6  C14 <0> d          -5.833  -6.438  -0.760  0.00  0.00     0.049 A 
ATOM      7  N3  <0> d          -6.161  -8.653  -1.629  0.00  0.00    -0.317 N 
ATOM      8  H1  <0> d          -6.303  -8.282  -2.514  0.00  0.00     0.169 HD
ATOM      9  C15 <0> d          -6.224  -9.987  -1.440  0.00  0.00     0.314 A 
ATOM     10  O2  <0> d          -6.459 -10.729  -2.373  0.00  0.00    -0.262 OA
ATOM     11  C16 <0> d          -6.004 -10.541  -0.073  0.00  0.00     0.316 A 
ATOM     12  O3  <0> d          -6.057 -11.739   0.119  0.00  0.00    -0.262 OA
ATOM     13  N4  <0> d          -5.744  -9.700   0.948  0.00  0.00    -0.308 N 
ENDROOT
BRANCH   1  14
ATOM     14  C8  <0> d          -5.489  -4.127   0.092  0.00  0.00     0.253 C 
ATOM     15  N2  <0> d          -4.611  -3.382   0.793  0.00  0.00    -0.348 N 
ATOM     16  C7  <0> d          -3.637  -4.033   1.674  0.00  0.00     0.153 C 
ATOM     17  O1  <0> d          -6.224  -3.597  -0.718  0.00  0.00    -0.267 OA
BRANCH  15  18
ATOM     18  C6  <0> d          -4.629  -1.922   0.673  0.00  0.00     0.173 C 
BRANCH  18  19
ATOM     19  C5  <0> d          -3.712  -1.498  -0.444  0.00  0.00     0.020 A 
ATOM     20  C4  <0> d          -3.978  -1.319  -1.764  0.00  0.00     0.133 A 
ATOM     21  N1  <0> d          -2.974  -0.939  -2.529  0.00  0.00    -0.257 NA
ATOM     22  C3  <0> d          -1.777  -0.742  -2.036  0.00  0.00     0.074 A 
ATOM     23  S1  <0> d          -1.972  -1.097  -0.402  0.00  0.00    -0.076 SA
BRANCH  22  24
ATOM     24  C2  <0> d          -0.526  -0.310  -2.757  0.00  0.00     0.062 C 
ATOM     25  C1  <0> d          -0.430   1.216  -2.741  0.00  0.00     0.012 C 
ENDBRANCH  22  24
ENDBRANCH  18  19
ENDBRANCH  15  18
ENDBRANCH   1  14
BRANCH  13  26
ATOM     26  C17 <0> d          -5.524 -10.231   2.295  0.00  0.00     0.128 C 
ATOM     27  C18 <0> d          -6.861 -10.310   3.036  0.00  0.00     0.027 C 
ENDBRANCH  13  26
TORSDOF 5
