REMARK  1 active torsions:
REMARK  status: ('A' for Active; 'I' for Inactive)
REMARK    1  A    between atoms: C9_12  and  O2_15 
ROOT
ATOM      1  C1  <0> d           0.502   3.117   2.453  0.00  0.00     0.024 C 
ATOM      2  C2  <0> d           0.649   3.489   0.976  0.00  0.00     0.027 C 
ATOM      3  C3  <0> d          -0.687   3.717   0.247  0.00  0.00     0.120 C 
ATOM      4  C4  <0> d          -1.135   2.264   0.019  0.00  0.00     0.221 C 
ATOM      5  O1  <0> d          -2.279   1.888  -0.126  0.00  0.00    -0.273 OA
ATOM      6  N1  <0> d          -0.018   1.461   0.010  0.00  0.00    -0.338 N 
ATOM      7  C5  <0> d           1.106   2.316   0.004  0.00  0.00     0.179 C 
ATOM      8  N2  <0> d           2.474   2.205   0.405  0.00  0.00    -0.264 NA
ATOM      9  C6  <0> d           2.895   3.570   0.403  0.00  0.00     0.019 A 
ATOM     10  C7  <0> d           1.799   4.409   0.676  0.00  0.00    -0.022 A 
ATOM     11  C8  <0> d           1.952   5.773   0.629  0.00  0.00     0.046 A 
ATOM     12  C9  <0> d           3.192   6.328   0.347  0.00  0.00     0.066 A 
ATOM     13  C10 <0> d           4.282   5.504   0.110  0.00  0.00     0.038 A 
ATOM     14  C11 <0> d           4.132   4.131   0.138  0.00  0.00     0.027 A 
ATOM     15  C12 <0> d           3.244   1.415  -0.566  0.00  0.00     0.119 C 
ATOM     16  C13 <0> d           0.002  -0.004   0.002  0.00  0.00     0.154 C 
ENDROOT
BRANCH  12  17
ATOM     17  O2  <0> d           3.339   7.679   0.304  0.00  0.00    -0.361 OA
ATOM     18  H10 <0> d           3.188   8.063  -0.571  0.00  0.00     0.217 HD
ENDBRANCH  12  17
TORSDOF 1
