REMARK  6 active torsions:
REMARK  status: ('A' for Active; 'I' for Inactive)
REMARK    1  A    between atoms: O1_2  and  C2_3 
REMARK    2  A    between atoms: C3_4  and  C19_25 
REMARK    3  A    between atoms: N1_8  and  C11_15 
REMARK    4  A    between atoms: C11_15  and  C12_16 
REMARK       I    between atoms: C19_25  and  N5_27 
REMARK    5  A    between atoms: N5_27  and  C20_28 
REMARK    6  A    between atoms: C20_28  and  C21_29 
ROOT
ATOM      1  C2  <0> d           0.660  -0.616   1.235  0.00  0.00     0.068 C 
ATOM      2  C3  <0> d           1.114   0.162   2.218  0.00  0.00     0.062 C 
ATOM      3  C4  <0> d           1.840  -0.371   3.412  0.00  0.00     0.130 C 
ATOM      4  C5  <0> d           2.888   0.614   3.885  0.00  0.00     0.060 C 
ATOM      5  C6  <0> d           3.090   0.488   5.398  0.00  0.00     0.275 C 
ATOM      6  N1  <0> d           3.935  -0.576   5.759  0.00  0.00     0.093 N 
ATOM      7  C7  <0> d           3.397  -1.908   5.414  0.00  0.00     0.292 C 
ATOM      8  C8  <0> d           3.587  -2.190   3.943  0.00  0.00     0.157 C 
ATOM      9  N2  <0> d           2.466  -1.672   3.140  0.00  0.00    -0.341 N 
ATOM     10  C9  <0> d           2.017  -2.465   2.152  0.00  0.00     0.226 C 
ATOM     11  O2  <0> d           2.560  -3.537   1.987  0.00  0.00    -0.273 OA
ATOM     12  C10 <0> d           0.852  -2.105   1.263  0.00  0.00     0.168 C 
ENDROOT
BRANCH   6  13
ATOM     13  C11 <0> d           4.293  -0.505   7.182  0.00  0.00     0.319 C 
BRANCH  13  14
ATOM     14  C12 <0> d           5.406   0.527   7.377  0.00  0.00     0.210 A 
ATOM     15  N4  <0> d           6.543   0.213   6.503  0.00  0.00    -0.365 N 
ATOM     16  C18 <0> d           6.712   1.225   5.702  0.00  0.00     0.056 A 
ATOM     17  H29 <0> d           7.072  -0.600   6.519  0.00  0.00     0.162 HD
ATOM     18  C13 <0> d           5.693   2.267   6.003  0.00  0.00     0.056 A 
ATOM     19  C17 <0> d           7.672   1.496   4.623  0.00  0.00     0.031 A 
ATOM     20  N3  <0> d           4.934   1.859   6.978  0.00  0.00    -0.365 N 
ATOM     21  C14 <0> d           5.715   3.499   5.202  0.00  0.00     0.031 A 
ATOM     22  H28 <0> d           4.191   2.346   7.370  0.00  0.00     0.162 HD
ATOM     23  C15 <0> d           6.642   3.647   4.234  0.00  0.00     0.002 A 
ATOM     24  C16 <0> d           7.604   2.662   3.950  0.00  0.00     0.002 A 
ENDBRANCH  13  14
ENDBRANCH   6  13
BRANCH   2  25
ATOM     25  C19 <0> d           0.898   1.561   2.127  0.00  0.00     0.252 C 
ATOM     26  O3  <0> d           0.093   2.102   2.862  0.00  0.00    -0.268 OA
ATOM     27  N5  <0> d           1.585   2.291   1.226  0.00  0.00    -0.353 N 
ATOM     28  H22 <0> d           2.173   1.852   0.592  0.00  0.00     0.163 HD
BRANCH  27  29
ATOM     29  C20 <0> d           1.444   3.749   1.206  0.00  0.00     0.162 C 
BRANCH  29  30
ATOM     30  C21 <0> d           2.311   4.322   0.114  0.00  0.00    -0.034 A 
ATOM     31  C24 <0> d           1.820   4.487  -1.139  0.00  0.00     0.058 A 
ATOM     32  S1  <0> d           3.224   5.180  -1.998  0.00  0.00    -0.113 SA
ATOM     33  C23 <0> d           4.372   5.194  -0.631  0.00  0.00     0.050 A 
ATOM     34  C22 <0> d           3.620   4.682   0.373  0.00  0.00     0.016 A 
ENDBRANCH  29  30
ENDBRANCH  27  29
ENDBRANCH   2  25
BRANCH   1  35
ATOM     35  O1  <0> d           0.010  -0.054   0.196  0.00  0.00    -0.359 OA
ATOM     36  C1  <0> d          -1.375  -0.373   0.049  0.00  0.00     0.209 C 
ENDBRANCH   1  35
TORSDOF 6
