REMARK  6 active torsions:
REMARK  status: ('A' for Active; 'I' for Inactive)
REMARK    1  A    between atoms: C2_2  and  C3_3 
REMARK    2  A    between atoms: C3_3  and  C4_4 
REMARK    3  A    between atoms: C4_4  and  C5_5 
REMARK    4  A    between atoms: C4_4  and  N1_7 
REMARK       I    between atoms: N1_7  and  C6_8 
REMARK    5  A    between atoms: C6_8  and  C7_10 
REMARK    6  A    between atoms: C7_10  and  C8_11 
ROOT
ATOM      1  C8  <0> d           1.429  -0.487  -0.014  0.00  0.00     0.033 A 
ATOM      2  C9  <0> d           2.086  -0.712   1.154  0.00  0.00    -0.036 A 
ATOM      3  C10 <0> d           3.472  -1.180   1.090  0.00  0.00     0.005 A 
ATOM      4  C11 <0> d           4.205  -1.429   2.253  0.00  0.00     0.024 A 
ATOM      5  C12 <0> d           5.500  -1.865   2.170  0.00  0.00    -0.024 A 
ATOM      6  C13 <0> d           6.092  -2.068   0.928  0.00  0.00     0.079 A 
ATOM      7  C14 <0> d           5.376  -1.824  -0.238  0.00  0.00     0.075 A 
ATOM      8  C15 <0> d           4.066  -1.380  -0.170  0.00  0.00     0.093 A 
ATOM      9  O3  <0> d           3.358  -1.138  -1.294  0.00  0.00    -0.274 OA
ATOM     10  C16 <0> d           2.086  -0.713  -1.242  0.00  0.00     0.295 A 
ATOM     11  O4  <0> d           1.484  -0.512  -2.282  0.00  0.00    -0.259 OA
ATOM     12  O5  <0> d           7.371  -2.511   0.813  0.00  0.00    -0.340 OA
ATOM     13  C17 <0> d           8.220  -2.404   1.955  0.00  0.00     0.061 C 
ATOM     14  C18 <0> d           7.480  -2.987   3.166  0.00  0.00     0.042 C 
ATOM     15  C19 <0> d           6.258  -2.110   3.450  0.00  0.00     0.044 C 
ATOM     16  C20 <0> d           9.511  -3.189   1.713  0.00  0.00     0.046 C 
ATOM     17  C21 <0> d           8.553  -0.933   2.214  0.00  0.00     0.046 C 
ATOM     18  C22 <0> d           1.406  -0.485   2.480  0.00  0.00     0.050 C 
ENDROOT
BRANCH   1  19
ATOM     19  C7  <0> d           0.002  -0.004   0.002  0.00  0.00     0.148 C 
BRANCH  19  20
ATOM     20  C6  <0> d          -0.018   1.503   0.010  0.00  0.00     0.222 C 
ATOM     21  N1  <0> d          -1.195   2.161   0.019  0.00  0.00    -0.346 N 
ATOM     22  H9  <0> d          -2.028   1.664   0.021  0.00  0.00     0.163 HD
ATOM     23  O2  <0> d           1.024   2.123   0.004  0.00  0.00    -0.273 OA
BRANCH  21  24
ATOM     24  C4  <0> d          -1.214   3.626   0.028  0.00  0.00     0.185 C 
BRANCH  24  25
ATOM     25  C3  <0> d          -2.531   4.121  -0.573  0.00  0.00     0.036 C 
BRANCH  25  26
ATOM     26  C2  <0> d          -2.600   3.723  -2.049  0.00  0.00    -0.002 C 
ATOM     27  C1  <0> d          -3.917   4.219  -2.650  0.00  0.00     0.005 C 
ENDBRANCH  25  26
ENDBRANCH  24  25
BRANCH  24  28
ATOM     28  C5  <0> d          -1.091   4.122   1.445  0.00  0.00     0.196 C 
ATOM     29  O1  <0> d          -0.996   3.333   2.355  0.00  0.00    -0.646 OA
ATOM     30  O6  <0> d          -1.086   5.440   1.697  0.00  0.00    -0.646 OA
ENDBRANCH  24  28
ENDBRANCH  21  24
ENDBRANCH  19  20
ENDBRANCH   1  19
TORSDOF 6
