REMARK  2 active torsions:
REMARK  status: ('A' for Active; 'I' for Inactive)
REMARK    1  A    between atoms: C5_5  and  C7_7 
REMARK    2  A    between atoms: C14_14  and  N3_20 
ROOT
ATOM      1  C7  <0> d           2.201   2.620  -2.291  0.00  0.00     0.074 C 
ATOM      2  C8  <0> d           2.193   1.519  -1.230  0.00  0.00     0.053 C 
ATOM      3  C9  <0> d           1.462   1.942   0.024  0.00  0.00     0.242 C 
ATOM      4  C10 <0> d           0.156  -0.084   0.051  0.00  0.00     0.260 C 
ATOM      5  C11 <0> d           0.739  -0.491  -1.279  0.00  0.00     0.005 C 
ATOM      6  C12 <0> d           1.651   0.268  -1.859  0.00  0.00    -0.052 C 
ATOM      7  C13 <0> d           2.182  -0.100  -3.196  0.00  0.00     0.171 C 
ATOM      8  C14 <0> d           2.868   0.827  -3.912  0.00  0.00     0.063 C 
ATOM      9  C15 <0> d           3.150   2.213  -3.419  0.00  0.00     0.186 C 
ATOM     10  C16 <0> d           3.000   3.160  -4.537  0.00  0.00     0.091 C 
ATOM     11  N1  <0> d           2.884   3.890  -5.399  0.00  0.00    -0.195 NA
ATOM     12  C17 <0> d           4.535   2.274  -2.923  0.00  0.00     0.091 C 
ATOM     13  N2  <0> d           5.604   2.320  -2.541  0.00  0.00    -0.195 NA
ATOM     14  C18 <0> d           1.972  -1.415  -3.723  0.00  0.00     0.074 C 
ATOM     15  N4  <0> d           1.806  -2.458  -4.141  0.00  0.00    -0.196 NA
ATOM     16  N5  <0> d           0.102   1.392   0.084  0.00  0.00    -0.071 N 
ATOM     17  H14 <0> d          -0.438   1.731  -0.720  0.00  0.00     0.277 HD
ATOM     18  H15 <0> d          -0.350   1.697   0.954  0.00  0.00     0.277 HD
ENDROOT
BRANCH   1  19
ATOM     19  C5  <0> d           2.672   3.912  -1.675  0.00  0.00    -0.012 A 
ATOM     20  C4  <0> d           1.921   5.065  -1.825  0.00  0.00     0.123 A 
ATOM     21  C3  <0> d           2.356   6.252  -1.258  0.00  0.00     0.043 A 
ATOM     22  F1  <0> d           0.765   5.033  -2.522  0.00  0.00    -0.206 F 
ATOM     23  C2  <0> d           3.539   6.283  -0.545  0.00  0.00     0.003 A 
ATOM     24  C1  <0> d           4.288   5.131  -0.396  0.00  0.00     0.001 A 
ATOM     25  C6  <0> d           3.853   3.945  -0.957  0.00  0.00     0.011 A 
ENDBRANCH   1  19
BRANCH   8  26
ATOM     26  N3  <0> d           3.327   0.475  -5.151  0.00  0.00    -0.304 NA
ATOM     27  H12 <0> d           3.159  -0.415  -5.496  0.00  0.00     0.186 HD
ENDBRANCH   8  26
TORSDOF 2
