REMARK  5 active torsions:
REMARK  status: ('A' for Active; 'I' for Inactive)
REMARK    1  A    between atoms: C6_8  and  N2_13 
REMARK       I    between atoms: N2_13  and  C10_14 
REMARK       I    between atoms: C10_14  and  N3_16 
REMARK    2  A    between atoms: N3_16  and  C11_17 
REMARK    3  A    between atoms: C11_17  and  C12_18 
REMARK    4  A    between atoms: C12_18  and  C13_19 
REMARK    5  A    between atoms: C12_18  and  N4_24 
ROOT
ATOM      1  N2  <0> d           6.427   1.610   0.438  0.00  0.00    -0.309 N 
ATOM      2  C10 <0> d           6.934   1.383   1.666  0.00  0.00     0.320 C 
ATOM      3  O3  <0> d           6.199   1.045   2.574  0.00  0.00    -0.247 OA
ATOM      4  N3  <0> d           8.255   1.531   1.888  0.00  0.00    -0.341 N 
ATOM      5  H11 <0> d           7.019   1.832  -0.297  0.00  0.00     0.170 HD
ATOM      6  H12 <0> d           8.841   1.801   1.164  0.00  0.00     0.164 HD
ENDROOT
BRANCH   1   7
ATOM      7  C6  <0> d           5.045   1.526   0.224  0.00  0.00     0.038 A 
ATOM      8  C5  <0> d           4.163   1.948   1.210  0.00  0.00     0.062 A 
ATOM      9  C4  <0> d           2.798   1.863   0.993  0.00  0.00     0.070 A 
ATOM     10  N1  <0> d           1.890   2.284   1.976  0.00  0.00    -0.323 N 
ATOM     11  C9  <0> d           2.312   1.355  -0.210  0.00  0.00     0.096 A 
ATOM     12  C3  <0> d           0.597   1.906   1.879  0.00  0.00     0.251 C 
ATOM     13  H7  <0> d           2.187   2.839   2.714  0.00  0.00     0.169 HD
ATOM     14  C2  <0> d           0.163   1.012   0.745  0.00  0.00     0.217 C 
ATOM     15  O1  <0> d          -0.211   2.284   2.700  0.00  0.00    -0.270 OA
ATOM     16  C1  <0> d           0.327  -0.452   1.158  0.00  0.00     0.050 C 
ATOM     17  O2  <0> d           0.969   1.274  -0.408  0.00  0.00    -0.335 OA
ATOM     18  C8  <0> d           3.195   0.936  -1.190  0.00  0.00     0.041 A 
ATOM     19  C7  <0> d           4.558   1.021  -0.975  0.00  0.00     0.032 A 
ENDBRANCH   1   7
BRANCH   4  20
ATOM     20  C11 <0> d           8.805   1.284   3.223  0.00  0.00     0.158 C 
BRANCH  20  21
ATOM     21  C12 <0> d          10.333   1.343   3.163  0.00  0.00     0.212 C 
BRANCH  21  22
ATOM     22  C13 <0> d          10.900   1.334   4.585  0.00  0.00     0.044 C 
ATOM     23  C16 <0> d          12.405   1.664   4.567  0.00  0.00     0.174 C 
ATOM     24  O4  <0> d          12.577   2.900   5.287  0.00  0.00    -0.391 OA
ATOM     25  C15 <0> d          11.487   2.994   6.229  0.00  0.00     0.168 C 
ATOM     26  C14 <0> d          10.269   2.470   5.426  0.00  0.00     0.035 C 
ENDBRANCH  21  22
BRANCH  21  27
ATOM     27  N4  <0> d          10.839   0.176   2.428  0.00  0.00    -0.065 N 
ATOM     28  C20 <0> d          12.279   0.343   2.135  0.00  0.00     0.235 C 
ATOM     29  C19 <0> d          12.535  -0.285   0.752  0.00  0.00     0.029 C 
ATOM     30  C18 <0> d          11.152  -0.785   0.274  0.00  0.00     0.029 C 
ATOM     31  C17 <0> d          10.167   0.072   1.107  0.00  0.00     0.235 C 
ATOM     32  H29 <0> d          10.688  -0.666   2.963  0.00  0.00     0.280 HD
ENDBRANCH  21  27
ENDBRANCH  20  21
ENDBRANCH   4  20
TORSDOF 5
