REMARK  5 active torsions:
REMARK  status: ('A' for Active; 'I' for Inactive)
REMARK    1  A    between atoms: C2_2  and  C3_3 
REMARK    2  A    between atoms: C3_3  and  C4_4 
REMARK    3  A    between atoms: C4_4  and  N1_5 
REMARK    4  A    between atoms: C11_12  and  O2_25 
REMARK    5  A    between atoms: C12_13  and  C14_16 
ROOT
ATOM      1  N1  <0> d           1.425  -2.500  -2.470  0.00  0.00    -0.317 N 
ATOM      2  C5  <0> d           0.692  -2.728  -3.638  0.00  0.00     0.046 A 
ATOM      3  C6  <0> d          -0.696  -2.790  -3.585  0.00  0.00     0.030 A 
ATOM      4  C7  <0> d          -1.419  -3.030  -4.737  0.00  0.00     0.002 A 
ATOM      5  C8  <0> d          -0.764  -3.211  -5.942  0.00  0.00     0.001 A 
ATOM      6  C9  <0> d           0.616  -3.145  -5.998  0.00  0.00     0.012 A 
ATOM      7  C10 <0> d           1.344  -2.897  -4.851  0.00  0.00    -0.002 A 
ATOM      8  C11 <0> d           2.846  -2.791  -4.921  0.00  0.00     0.170 C 
ATOM      9  C12 <0> d           3.460  -3.316  -3.623  0.00  0.00     0.154 C 
ATOM     10  C13 <0> d           2.753  -2.704  -2.443  0.00  0.00     0.235 C 
ATOM     11  O1  <0> d           3.388  -2.394  -1.456  0.00  0.00    -0.272 OA
ENDROOT
BRANCH   9  12
ATOM     12  C14 <0> d           3.317  -4.839  -3.572  0.00  0.00     0.197 A 
ATOM     13  N3  <0> d           4.008  -5.448  -4.715  0.00  0.00    -0.366 N 
ATOM     14  C20 <0> d           4.937  -6.227  -4.240  0.00  0.00     0.056 A 
ATOM     15  H23 <0> d           3.809  -5.299  -5.653  0.00  0.00     0.162 HD
ATOM     16  C15 <0> d           4.910  -6.175  -2.752  0.00  0.00     0.056 A 
ATOM     17  C19 <0> d           5.941  -7.090  -4.878  0.00  0.00     0.031 A 
ATOM     18  N2  <0> d           3.967  -5.366  -2.366  0.00  0.00    -0.366 N 
ATOM     19  C16 <0> d           5.889  -6.990  -2.020  0.00  0.00     0.031 A 
ATOM     20  H22 <0> d           3.735  -5.151  -1.449  0.00  0.00     0.162 HD
ATOM     21  C17 <0> d           6.768  -7.749  -2.705  0.00  0.00     0.002 A 
ATOM     22  C18 <0> d           6.793  -7.798  -4.110  0.00  0.00     0.002 A 
ENDBRANCH   9  12
BRANCH   8  23
ATOM     23  O2  <0> d           3.218  -1.424  -5.104  0.00  0.00    -0.390 OA
ATOM     24  H21 <0> d           2.865  -1.024  -5.911  0.00  0.00     0.210 HD
ENDBRANCH   8  23
BRANCH   1  25
ATOM     25  C4  <0> d           0.739  -2.027  -1.265  0.00  0.00     0.132 C 
BRANCH  25  26
ATOM     26  C3  <0> d           0.718  -0.497  -1.257  0.00  0.00     0.020 C 
BRANCH  26  27
ATOM     27  C2  <0> d           0.002  -0.004   0.002  0.00  0.00    -0.003 C 
ATOM     28  C1  <0> d          -0.019   1.526   0.010  0.00  0.00     0.005 C 
ENDBRANCH  26  27
ENDBRANCH  25  26
ENDBRANCH   1  25
TORSDOF 5
