REMARK  6 active torsions:
REMARK  status: ('A' for Active; 'I' for Inactive)
REMARK    1  A    between atoms: C2_2  and  N1_3 
REMARK    2  A    between atoms: N1_3  and  C3_4 
REMARK       I    between atoms: N1_3  and  C7_11 
REMARK    3  A    between atoms: C7_11  and  C8_13 
REMARK    4  A    between atoms: C8_13  and  O4_14 
REMARK    5  A    between atoms: O4_14  and  C9_15 
REMARK    6  A    between atoms: C14_20  and  N2_21 
ROOT
ATOM      1  N1  <0> d          -1.372  -0.511   0.012  0.00  0.00    -0.345 N 
ATOM      2  C7  <0> d          -1.993  -0.751   1.184  0.00  0.00     0.244 C 
ATOM      3  O3  <0> d          -3.131  -1.171   1.193  0.00  0.00    -0.271 OA
ENDROOT
BRANCH   2   4
ATOM      4  C8  <0> d          -1.274  -0.497   2.484  0.00  0.00     0.278 C 
BRANCH   4   5
ATOM      5  O4  <0> d          -2.135  -0.824   3.577  0.00  0.00    -0.340 OA
BRANCH   5   6
ATOM      6  C9  <0> d          -1.635  -0.651   4.830  0.00  0.00     0.095 A 
ATOM      7  C14 <0> d          -2.419  -0.950   5.942  0.00  0.00     0.059 A 
ATOM      8  C13 <0> d          -1.902  -0.777   7.217  0.00  0.00     0.032 A 
ATOM      9  C12 <0> d          -0.616  -0.298   7.382  0.00  0.00     0.002 A 
ATOM     10  C11 <0> d           0.160   0.004   6.278  0.00  0.00     0.003 A 
ATOM     11  C10 <0> d          -0.347  -0.171   5.003  0.00  0.00     0.039 A 
BRANCH   7  12
ATOM     12  N2  <0> d          -3.724  -1.429   5.772  0.00  0.00    -0.397 N 
ATOM     13  H19 <0> d          -4.082  -1.553   4.880  0.00  0.00     0.156 HD
ATOM     14  H20 <0> d          -4.268  -1.637   6.548  0.00  0.00     0.156 HD
ENDBRANCH   7  12
ENDBRANCH   5   6
ENDBRANCH   4   5
ENDBRANCH   2   4
BRANCH   1  15
ATOM     15  C2  <0> d           0.002  -0.004   0.002  0.00  0.00     0.122 C 
ATOM     16  C1  <0> d          -0.019   1.526   0.010  0.00  0.00     0.026 C 
ENDBRANCH   1  15
BRANCH   1  17
ATOM     17  C3  <0> d          -2.072  -0.758  -1.251  0.00  0.00     0.102 C 
ATOM     18  C6  <0> d          -2.474  -2.257  -1.345  0.00  0.00     0.165 C 
ATOM     19  S1  <0> d          -3.798  -2.172  -2.623  0.00  0.00     0.146 S 
ATOM     20  C5  <0> d          -4.255  -0.397  -2.471  0.00  0.00     0.142 C 
ATOM     21  O1  <0> d          -3.220  -2.393  -3.903  0.00  0.00    -0.228 OA
ATOM     22  O2  <0> d          -4.897  -2.970  -2.205  0.00  0.00    -0.228 OA
ATOM     23  C4  <0> d          -3.356   0.086  -1.307  0.00  0.00     0.041 C 
ENDBRANCH   1  17
TORSDOF 6
