REMARK  6 active torsions:
REMARK  status: ('A' for Active; 'I' for Inactive)
REMARK    1  A    between atoms: C4_4  and  C7_7 
REMARK    2  A    between atoms: C7_7  and  C8_8 
REMARK    3  A    between atoms: C7_7  and  C18_24 
REMARK    4  A    between atoms: C8_8  and  N1_9 
REMARK       I    between atoms: N1_9  and  C9_10 
REMARK    5  A    between atoms: C9_10  and  C10_12 
REMARK    6  A    between atoms: C10_12  and  N2_13 
ROOT
ATOM      1  C8  <0> d           3.817  -1.592   1.206  0.00  0.00     0.136 C 
ENDROOT
BRANCH   1   2
ATOM      2  C7  <0> d           3.711  -0.707  -0.038  0.00  0.00     0.068 C 
BRANCH   2   3
ATOM      3  C4  <0> d           2.396   0.029  -0.020  0.00  0.00    -0.048 A 
ATOM      4  C3  <0> d           2.377   1.411  -0.013  0.00  0.00     0.008 A 
ATOM      5  C2  <0> d           1.171   2.086   0.002  0.00  0.00     0.001 A 
ATOM      6  C1  <0> d          -0.017   1.378   0.010  0.00  0.00     0.000 A 
ATOM      7  C6  <0> d           0.002  -0.004   0.002  0.00  0.00     0.001 A 
ATOM      8  C5  <0> d           1.208  -0.679  -0.012  0.00  0.00     0.008 A 
ENDBRANCH   2   3
BRANCH   2   9
ATOM      9  C18 <0> d           3.790  -1.566  -1.273  0.00  0.00    -0.040 A 
ATOM     10  C25 <0> d           2.853  -2.687  -1.662  0.00  0.00     0.155 A 
ATOM     11  N5  <0> d           3.352  -3.203  -2.942  0.00  0.00    -0.385 N 
ATOM     12  C24 <0> d           4.420  -2.522  -3.279  0.00  0.00     0.038 A 
ATOM     13  H24 <0> d           2.959  -3.929  -3.451  0.00  0.00     0.160 HD
ATOM     14  C19 <0> d           4.716  -1.494  -2.256  0.00  0.00    -0.005 A 
ATOM     15  C23 <0> d           5.284  -2.612  -4.405  0.00  0.00     0.030 A 
ATOM     16  C20 <0> d           5.883  -0.628  -2.461  0.00  0.00     0.014 A 
ATOM     17  C21 <0> d           6.640  -0.798  -3.569  0.00  0.00     0.001 A 
ATOM     18  C22 <0> d           6.338  -1.778  -4.524  0.00  0.00     0.002 A 
ENDBRANCH   2   9
ENDBRANCH   1   2
BRANCH   1  19
ATOM     19  N1  <0> d           3.861  -0.748   2.403  0.00  0.00    -0.359 N 
ATOM     20  C9  <0> d           3.954  -1.314   3.623  0.00  0.00     0.237 C 
ATOM     21  O1  <0> d           4.003  -2.521   3.730  0.00  0.00    -0.272 OA
ATOM     22  H9  <0> d           3.822   0.217   2.318  0.00  0.00     0.162 HD
BRANCH  20  23
ATOM     23  C10 <0> d           3.999  -0.446   4.854  0.00  0.00     0.251 C 
BRANCH  23  24
ATOM     24  N2  <0> d           4.101  -1.293   6.045  0.00  0.00    -0.252 N 
ATOM     25  N4  <0> d           2.961  -1.717   6.656  0.00  0.00    -0.143 NA
ATOM     26  N3  <0> d           3.074  -2.965   7.210  0.00  0.00    -0.303 N 
ATOM     27  H17 <0> d           2.643  -1.043   7.336  0.00  0.00     0.173 HD
ATOM     28  C17 <0> d           4.200  -3.258   7.970  0.00  0.00     0.060 A 
ATOM     29  H16 <0> d           2.380  -3.631   7.078  0.00  0.00     0.182 HD
ATOM     30  C12 <0> d           5.389  -2.578   7.641  0.00  0.00     0.061 A 
ATOM     31  C16 <0> d           4.191  -4.164   9.013  0.00  0.00     0.031 A 
ATOM     32  C11 <0> d           5.325  -1.629   6.512  0.00  0.00     0.272 C 
ATOM     33  C13 <0> d           6.550  -2.815   8.365  0.00  0.00     0.019 A 
ATOM     34  O2  <0> d           6.337  -1.165   6.021  0.00  0.00    -0.266 OA
ATOM     35  C14 <0> d           6.524  -3.723   9.405  0.00  0.00     0.001 A 
ATOM     36  C15 <0> d           5.353  -4.393   9.726  0.00  0.00     0.002 A 
ENDBRANCH  23  24
ENDBRANCH  20  23
ENDBRANCH   1  19
TORSDOF 6
