REMARK  6 active torsions:
REMARK  status: ('A' for Active; 'I' for Inactive)
REMARK    1  A    between atoms: C7_7  and  C8_8 
REMARK    2  A    between atoms: C8_8  and  C9_9 
REMARK    3  A    between atoms: C8_8  and  N4_18 
REMARK    4  A    between atoms: N4_18  and  C14_20 
REMARK    5  A    between atoms: C14_20  and  C15_21 
REMARK    6  A    between atoms: C15_21  and  O2_22 
ROOT
ATOM      1  C8  <0> d           0.025   0.045   2.504  0.00  0.00     0.265 C 
ENDROOT
BRANCH   1   2
ATOM      2  C7  <0> d           0.023  -0.702   1.195  0.00  0.00    -0.017 A 
ATOM      3  C2  <0> d           0.002  -0.004   0.002  0.00  0.00    -0.053 A 
ATOM      4  C1  <0> d          -0.018   1.503   0.010  0.00  0.00     0.049 C 
ATOM      5  C3  <0> d           0.006  -0.689  -1.199  0.00  0.00     0.007 A 
ATOM      6  C4  <0> d           0.025  -2.071  -1.207  0.00  0.00     0.001 A 
ATOM      7  C5  <0> d           0.040  -2.768  -0.013  0.00  0.00     0.001 A 
ATOM      8  C6  <0> d           0.037  -2.084   1.188  0.00  0.00     0.010 A 
ENDBRANCH   1   2
BRANCH   1   9
ATOM      9  C9  <0> d           1.421   0.527   2.805  0.00  0.00     0.077 A 
ATOM     10  S1  <0> d           2.894  -0.425   3.143  0.00  0.00    -0.048 SA
ATOM     11  C11 <0> d           4.009   0.941   3.367  0.00  0.00     0.198 A 
ATOM     12  N1  <0> d           3.203   2.022   3.182  0.00  0.00    -0.181 N 
ATOM     13  N2  <0> d           5.224   1.340   3.628  0.00  0.00    -0.214 NA
ATOM     14  C10 <0> d           1.881   1.780   2.895  0.00  0.00     0.219 A 
ATOM     15  N3  <0> d           4.068   3.133   3.361  0.00  0.00    -0.156 NA
ATOM     16  O1  <0> d           1.032   2.825   2.701  0.00  0.00    -0.169 OA
ATOM     17  C12 <0> d           5.260   2.671   3.625  0.00  0.00     0.258 A 
ENDBRANCH   1   9
BRANCH   1  18
ATOM     18  N4  <0> d          -0.426  -0.849   3.579  0.00  0.00    -0.060 N 
ATOM     19  C13 <0> d          -1.787  -1.319   3.285  0.00  0.00     0.271 C 
ATOM     20  H18 <0> d           0.197  -1.641   3.642  0.00  0.00     0.280 HD
BRANCH  18  21
ATOM     21  C14 <0> d          -0.424  -0.122   4.855  0.00  0.00     0.261 C 
BRANCH  21  22
ATOM     22  C15 <0> d          -0.773  -1.085   5.991  0.00  0.00     0.192 C 
BRANCH  22  23
ATOM     23  O2  <0> d           0.255  -2.069   6.115  0.00  0.00    -0.399 OA
ATOM     24  H17 <0> d           0.100  -2.714   6.819  0.00  0.00     0.209 HD
ENDBRANCH  22  23
ENDBRANCH  21  22
ENDBRANCH  18  21
ENDBRANCH   1  18
TORSDOF 6
