REMARK  5 active torsions:
REMARK  status: ('A' for Active; 'I' for Inactive)
REMARK    1  A    between atoms: C4_4  and  C7_7 
REMARK    2  A    between atoms: N3_10  and  C8_12 
REMARK    3  A    between atoms: C8_12  and  C9_13 
REMARK    4  A    between atoms: C8_12  and  C10_15 
REMARK    5  A    between atoms: C9_13  and  N5_14 
ROOT
ATOM      1  C8  <0> d           5.762  -3.552  -0.084  0.00  0.00     0.192 C 
ENDROOT
BRANCH   1   2
ATOM      2  N3  <0> d           5.141  -2.225  -0.065  0.00  0.00    -0.157 N 
ATOM      3  N2  <0> d           5.776  -1.106  -0.059  0.00  0.00    -0.045 NA
ATOM      4  N1  <0> d           4.921  -0.140  -0.042  0.00  0.00    -0.108 NA
ATOM      5  C7  <0> d           3.699  -0.690  -0.038  0.00  0.00     0.204 A 
ATOM      6  N4  <0> d           3.873  -1.996  -0.047  0.00  0.00    -0.130 NA
BRANCH   5   7
ATOM      7  C4  <0> d           2.402   0.033  -0.021  0.00  0.00     0.015 A 
ATOM      8  C3  <0> d           2.377   1.425  -0.013  0.00  0.00     0.015 A 
ATOM      9  C2  <0> d           1.169   2.092   0.002  0.00  0.00     0.001 A 
ATOM     10  C1  <0> d          -0.017   1.379   0.010  0.00  0.00     0.000 A 
ATOM     11  C6  <0> d           0.002  -0.004   0.002  0.00  0.00     0.001 A 
ATOM     12  C5  <0> d           1.205  -0.680  -0.013  0.00  0.00     0.015 A 
ENDBRANCH   5   7
ENDBRANCH   1   2
BRANCH   1  13
ATOM     13  C9  <0> d           6.622  -3.695  -1.341  0.00  0.00     0.263 C 
BRANCH  13  14
ATOM     14  N5  <0> d           7.148  -5.064  -1.421  0.00  0.00    -0.077 N 
ATOM     15  H9  <0> d           7.715  -5.158  -2.251  0.00  0.00     0.274 HD
ATOM     16  H10 <0> d           7.710  -5.256  -0.606  0.00  0.00     0.274 HD
ATOM     17  H15 <0> d           6.381  -5.717  -1.463  0.00  0.00     0.274 HD
ENDBRANCH  13  14
ENDBRANCH   1  13
BRANCH   1  18
ATOM     18  C10 <0> d           6.628  -3.719   1.138  0.00  0.00    -0.013 A 
ATOM     19  C15 <0> d           6.363  -4.733   2.040  0.00  0.00     0.019 A 
ATOM     20  C14 <0> d           7.161  -4.888   3.160  0.00  0.00     0.020 A 
ATOM     21 Br1  <0> d           4.916  -5.912   1.740  0.00  0.00    -0.050 Br
ATOM     22  C13 <0> d           8.216  -4.023   3.381  0.00  0.00     0.001 A 
ATOM     23  C12 <0> d           8.477  -3.006   2.482  0.00  0.00     0.001 A 
ATOM     24  C11 <0> d           7.683  -2.854   1.361  0.00  0.00     0.011 A 
ENDBRANCH   1  18
TORSDOF 5
