REMARK  6 active torsions:
REMARK  status: ('A' for Active; 'I' for Inactive)
REMARK    1  A    between atoms: C2_2  and  C3_3 
REMARK    2  A    between atoms: C3_3  and  C4_4 
REMARK    3  A    between atoms: C4_4  and  C9_10 
REMARK       I    between atoms: C9_10  and  N2_12 
REMARK    4  A    between atoms: N2_12  and  C10_13 
REMARK    5  A    between atoms: C10_13  and  C11_14 
REMARK    6  A    between atoms: C10_13  and  C12_17 
ROOT
ATOM      1  C9  <0> d          -0.780  -2.650  -1.103  0.00  0.00     0.228 C 
ATOM      2  O1  <0> d          -1.383  -3.280  -1.946  0.00  0.00    -0.273 OA
ATOM      3  N2  <0> d           0.554  -2.490  -1.208  0.00  0.00    -0.345 N 
ATOM      4  H18 <0> d           1.028  -1.934  -0.569  0.00  0.00     0.163 HD
ENDROOT
BRANCH   1   5
ATOM      5  C4  <0> d          -1.522  -2.049   0.063  0.00  0.00     0.065 C 
ATOM      6  C8  <0> d          -2.976  -2.526   0.044  0.00  0.00     0.251 C 
ATOM      7  N1  <0> d          -3.015  -3.990   0.146  0.00  0.00    -0.074 N 
ATOM      8  C7  <0> d          -2.449  -4.415   1.431  0.00  0.00     0.232 C 
ATOM      9  H15 <0> d          -2.478  -4.393  -0.607  0.00  0.00     0.277 HD
ATOM     10  H28 <0> d          -3.971  -4.305   0.079  0.00  0.00     0.277 HD
ATOM     11  C6  <0> d          -0.975  -4.011   1.503  0.00  0.00     0.029 C 
ATOM     12  C5  <0> d          -0.862  -2.489   1.373  0.00  0.00     0.022 C 
BRANCH   5  13
ATOM     13  C3  <0> d          -1.484  -0.522  -0.041  0.00  0.00     0.020 C 
BRANCH  13  14
ATOM     14  C2  <0> d          -2.186  -0.081  -1.326  0.00  0.00    -0.003 C 
ATOM     15  C1  <0> d          -2.201   1.448  -1.400  0.00  0.00     0.005 C 
ENDBRANCH  13  14
ENDBRANCH   5  13
ENDBRANCH   1   5
BRANCH   3  16
ATOM     16  C10 <0> d           1.290  -3.154  -2.286  0.00  0.00     0.193 C 
BRANCH  16  17
ATOM     17  C11 <0> d           1.235  -2.304  -3.530  0.00  0.00     0.197 C 
ATOM     18  O2  <0> d           1.156  -1.091  -3.436  0.00  0.00    -0.646 OA
ATOM     19  O3  <0> d           1.269  -2.830  -4.629  0.00  0.00    -0.646 OA
ENDBRANCH  16  17
BRANCH  16  20
ATOM     20  C12 <0> d           2.748  -3.349  -1.865  0.00  0.00    -0.021 C 
ATOM     21  C13 <0> d           2.803  -4.211  -0.603  0.00  0.00     0.017 C 
ATOM     22  C14 <0> d           3.516  -4.043  -2.992  0.00  0.00     0.017 C 
ATOM     23  C15 <0> d           3.382  -1.986  -1.580  0.00  0.00     0.017 C 
ENDBRANCH  16  20
ENDBRANCH   3  16
TORSDOF 6
