REMARK  4 active torsions:
REMARK  status: ('A' for Active; 'I' for Inactive)
REMARK    1  A    between atoms: C5_5  and  C6_7 
REMARK    2  A    between atoms: C6_7  and  N1_8 
REMARK    3  A    between atoms: N1_8  and  C7_9 
REMARK    4  A    between atoms: C7_9  and  C8_10 
ROOT
ATOM      1  N1  <0> d           1.984  -3.621  -1.411  0.00  0.00    -0.063 N 
ATOM      2  H8  <0> d           1.128  -3.871  -1.884  0.00  0.00     0.278 HD
ATOM      3  H14 <0> d           2.414  -2.841  -1.885  0.00  0.00     0.278 HD
ENDROOT
BRANCH   1   4
ATOM      4  C6  <0> d           1.684  -3.245  -0.023  0.00  0.00     0.297 C 
BRANCH   4   5
ATOM      5  C5  <0> d           0.742  -2.069  -0.013  0.00  0.00     0.079 A 
ATOM      6  C4  <0> d          -0.601  -2.136  -0.007  0.00  0.00     0.037 A 
ATOM      7  C3  <0> d          -1.078  -0.805   0.003  0.00  0.00     0.035 A 
ATOM      8  C2  <0> d           0.002  -0.004   0.002  0.00  0.00     0.049 A 
ATOM      9  C1  <0> d          -0.018   1.503   0.010  0.00  0.00     0.076 C 
ATOM     10  O1  <0> d           1.102  -0.775  -0.013  0.00  0.00    -0.318 OA
ENDBRANCH   4   5
ENDBRANCH   1   4
BRANCH   1  11
ATOM     11  C7  <0> d           2.902  -4.768  -1.421  0.00  0.00     0.312 C 
BRANCH  11  12
ATOM     12  C8  <0> d           3.209  -5.153  -2.845  0.00  0.00     0.150 A 
ATOM     13  N3  <0> d           4.239  -4.597  -3.451  0.00  0.00    -0.244 NA
ATOM     14  C11 <0> d           4.542  -4.915  -4.700  0.00  0.00     0.120 A 
ATOM     15  C10 <0> d           3.754  -5.836  -5.372  0.00  0.00     0.038 A 
ATOM     16  C9  <0> d           2.677  -6.395  -4.702  0.00  0.00     0.120 A 
ATOM     17  N2  <0> d           2.438  -6.032  -3.452  0.00  0.00    -0.244 NA
ENDBRANCH  11  12
ENDBRANCH   1  11
TORSDOF 4
