REMARK  3 active torsions:
REMARK  status: ('A' for Active; 'I' for Inactive)
REMARK    1  A    between atoms: C2_2  and  C3_3 
REMARK    2  A    between atoms: C6_8  and  N3_9 
REMARK    3  A    between atoms: N3_9  and  C7_10 
ROOT
ATOM      1  N3  <0> d          -1.483  -0.531  -2.402  0.00  0.00    -0.368 N 
ATOM      2  H8  <0> d          -0.574  -0.195  -2.432  0.00  0.00     0.161 HD
ENDROOT
BRANCH   1   3
ATOM      3  C6  <0> d          -2.095  -0.767  -1.181  0.00  0.00     0.133 A 
ATOM      4  C3  <0> d          -1.412  -0.526   0.013  0.00  0.00     0.011 A 
ATOM      5  C4  <0> d          -2.067  -0.772   1.204  0.00  0.00     0.042 A 
ATOM      6  N1  <0> d          -3.310  -1.230   1.175  0.00  0.00    -0.246 NA
ATOM      7  C12 <0> d          -1.376  -0.522   2.519  0.00  0.00     0.071 C 
ATOM      8  C5  <0> d          -3.925  -1.453   0.032  0.00  0.00     0.235 A 
ATOM      9  N2  <0> d          -3.339  -1.233  -1.128  0.00  0.00    -0.224 NA
BRANCH   4  10
ATOM     10  C2  <0> d           0.002  -0.004   0.002  0.00  0.00     0.040 C 
ATOM     11  C1  <0> d          -0.019   1.526   0.010  0.00  0.00     0.010 C 
ENDBRANCH   4  10
ENDBRANCH   1   3
BRANCH   1  12
ATOM     12  C7  <0> d          -2.211  -0.788  -3.647  0.00  0.00     0.108 C 
ATOM     13  C11 <0> d          -1.213  -1.057  -4.775  0.00  0.00     0.257 C 
ATOM     14  N4  <0> d          -1.939  -1.312  -6.025  0.00  0.00    -0.073 N 
ATOM     15  C10 <0> d          -2.700  -0.118  -6.412  0.00  0.00     0.232 C 
ATOM     16  H15 <0> d          -2.573  -2.085  -5.892  0.00  0.00     0.277 HD
ATOM     17  H21 <0> d          -1.280  -1.541  -6.755  0.00  0.00     0.277 HD
ATOM     18  C9  <0> d          -3.755   0.186  -5.347  0.00  0.00     0.029 C 
ATOM     19  C8  <0> d          -3.061   0.435  -4.005  0.00  0.00     0.028 C 
ENDBRANCH   1  12
TORSDOF 3
