REMARK  5 active torsions:
REMARK  status: ('A' for Active; 'I' for Inactive)
REMARK    1  A    between atoms: C3_3  and  N1_11 
REMARK    2  A    between atoms: C5_5  and  S1_7 
REMARK    3  A    between atoms: S1_7  and  C7_8 
REMARK       I    between atoms: N1_11  and  C8_12 
REMARK       I    between atoms: C8_12  and  N2_14 
REMARK    4  A    between atoms: N2_14  and  C9_15 
REMARK    5  A    between atoms: C9_15  and  C10_16 
ROOT
ATOM      1  N1  <0> d           3.584   2.135  -0.022  0.00  0.00    -0.309 N 
ATOM      2  C8  <0> d           3.562   3.479  -0.117  0.00  0.00     0.321 C 
ATOM      3  O1  <0> d           2.500   4.072  -0.103  0.00  0.00    -0.247 OA
ATOM      4  N2  <0> d           4.716   4.166  -0.227  0.00  0.00    -0.337 N 
ATOM      5  H6  <0> d           4.431   1.666   0.035  0.00  0.00     0.170 HD
ATOM      6  H7  <0> d           5.563   3.692  -0.237  0.00  0.00     0.164 HD
ENDROOT
BRANCH   1   7
ATOM      7  C3  <0> d           2.384   1.415  -0.005  0.00  0.00     0.037 A 
ATOM      8  C2  <0> d           2.313   0.168  -0.614  0.00  0.00     0.029 A 
ATOM      9  C1  <0> d           1.129  -0.545  -0.597  0.00  0.00     0.004 A 
ATOM     10  C6  <0> d           0.012  -0.020   0.023  0.00  0.00     0.019 A 
ATOM     11  C5  <0> d           0.076   1.228   0.633  0.00  0.00     0.007 A 
ATOM     12  C4  <0> d           1.264   1.945   0.619  0.00  0.00     0.048 A 
BRANCH  11  13
ATOM     13  S1  <0> d          -1.349   1.897   1.425  0.00  0.00    -0.061 SA
BRANCH  13  14
ATOM     14  C7  <0> d          -2.621   0.626   1.186  0.00  0.00     0.420 C 
ATOM     15  F1  <0> d          -2.826   0.422  -0.183  0.00  0.00    -0.202 F 
ATOM     16  F2  <0> d          -2.202  -0.571   1.778  0.00  0.00    -0.202 F 
ENDBRANCH  13  14
ENDBRANCH  11  13
ENDBRANCH   1   7
BRANCH   4  17
ATOM     17  C9  <0> d           4.692   5.627  -0.330  0.00  0.00     0.182 C 
BRANCH  17  18
ATOM     18  C10 <0> d           6.103   6.146  -0.441  0.00  0.00     0.044 A 
ATOM     19  N4  <0> d           6.817   6.252  -1.573  0.00  0.00    -0.347 N 
ATOM     20  C12 <0> d           7.990   6.742  -1.295  0.00  0.00     0.083 A 
ATOM     21  H19 <0> d           6.507   6.004  -2.458  0.00  0.00     0.167 HD
ATOM     22  N3  <0> d           8.064   6.955   0.040  0.00  0.00    -0.345 N 
ATOM     23  C13 <0> d           9.114   7.035  -2.261  0.00  0.00     0.076 C 
ATOM     24  C11 <0> d           6.870   6.579   0.580  0.00  0.00     0.119 A 
ATOM     25  C16 <0> d           9.234   7.494   0.737  0.00  0.00     0.130 C 
ATOM     26  C15 <0> d          10.456   7.367  -0.178  0.00  0.00     0.021 C 
ATOM     27  C14 <0> d          10.125   7.948  -1.556  0.00  0.00     0.009 C 
ENDBRANCH  17  18
ENDBRANCH   4  17
TORSDOF 5
