REMARK  6 active torsions:
REMARK  status: ('A' for Active; 'I' for Inactive)
REMARK    1  A    between atoms: C2_2  and  C3_3 
REMARK    2  A    between atoms: C2_2  and  N2_9 
REMARK       I    between atoms: C3_3  and  N1_5 
REMARK    3  A    between atoms: N1_5  and  C4_6 
REMARK    4  A    between atoms: C4_6  and  C5_7 
REMARK    5  A    between atoms: C14_17  and  N3_18 
REMARK       I    between atoms: N3_18  and  C15_19 
REMARK       I    between atoms: C15_19  and  N4_21 
REMARK    6  A    between atoms: N4_21  and  C16_22 
ROOT
ATOM      1  N2  <0> d           0.731  -0.061  -1.617  0.00  0.00    -0.054 N 
ATOM      2  C7  <0> d           0.828  -1.519  -1.447  0.00  0.00     0.241 C 
ATOM      3  C8  <0> d           1.218  -2.141  -2.788  0.00  0.00     0.069 C 
ATOM      4  C9  <0> d           2.427  -1.435  -3.347  0.00  0.00    -0.022 A 
ATOM      5  C10 <0> d           2.824  -0.204  -2.870  0.00  0.00    -0.024 A 
ATOM      6  C11 <0> d           3.939   0.417  -3.413  0.00  0.00     0.009 A 
ATOM      7  C12 <0> d           4.657  -0.191  -4.425  0.00  0.00     0.003 A 
ATOM      8  C13 <0> d           4.264  -1.425  -4.904  0.00  0.00     0.030 A 
ATOM      9  C14 <0> d           3.148  -2.049  -4.366  0.00  0.00     0.043 A 
ATOM     10  C22 <0> d           2.079   0.494  -1.763  0.00  0.00     0.275 C 
ATOM     11  H26 <0> d           0.189   0.148  -2.442  0.00  0.00     0.281 HD
ENDROOT
BRANCH   9  12
ATOM     12  N3  <0> d           2.747  -3.300  -4.849  0.00  0.00    -0.308 N 
ATOM     13  C15 <0> d           3.633  -4.092  -5.486  0.00  0.00     0.325 C 
ATOM     14  O2  <0> d           4.803  -3.768  -5.549  0.00  0.00    -0.247 OA
ATOM     15  N4  <0> d           3.221  -5.243  -6.053  0.00  0.00    -0.309 N 
ATOM     16  H19 <0> d           2.277  -5.466  -6.067  0.00  0.00     0.170 HD
ATOM     17  H18 <0> d           1.832  -3.597  -4.725  0.00  0.00     0.170 HD
BRANCH  15  18
ATOM     18  C16 <0> d           4.155  -6.116  -6.623  0.00  0.00     0.036 A 
ATOM     19  C21 <0> d           3.812  -6.871  -7.737  0.00  0.00     0.032 A 
ATOM     20  C20 <0> d           4.737  -7.728  -8.301  0.00  0.00     0.044 A 
ATOM     21  C19 <0> d           6.002  -7.842  -7.750  0.00  0.00     0.116 A 
ATOM     22  C18 <0> d           6.345  -7.095  -6.636  0.00  0.00     0.044 A 
ATOM     23  F1  <0> d           6.904  -8.685  -8.300  0.00  0.00    -0.206 F 
ATOM     24  C17 <0> d           5.424  -6.233  -6.072  0.00  0.00     0.032 A 
ENDBRANCH  15  18
ENDBRANCH   9  12
BRANCH   1  25
ATOM     25  C2  <0> d           0.080   0.529  -0.440  0.00  0.00     0.275 C 
ATOM     26  C1  <0> d          -0.010   2.046  -0.614  0.00  0.00     0.050 C 
BRANCH  25  27
ATOM     27  C3  <0> d          -1.306  -0.043  -0.292  0.00  0.00     0.248 C 
ATOM     28  O1  <0> d          -1.712  -0.862  -1.089  0.00  0.00    -0.271 OA
ATOM     29  N1  <0> d          -2.095   0.355   0.726  0.00  0.00    -0.356 N 
ATOM     30  H5  <0> d          -1.770   1.010   1.363  0.00  0.00     0.162 HD
BRANCH  29  31
ATOM     31  C4  <0> d          -3.442  -0.201   0.869  0.00  0.00     0.149 C 
BRANCH  31  32
ATOM     32  C5  <0> d          -4.109   0.404   2.077  0.00  0.00    -0.018 C 
ATOM     33  C6  <0> d          -5.271   0.997   1.956  0.00  0.00     0.008 C 
ENDBRANCH  31  32
ENDBRANCH  29  31
ENDBRANCH  25  27
ENDBRANCH   1  25
TORSDOF 6
