REMARK  4 active torsions:
REMARK  status: ('A' for Active; 'I' for Inactive)
REMARK    1  A    between atoms: C5_5  and  C6_7 
REMARK    2  A    between atoms: C6_7  and  N1_9 
REMARK    3  A    between atoms: N1_9  and  C8_10 
REMARK    4  A    between atoms: C8_10  and  C13_15 
ROOT
ATOM      1  N1  <0> d           2.993  -3.439  -0.160  0.00  0.00    -0.046 N 
ATOM      2  H10 <0> d           2.385  -2.847  -0.707  0.00  0.00     0.279 HD
ATOM      3  H19 <0> d           3.571  -2.867   0.437  0.00  0.00     0.279 HD
ENDROOT
BRANCH   1   4
ATOM      4  C6  <0> d           2.181  -4.344   0.664  0.00  0.00     0.240 C 
ATOM      5  C7  <0> d           3.079  -5.048   1.683  0.00  0.00     0.047 C 
BRANCH   4   6
ATOM      6  C5  <0> d           1.124  -3.551   1.389  0.00  0.00     0.083 A 
ATOM      7  C4  <0> d          -0.150  -3.934   1.586  0.00  0.00     0.037 A 
ATOM      8  C3  <0> d          -0.784  -2.896   2.306  0.00  0.00     0.035 A 
ATOM      9  C2  <0> d           0.141  -1.940   2.507  0.00  0.00     0.049 A 
ATOM     10  C1  <0> d          -0.079  -0.639   3.235  0.00  0.00     0.076 C 
ATOM     11  O1  <0> d           1.294  -2.340   1.945  0.00  0.00    -0.318 OA
ENDBRANCH   4   6
ENDBRANCH   1   4
BRANCH   1  12
ATOM     12  C8  <0> d           3.847  -4.228  -1.058  0.00  0.00     0.213 C 
ATOM     13  C12 <0> d           4.541  -3.300  -2.077  0.00  0.00     0.051 C 
ATOM     14  C11 <0> d           5.928  -3.017  -1.448  0.00  0.00     0.003 C 
ATOM     15  C10 <0> d           6.300  -4.379  -0.812  0.00  0.00     0.003 C 
ATOM     16  C9  <0> d           4.965  -4.913  -0.254  0.00  0.00     0.051 C 
BRANCH  12  17
ATOM     17  C13 <0> d           3.021  -5.261  -1.780  0.00  0.00     0.210 C 
ATOM     18  O2  <0> d           1.858  -5.024  -2.060  0.00  0.00    -0.646 OA
ATOM     19  O3  <0> d           3.515  -6.333  -2.084  0.00  0.00    -0.646 OA
ENDBRANCH  12  17
ENDBRANCH   1  12
TORSDOF 4
