REMARK  4 active torsions:
REMARK  status: ('A' for Active; 'I' for Inactive)
REMARK    1  A    between atoms: C5_5  and  S1_8 
REMARK    2  A    between atoms: S1_8  and  C8_9 
REMARK    3  A    between atoms: C8_9  and  C9_10 
REMARK    4  A    between atoms: C12_17  and  N4_27 
ROOT
ATOM      1  C9  <0> d           0.097  -6.482   1.870  0.00  0.00     0.076 A 
ATOM      2  C10 <0> d          -0.923  -7.402   2.048  0.00  0.00     0.036 A 
ATOM      3  C11 <0> d          -0.308  -8.630   2.140  0.00  0.00     0.175 A 
ATOM      4  N1  <0> d           1.020  -8.477   1.986  0.00  0.00    -0.256 N 
ATOM      5  H1  <0> d           1.676  -9.193   1.995  0.00  0.00     0.191 HD
ATOM      6  N2  <0> d           1.259  -7.117   1.821  0.00  0.00    -0.176 NA
ATOM      7  O1  <0> d          -0.931  -9.810   2.367  0.00  0.00    -0.274 OA
ATOM      8  C12 <0> d          -2.271  -9.794   2.422  0.00  0.00     0.161 A 
ATOM      9  C13 <0> d          -3.002  -8.671   2.327  0.00  0.00     0.086 A 
ATOM     10  C14 <0> d          -2.424  -7.266   2.152  0.00  0.00     0.036 A 
ATOM     11  C15 <0> d          -3.053  -6.739   0.877  0.00  0.00     0.030 C 
ATOM     12  C16 <0> d          -2.797  -5.278   0.554  0.00  0.00     0.075 C 
ATOM     13  S2  <0> d          -3.315  -4.229   1.936  0.00  0.00    -0.169 SA
ATOM     14  C17 <0> d          -2.593  -5.012   3.399  0.00  0.00     0.075 C 
ATOM     15  C18 <0> d          -2.833  -6.507   3.402  0.00  0.00     0.030 C 
ATOM     16  C19 <0> d          -4.427  -8.831   2.401  0.00  0.00     0.100 C 
ATOM     17  N3  <0> d          -5.555  -8.957   2.461  0.00  0.00    -0.191 NA
ENDROOT
BRANCH   8  18
ATOM     18  N4  <0> d          -2.930 -10.988   2.584  0.00  0.00    -0.379 N 
ATOM     19  H19 <0> d          -2.427 -11.815   2.655  0.00  0.00     0.158 HD
ATOM     20  H20 <0> d          -3.899 -11.005   2.627  0.00  0.00     0.158 HD
ENDBRANCH   8  18
BRANCH   1  21
ATOM     21  C8  <0> d           0.077  -4.981   1.735  0.00  0.00     0.141 C 
BRANCH  21  22
ATOM     22  S1  <0> d           0.666  -4.227   3.276  0.00  0.00    -0.124 SA
BRANCH  22  23
ATOM     23  C5  <0> d           0.584  -2.495   2.961  0.00  0.00     0.001 A 
ATOM     24  C4  <0> d           0.969  -1.590   3.943  0.00  0.00     0.019 A 
ATOM     25  C3  <0> d           0.903  -0.234   3.693  0.00  0.00     0.008 A 
ATOM     26  C2  <0> d           0.457   0.225   2.467  0.00  0.00    -0.062 A 
ATOM     27  C1  <0> d           0.387   1.706   2.198  0.00  0.00     0.048 C 
ATOM     28  C7  <0> d           0.068  -0.673   1.490  0.00  0.00     0.008 A 
ATOM     29  C6  <0> d           0.135  -2.031   1.731  0.00  0.00     0.019 A 
ENDBRANCH  22  23
ENDBRANCH  21  22
ENDBRANCH   1  21
TORSDOF 4
