REMARK  4 active torsions:
REMARK  status: ('A' for Active; 'I' for Inactive)
REMARK    1  A    between atoms: O1_2  and  C2_3 
REMARK    2  A    between atoms: C5_6  and  N1_9 
REMARK    3  A    between atoms: C9_12  and  N6_19 
REMARK    4  A    between atoms: N7_22  and  C17_25 
ROOT
ATOM      1  N1  <0> d           2.423  -2.458  -4.277  0.00  0.00    -0.228 NA
ATOM      2  C8  <0> d           3.255  -3.464  -4.077  0.00  0.00     0.180 C 
ATOM      3  N2  <0> d           3.540  -3.960  -2.835  0.00  0.00    -0.044 NA
ATOM      4  C9  <0> d           4.356  -4.973  -2.663  0.00  0.00     0.702 C 
ATOM      5  N3  <0> d           4.997  -5.646  -3.676  0.00  0.00    -0.195 N 
ATOM      6  C10 <0> d           4.363  -5.621  -5.002  0.00  0.00     0.284 C 
ATOM      7  C11 <0> d           3.950  -4.154  -5.169  0.00  0.00     0.056 C 
ATOM      8  C12 <0> d           4.404  -3.829  -6.370  0.00  0.00     0.155 C 
ATOM      9  N4  <0> d           5.229  -4.795  -6.826  0.00  0.00    -0.165 NA
ATOM     10  N5  <0> d           5.296  -5.813  -6.109  0.00  0.00    -0.161 NA
ATOM     11  H22 <0> d           5.832  -6.115  -3.522  0.00  0.00     0.180 HD
ENDROOT
BRANCH   4  12
ATOM     12  N6  <0> d           4.585  -5.392  -1.380  0.00  0.00    -0.213 N 
ATOM     13  C16 <0> d           5.388  -6.594  -1.118  0.00  0.00     0.161 C 
ATOM     14  C15 <0> d           4.569  -7.559  -0.259  0.00  0.00     0.143 C 
ATOM     15  N7  <0> d           4.011  -6.817   0.880  0.00  0.00    -0.375 N 
ATOM     16  C14 <0> d           3.203  -5.617   0.618  0.00  0.00     0.143 C 
ATOM     17  C13 <0> d           4.027  -4.650  -0.241  0.00  0.00     0.161 C 
BRANCH  15  18
ATOM     18  C17 <0> d           4.245  -7.244   2.191  0.00  0.00     0.069 A 
ATOM     19  C22 <0> d           5.355  -6.779   2.888  0.00  0.00     0.142 A 
ATOM     20  C21 <0> d           5.579  -7.200   4.186  0.00  0.00     0.044 A 
ATOM     21  F1  <0> d           6.209  -5.913   2.300  0.00  0.00    -0.204 F 
ATOM     22  C20 <0> d           4.708  -8.091   4.785  0.00  0.00     0.003 A 
ATOM     23  C19 <0> d           3.607  -8.560   4.092  0.00  0.00     0.002 A 
ATOM     24  C18 <0> d           3.373  -8.139   2.797  0.00  0.00     0.032 A 
ENDBRANCH  15  18
ENDBRANCH   4  12
BRANCH   1  25
ATOM     25  C5  <0> d           1.809  -1.860  -3.216  0.00  0.00     0.059 A 
ATOM     26  C4  <0> d           1.744  -0.465  -3.137  0.00  0.00     0.034 A 
ATOM     27  C3  <0> d           1.123   0.134  -2.063  0.00  0.00     0.039 A 
ATOM     28  C2  <0> d           0.560  -0.645  -1.060  0.00  0.00     0.068 A 
ATOM     29  C7  <0> d           0.626  -2.031  -1.131  0.00  0.00     0.039 A 
ATOM     30  C6  <0> d           1.241  -2.640  -2.203  0.00  0.00     0.034 A 
BRANCH  28  31
ATOM     31  O1  <0> d          -0.052  -0.050  -0.003  0.00  0.00    -0.356 OA
ATOM     32  C1  <0> d          -0.085   1.379   0.007  0.00  0.00     0.210 C 
ENDBRANCH  28  31
ENDBRANCH   1  25
TORSDOF 4
