REMARK  5 active torsions:
REMARK  status: ('A' for Active; 'I' for Inactive)
REMARK    1  A    between atoms: C2_2  and  C3_3 
REMARK    2  A    between atoms: C2_2  and  N2_12 
REMARK       I    between atoms: C3_3  and  N1_5 
REMARK    3  A    between atoms: N1_5  and  C4_6 
REMARK    4  A    between atoms: C4_6  and  C5_7 
REMARK    5  A    between atoms: C15_20  and  O4_25 
ROOT
ATOM      1  N2  <0> d           0.688  -0.476  -1.203  0.00  0.00    -0.254 N 
ATOM      2  C9  <0> d           1.797  -1.245  -1.192  0.00  0.00     0.259 C 
ATOM      3  O3  <0> d           2.411  -1.631  -0.221  0.00  0.00    -0.270 OA
ATOM      4  C10 <0> d           2.114  -1.524  -2.645  0.00  0.00     0.139 C 
ATOM      5  C11 <0> d           3.507  -1.007  -3.001  0.00  0.00     0.149 A 
ATOM      6  C12 <0> d           3.325   0.179  -3.937  0.00  0.00    -0.040 A 
ATOM      7  C13 <0> d           3.962   1.200  -3.370  0.00  0.00    -0.003 A 
ATOM      8  C14 <0> d           4.194   2.581  -3.821  0.00  0.00     0.050 A 
ATOM      9  C15 <0> d           4.891   3.389  -2.975  0.00  0.00     0.069 A 
ATOM     10  C16 <0> d           5.385   2.979  -1.728  0.00  0.00     0.039 A 
ATOM     11  C17 <0> d           5.231   1.731  -1.218  0.00  0.00     0.033 A 
ATOM     12  C18 <0> d           4.497   0.763  -2.044  0.00  0.00     0.039 A 
ATOM     13  N3  <0> d           4.218  -0.502  -1.824  0.00  0.00    -0.378 N 
ATOM     14  C20 <0> d           2.502   0.129  -5.200  0.00  0.00     0.057 C 
ATOM     15  C21 <0> d           1.127  -0.456  -4.818  0.00  0.00     0.133 C 
ATOM     16  N4  <0> d           1.127  -0.699  -3.373  0.00  0.00    -0.313 N 
ATOM     17  C22 <0> d           0.288  -0.204  -2.453  0.00  0.00     0.329 C 
ATOM     18  O5  <0> d          -0.719   0.423  -2.721  0.00  0.00    -0.246 OA
ATOM     19  C23 <0> d           1.952  -3.009  -2.975  0.00  0.00     0.052 C 
ATOM     20  H29 <0> d           4.435  -1.013  -1.029  0.00  0.00     0.160 HD
ENDROOT
BRANCH   1  21
ATOM     21  C2  <0> d           0.002  -0.004   0.002  0.00  0.00     0.185 C 
ATOM     22  C1  <0> d          -0.019   1.526   0.010  0.00  0.00     0.043 C 
BRANCH  21  23
ATOM     23  C3  <0> d          -1.412  -0.526   0.013  0.00  0.00     0.240 C 
ATOM     24  O1  <0> d          -1.808  -1.223  -0.897  0.00  0.00    -0.271 OA
ATOM     25  N1  <0> d          -2.236  -0.217   1.033  0.00  0.00    -0.357 N 
ATOM     26  H7  <0> d          -1.920   0.341   1.761  0.00  0.00     0.162 HD
BRANCH  25  27
ATOM     27  C4  <0> d          -3.611  -0.724   1.044  0.00  0.00     0.154 C 
BRANCH  27  28
ATOM     28  C5  <0> d          -4.327  -0.231   2.302  0.00  0.00     0.139 C 
ATOM     29  O2  <0> d          -4.487   1.192   2.245  0.00  0.00    -0.384 OA
ATOM     30  C8  <0> d          -5.885   1.527   2.240  0.00  0.00     0.168 C 
ATOM     31  C7  <0> d          -6.592   0.324   2.915  0.00  0.00     0.029 C 
ATOM     32  C6  <0> d          -5.735  -0.857   2.383  0.00  0.00     0.035 C 
ENDBRANCH  27  28
ENDBRANCH  25  27
ENDBRANCH  21  23
ENDBRANCH   1  21
BRANCH   9  33
ATOM     33  O4  <0> d           5.123   4.671  -3.363  0.00  0.00    -0.356 OA
ATOM     34  C19 <0> d           5.856   5.500  -2.459  0.00  0.00     0.210 C 
ENDBRANCH   9  33
TORSDOF 5
