REMARK  4 active torsions:
REMARK  status: ('A' for Active; 'I' for Inactive)
REMARK    1  A    between atoms: N1_2  and  C2_3 
REMARK       I    between atoms: N1_2  and  C6_9 
REMARK    2  A    between atoms: C5_7  and  O1_8 
REMARK    3  A    between atoms: C6_9  and  C7_11 
REMARK    4  A    between atoms: C8_12  and  C9_13 
ROOT
ATOM      1  C1  <0> d          -0.018   1.461   0.010  0.00  0.00     0.153 C 
ATOM      2  N1  <0> d           0.002  -0.004   0.002  0.00  0.00    -0.344 N 
ATOM      3  C6  <0> d           0.000  -0.672  -1.169  0.00  0.00     0.243 C 
ATOM      4  O2  <0> d           0.017  -1.889  -1.175  0.00  0.00    -0.268 OA
ENDROOT
BRANCH   2   5
ATOM      5  C2  <0> d           0.024  -0.743   1.267  0.00  0.00     0.143 C 
ATOM      6  C5  <0> d           1.261  -0.346   2.098  0.00  0.00     0.168 C 
ATOM      7  C4  <0> d           0.689   0.254   3.403  0.00  0.00     0.266 C 
ATOM      8  N2  <0> d          -0.666  -0.344   3.527  0.00  0.00    -0.071 N 
ATOM      9  C3  <0> d          -1.190  -0.353   2.137  0.00  0.00     0.260 C 
ATOM     10  H8  <0> d          -1.250   0.226   4.121  0.00  0.00     0.277 HD
ATOM     11  H17 <0> d          -0.605  -1.284   3.888  0.00  0.00     0.277 HD
BRANCH   6  12
ATOM     12  O1  <0> d           2.056  -1.498   2.387  0.00  0.00    -0.392 OA
ATOM     13  H11 <0> d           2.849  -1.308   2.908  0.00  0.00     0.210 HD
ENDBRANCH   6  12
ENDBRANCH   2   5
BRANCH   3  14
ATOM     14  C7  <0> d          -0.021   0.042  -2.390  0.00  0.00     0.075 C 
ATOM     15  C8  <0> d          -0.023  -0.630  -3.568  0.00  0.00     0.024 C 
BRANCH  15  16
ATOM     16  C9  <0> d          -0.044   0.085  -4.791  0.00  0.00     0.004 A 
ATOM     17  S1  <0> d          -0.072   1.847  -5.062  0.00  0.00    -0.102 SA
ATOM     18  C12 <0> d          -0.084   1.857  -6.742  0.00  0.00     0.050 A 
ATOM     19  C11 <0> d          -0.076   0.545  -7.085  0.00  0.00     0.008 A 
ATOM     20  C10 <0> d          -0.056  -0.405  -6.092  0.00  0.00     0.019 A 
ENDBRANCH  15  16
ENDBRANCH   3  14
TORSDOF 4
