REMARK  5 active torsions:
REMARK  status: ('A' for Active; 'I' for Inactive)
REMARK    1  A    between atoms: C3_3  and  N6_22 
REMARK    2  A    between atoms: N2_6  and  C5_7 
REMARK    3  A    between atoms: C5_7  and  C6_8 
REMARK       I    between atoms: C6_8  and  N3_10 
REMARK    4  A    between atoms: N3_10  and  C7_11 
REMARK    5  A    between atoms: C7_11  and  C8_12 
ROOT
ATOM      1  C6  <0> d           0.653  -1.775   3.244  0.00  0.00     0.232 C 
ATOM      2  O1  <0> d           1.791  -1.389   3.413  0.00  0.00    -0.272 OA
ATOM      3  N3  <0> d           0.066  -2.565   4.165  0.00  0.00    -0.356 N 
ATOM      4  H8  <0> d          -0.843  -2.874   4.030  0.00  0.00     0.162 HD
ENDROOT
BRANCH   1   5
ATOM      5  C5  <0> d          -0.103  -1.371   2.005  0.00  0.00     0.217 C 
BRANCH   5   6
ATOM      6  N2  <0> d           0.749  -0.517   1.168  0.00  0.00    -0.212 NA
ATOM      7  C2  <0> d           0.002  -0.004   0.002  0.00  0.00     0.134 A 
ATOM      8  C1  <0> d          -0.019   1.526   0.010  0.00  0.00     0.035 C 
ATOM      9  C3  <0> d           0.774  -0.516  -1.194  0.00  0.00     0.122 A 
ATOM     10  C4  <0> d           1.794  -1.206  -0.723  0.00  0.00     0.047 A 
ATOM     11  N1  <0> d           1.805  -1.223   0.657  0.00  0.00    -0.320 N 
ATOM     12  C15 <0> d           2.821  -1.893  -1.586  0.00  0.00     0.071 C 
ATOM     13  H5  <0> d           2.473  -1.676   1.195  0.00  0.00     0.180 HD
BRANCH   9  14
ATOM     14  N6  <0> d           0.447  -0.288  -2.620  0.00  0.00    -0.116 N 
ATOM     15  O2  <0> d           1.151  -0.756  -3.484  0.00  0.00    -0.532 OA
ATOM     16  O3  <0> d          -0.523   0.367  -2.920  0.00  0.00    -0.532 OA
ENDBRANCH   9  14
ENDBRANCH   5   6
ENDBRANCH   1   5
BRANCH   3  17
ATOM     17  C7  <0> d           0.802  -2.958   5.370  0.00  0.00     0.169 C 
BRANCH  17  18
ATOM     18  C8  <0> d          -0.086  -3.848   6.242  0.00  0.00     0.199 A 
ATOM     19  N5  <0> d          -1.300  -3.120   6.633  0.00  0.00    -0.365 N 
ATOM     20  C14 <0> d          -2.319  -3.777   6.160  0.00  0.00     0.056 A 
ATOM     21  H20 <0> d          -1.335  -2.300   7.150  0.00  0.00     0.162 HD
ATOM     22  C9  <0> d          -1.834  -4.978   5.427  0.00  0.00     0.056 A 
ATOM     23  C13 <0> d          -3.769  -3.549   6.220  0.00  0.00     0.031 A 
ATOM     24  N4  <0> d          -0.534  -5.018   5.476  0.00  0.00    -0.365 N 
ATOM     25  C10 <0> d          -2.838  -5.858   4.813  0.00  0.00     0.031 A 
ATOM     26  H19 <0> d           0.035  -5.696   5.079  0.00  0.00     0.162 HD
ATOM     27  C11 <0> d          -4.147  -5.557   4.929  0.00  0.00     0.002 A 
ATOM     28  C12 <0> d          -4.605  -4.422   5.621  0.00  0.00     0.002 A 
ENDBRANCH  17  18
ENDBRANCH   3  17
TORSDOF 5
