REMARK  4 active torsions:
REMARK  status: ('A' for Active; 'I' for Inactive)
REMARK    1  A    between atoms: C6_6  and  O1_8 
REMARK    2  A    between atoms: O1_8  and  C8_9 
REMARK    3  A    between atoms: C11_12  and  C14_16 
REMARK    4  A    between atoms: C14_16  and  N1_17 
ROOT
ATOM      1  C8  <0> d           0.082  -1.999   3.477  0.00  0.00     0.077 A 
ATOM      2  C9  <0> d           1.310  -1.952   4.128  0.00  0.00     0.038 A 
ATOM      3  C10 <0> d           1.440  -1.256   5.309  0.00  0.00     0.020 A 
ATOM      4  C11 <0> d           0.336  -0.597   5.855  0.00  0.00     0.029 A 
ATOM      5  C12 <0> d          -0.898  -0.646   5.198  0.00  0.00     0.050 A 
ATOM      6  C13 <0> d          -1.018  -1.340   4.013  0.00  0.00     0.062 A 
ATOM      7 Cl1  <0> d          -2.274   0.171   5.871  0.00  0.00    -0.083 Cl
ENDROOT
BRANCH   1   8
ATOM      8  O1  <0> d          -0.042  -2.686   2.313  0.00  0.00    -0.310 OA
BRANCH   8   9
ATOM      9  C6  <0> d           0.184  -2.018   1.152  0.00  0.00     0.082 A 
ATOM     10  C5  <0> d           0.059  -2.676  -0.064  0.00  0.00    -0.028 A 
ATOM     11  C4  <0> d           0.290  -1.994  -1.243  0.00  0.00     0.010 A 
ATOM     12  C15 <0> d          -0.329  -4.131  -0.097  0.00  0.00     0.051 C 
ATOM     13  C3  <0> d           0.645  -0.659  -1.214  0.00  0.00     0.007 A 
ATOM     14  C2  <0> d           0.770  -0.001  -0.004  0.00  0.00    -0.059 A 
ATOM     15  C1  <0> d           1.158   1.455   0.025  0.00  0.00     0.048 C 
ATOM     16  C7  <0> d           0.546  -0.678   1.179  0.00  0.00     0.044 A 
ENDBRANCH   8   9
ENDBRANCH   1   8
BRANCH   4  17
ATOM     17  C14 <0> d           0.471   0.150   7.122  0.00  0.00     0.104 C 
ATOM     18  N2  <0> d           1.375   1.123   7.228  0.00  0.00    -0.385 N 
ATOM     19  H11 <0> d           1.944   1.341   6.473  0.00  0.00     0.157 HD
ATOM     20  H12 <0> d           1.464   1.613   8.060  0.00  0.00     0.157 HD
BRANCH  17  21
ATOM     21  N1  <0> d          -0.311  -0.150   8.158  0.00  0.00    -0.385 N 
ATOM     22  H10 <0> d          -1.002  -0.825   8.066  0.00  0.00     0.157 HD
ATOM     23  H16 <0> d          -0.189   0.307   9.006  0.00  0.00     0.157 HD
ENDBRANCH  17  21
ENDBRANCH   4  17
TORSDOF 4
