REMARK  3 active torsions:
REMARK  status: ('A' for Active; 'I' for Inactive)
REMARK    1  A    between atoms: C5_6  and  C6_7 
REMARK       I    between atoms: C6_7  and  N1_9 
REMARK    2  A    between atoms: N1_9  and  C7_10 
REMARK    3  A    between atoms: C12_15  and  N2_16 
ROOT
ATOM      1  C7  <0> d           0.150  -0.683   4.879  0.00  0.00     0.064 A 
ATOM      2  C8  <0> d           0.120   0.681   5.108  0.00  0.00     0.064 A 
ATOM      3  C9  <0> d           0.218   1.173   6.405  0.00  0.00     0.066 A 
ATOM      4  C10 <0> d           0.347   0.287   7.477  0.00  0.00     0.066 A 
ATOM      5  C11 <0> d           0.377  -1.084   7.244  0.00  0.00     0.063 A 
ATOM      6  C12 <0> d           0.273  -1.570   5.952  0.00  0.00     0.059 A 
ATOM      7  N3  <0> d           0.446   0.764   8.782  0.00  0.00    -0.312 N 
ATOM      8  C15 <0> d           0.418   2.091   9.021  0.00  0.00     0.316 A 
ATOM      9  O2  <0> d           0.504   2.511  10.157  0.00  0.00    -0.262 OA
ATOM     10  C16 <0> d           0.280   3.036   7.877  0.00  0.00     0.316 A 
ATOM     11  O3  <0> d           0.253   4.235   8.072  0.00  0.00    -0.262 OA
ATOM     12  N4  <0> d           0.187   2.548   6.623  0.00  0.00    -0.312 N 
ATOM     13  C17 <0> d           0.052   3.466   5.489  0.00  0.00     0.160 C 
ATOM     14  C18 <0> d           0.580  -0.177   9.896  0.00  0.00     0.160 C 
ENDROOT
BRANCH   1  15
ATOM     15  N1  <0> d           0.052  -1.176   3.571  0.00  0.00    -0.320 N 
ATOM     16  C6  <0> d          -0.553  -0.441   2.618  0.00  0.00     0.263 C 
ATOM     17  O1  <0> d          -1.102   0.605   2.912  0.00  0.00    -0.267 OA
ATOM     18  H6  <0> d           0.419  -2.047   3.352  0.00  0.00     0.169 HD
BRANCH  16  19
ATOM     19  C5  <0> d          -0.550  -0.900   1.226  0.00  0.00     0.078 A 
ATOM     20  C2  <0> d          -1.107  -0.301   0.106  0.00  0.00    -0.039 A 
ATOM     21  C1  <0> d          -1.850   1.008   0.184  0.00  0.00     0.050 C 
ATOM     22  C3  <0> d          -0.935  -0.974  -1.079  0.00  0.00     0.015 A 
ATOM     23  C4  <0> d          -0.256  -2.147  -1.078  0.00  0.00     0.051 A 
ATOM     24  S1  <0> d           0.170  -2.375   0.531  0.00  0.00    -0.096 SA
ENDBRANCH  16  19
ENDBRANCH   1  15
BRANCH   6  25
ATOM     25  N2  <0> d           0.297  -2.950   5.720  0.00  0.00    -0.388 N 
ATOM     26  C13 <0> d          -0.954  -3.713   5.709  0.00  0.00     0.149 C 
ATOM     27  C14 <0> d           1.572  -3.632   5.487  0.00  0.00     0.149 C 
ENDBRANCH   6  25
TORSDOF 3
