REMARK  3 active torsions:
REMARK  status: ('A' for Active; 'I' for Inactive)
REMARK    1  A    between atoms: C6_8  and  C8_11 
REMARK       I    between atoms: C8_11  and  N2_13 
REMARK    2  A    between atoms: N2_13  and  C9_14 
REMARK    3  A    between atoms: C10_17  and  C11_19 
ROOT
ATOM      1  C8  <0> d          -2.356   1.702   0.024  0.00  0.00     0.247 C 
ATOM      2  O2  <0> d          -2.542   0.504   0.018  0.00  0.00    -0.271 OA
ATOM      3  N2  <0> d          -1.099   2.189   0.019  0.00  0.00    -0.302 N 
ATOM      4  H11 <0> d          -0.951   3.148   0.024  0.00  0.00     0.171 HD
ENDROOT
BRANCH   1   5
ATOM      5  C6  <0> d          -3.530   2.647   0.035  0.00  0.00     0.190 C 
ATOM      6  N1  <0> d          -4.762   1.855  -0.043  0.00  0.00    -0.320 N 
ATOM      7  C2  <0> d          -5.802   2.249   0.941  0.00  0.00     0.081 C 
ATOM      8  C5  <0> d          -5.244   0.798  -0.755  0.00  0.00     0.222 C 
ATOM      9  C1  <0> d          -6.770   3.321   0.437  0.00  0.00     0.051 C 
ATOM     10  S1  <0> d          -4.750   2.820   2.340  0.00  0.00    -0.135 SA
ATOM     11  C3  <0> d          -6.501   0.929   1.307  0.00  0.00     0.051 C 
ATOM     12  C7  <0> d          -3.418   3.551   1.285  0.00  0.00     0.111 C 
ATOM     13  C4  <0> d          -6.438   0.193  -0.054  0.00  0.00     0.106 C 
ATOM     14  O1  <0> d          -4.781   0.398  -1.802  0.00  0.00    -0.273 OA
ENDBRANCH   1   5
BRANCH   3  15
ATOM     15  C9  <0> d          -0.016   1.318   0.009  0.00  0.00     0.196 A 
ATOM     16  S2  <0> d           1.688   1.668  -0.005  0.00  0.00    -0.033 SA
ATOM     17  C10 <0> d           2.244  -0.033  -0.019  0.00  0.00     0.105 A 
ATOM     18  N4  <0> d           1.083  -0.656  -0.012  0.00  0.00    -0.144 NA
ATOM     19  N3  <0> d           0.002  -0.004   0.002  0.00  0.00    -0.123 NA
BRANCH  17  20
ATOM     20  C11 <0> d           3.643  -0.593  -0.035  0.00  0.00     0.047 A 
ATOM     21  C13 <0> d           4.057  -1.492   1.131  0.00  0.00     0.012 A 
ATOM     22  C12 <0> d           3.798  -2.100  -0.249  0.00  0.00     0.012 A 
ENDBRANCH  17  20
ENDBRANCH   3  15
TORSDOF 3
