REMARK  4 active torsions:
REMARK  status: ('A' for Active; 'I' for Inactive)
REMARK    1  A    between atoms: C5_5  and  C7_7 
REMARK    2  A    between atoms: C7_7  and  C8_8 
REMARK    3  A    between atoms: C7_7  and  N1_15 
REMARK    4  A    between atoms: C8_8  and  C9_9 
ROOT
ATOM      1  C7  <0> d           1.229  -2.186  -0.022  0.00  0.00     0.222 C 
ENDROOT
BRANCH   1   2
ATOM      2  C5  <0> d           1.208  -0.679  -0.013  0.00  0.00    -0.010 A 
ATOM      3  C4  <0> d           2.397   0.029  -0.021  0.00  0.00     0.019 A 
ATOM      4  C3  <0> d           2.377   1.412  -0.013  0.00  0.00     0.019 A 
ATOM      5 Br2  <0> d           4.047  -0.894  -0.042  0.00  0.00    -0.051 Br
ATOM      6  C2  <0> d           1.171   2.086   0.002  0.00  0.00     0.001 A 
ATOM      7  C1  <0> d          -0.017   1.378   0.010  0.00  0.00     0.001 A 
ATOM      8  C6  <0> d           0.002  -0.004   0.002  0.00  0.00     0.011 A 
ENDBRANCH   1   2
BRANCH   1   9
ATOM      9  C8  <0> d           1.472  -2.684  -1.448  0.00  0.00     0.085 C 
BRANCH   9  10
ATOM     10  C9  <0> d           1.615  -4.185  -1.438  0.00  0.00     0.002 A 
ATOM     11  S1  <0> d           3.089  -5.172  -1.244  0.00  0.00    -0.105 SA
ATOM     12  C12 <0> d           2.329  -6.784  -1.356  0.00  0.00     0.051 A 
ATOM     13  C11 <0> d           1.024  -6.467  -1.538  0.00  0.00     0.027 A 
ATOM     14  C10 <0> d           0.658  -5.134  -1.581  0.00  0.00     0.024 A 
ATOM     15 Br1  <0> d          -1.151  -4.644  -1.833  0.00  0.00    -0.050 Br
ENDBRANCH   9  10
ENDBRANCH   1   9
BRANCH   1  16
ATOM     16  N1  <0> d          -0.061  -2.696   0.461  0.00  0.00    -0.071 N 
ATOM     17  H10 <0> d          -0.800  -2.366  -0.141  0.00  0.00     0.275 HD
ATOM     18  H11 <0> d          -0.048  -3.705   0.456  0.00  0.00     0.275 HD
ATOM     19  H12 <0> d          -0.222  -2.367   1.402  0.00  0.00     0.275 HD
ENDBRANCH   1  16
TORSDOF 4
