REMARK  4 active torsions:
REMARK  status: ('A' for Active; 'I' for Inactive)
REMARK    1  A    between atoms: C2_2  and  C3_3 
REMARK    2  A    between atoms: C2_2  and  N3_9 
REMARK    3  A    between atoms: C3_3  and  N1_4 
REMARK       I    between atoms: N3_9  and  C7_10 
REMARK    4  A    between atoms: C7_10  and  C8_12 
ROOT
ATOM      1  N3  <0> d           0.711  -0.489   1.189  0.00  0.00    -0.354 N 
ATOM      2  C7  <0> d           2.054  -0.600   1.174  0.00  0.00     0.229 C 
ATOM      3  O1  <0> d           2.676  -0.297   0.177  0.00  0.00    -0.273 OA
ATOM      4  H10 <0> d           0.213  -0.731   1.986  0.00  0.00     0.162 HD
ENDROOT
BRANCH   1   5
ATOM      5  C2  <0> d           0.002  -0.004   0.002  0.00  0.00     0.098 C 
ATOM      6  C1  <0> d          -0.019   1.526   0.010  0.00  0.00     0.034 C 
BRANCH   5   7
ATOM      7  C3  <0> d          -1.433  -0.534   0.013  0.00  0.00     0.153 C 
BRANCH   7   8
ATOM      8  N1  <0> d          -1.416  -1.993  -0.116  0.00  0.00    -0.350 N 
ATOM      9  C6  <0> d          -1.364  -2.886   0.896  0.00  0.00     0.182 A 
ATOM     10  N2  <0> d          -1.368  -4.090   0.393  0.00  0.00    -0.361 N 
ATOM     11  C5  <0> d          -1.414  -4.009  -0.946  0.00  0.00     0.106 A 
ATOM     12  H16 <0> d          -1.338  -4.913   0.905  0.00  0.00     0.166 HD
ATOM     13  C4  <0> d          -1.445  -2.706  -1.284  0.00  0.00     0.108 A 
ENDBRANCH   7   8
ENDBRANCH   5   7
ENDBRANCH   1   5
BRANCH   2  14
ATOM     14  C8  <0> d           2.783  -1.099   2.395  0.00  0.00     0.075 A 
ATOM     15  C10 <0> d           4.307  -1.202   2.314  0.00  0.00     0.130 A 
ATOM     16  C9  <0> d           3.453  -2.471   2.305  0.00  0.00     0.065 A 
ATOM     17 Cl1  <0> d           5.246  -0.841   3.811  0.00  0.00    -0.100 Cl
ATOM     18 Cl2  <0> d           5.094  -0.717   0.766  0.00  0.00    -0.100 Cl
ATOM     19  C11 <0> d           2.171  -0.697   3.738  0.00  0.00     0.029 C 
ENDBRANCH   2  14
TORSDOF 4
