REMARK  6 active torsions:
REMARK  status: ('A' for Active; 'I' for Inactive)
REMARK    1  A    between atoms: O1_2  and  C2_3 
REMARK    2  A    between atoms: C3_4  and  N1_28 
REMARK    3  A    between atoms: C4_5  and  O5_19 
REMARK    4  A    between atoms: C8_11  and  C9_13 
REMARK    5  A    between atoms: C15_20  and  C16_21 
REMARK    6  A    between atoms: C15_20  and  N1_28 
ROOT
ATOM      1  C2  <0> d          -3.951   5.970  -1.312  0.00  0.00     0.293 C 
ATOM      2  C3  <0> d          -4.292   4.491  -1.500  0.00  0.00     0.272 C 
ATOM      3  C4  <0> d          -5.059   4.301  -2.814  0.00  0.00     0.185 C 
ATOM      4  C5  <0> d          -6.297   5.197  -2.786  0.00  0.00     0.187 C 
ATOM      5  C6  <0> d          -5.846   6.650  -2.594  0.00  0.00     0.180 C 
ATOM      6  O2  <0> d          -5.146   6.758  -1.357  0.00  0.00    -0.349 OA
ATOM      7  C7  <0> d          -7.085   7.547  -2.609  0.00  0.00     0.206 C 
ATOM      8  O3  <0> d          -7.797   7.313  -3.831  0.00  0.00    -0.354 OA
ATOM      9  C8  <0> d          -8.182   5.953  -4.037  0.00  0.00     0.295 C 
ATOM     10  O4  <0> d          -7.029   5.104  -4.008  0.00  0.00    -0.346 OA
ENDROOT
BRANCH   2  11
ATOM     11  N1  <0> d          -3.046   3.702  -1.549  0.00  0.00    -0.060 N 
ATOM     12  H25 <0> d          -2.317   4.249  -2.021  0.00  0.00     0.278 HD
ATOM     13  H26 <0> d          -3.215   2.834  -2.072  0.00  0.00     0.278 HD
BRANCH  11  14
ATOM     14  C15 <0> d          -2.598   3.368  -0.184  0.00  0.00     0.271 C 
BRANCH  14  15
ATOM     15  C16 <0> d          -1.326   2.563  -0.265  0.00  0.00    -0.033 A 
ATOM     16  C21 <0> d          -0.102   3.204  -0.266  0.00  0.00     0.009 A 
ATOM     17  C20 <0> d           1.065   2.466  -0.340  0.00  0.00     0.001 A 
ATOM     18  C19 <0> d           1.007   1.087  -0.413  0.00  0.00     0.000 A 
ATOM     19  C18 <0> d          -0.218   0.446  -0.413  0.00  0.00     0.001 A 
ATOM     20  C17 <0> d          -1.385   1.185  -0.344  0.00  0.00     0.009 A 
ENDBRANCH  14  15
ENDBRANCH  11  14
ENDBRANCH   2  11
BRANCH   1  21
ATOM     21  O1  <0> d          -3.067   6.389  -2.353  0.00  0.00    -0.364 OA
ATOM     22  C1  <0> d          -2.505   7.688  -2.151  0.00  0.00     0.204 C 
ENDBRANCH   1  21
BRANCH   3  23
ATOM     23  O5  <0> d          -5.457   2.935  -2.945  0.00  0.00    -0.391 OA
ATOM     24  H17 <0> d          -5.948   2.744  -3.756  0.00  0.00     0.210 HD
ENDBRANCH   3  23
BRANCH   9  25
ATOM     25  C9  <0> d          -9.136   5.536  -2.947  0.00  0.00    -0.004 A 
ATOM     26  C14 <0> d          -9.951   6.477  -2.344  0.00  0.00     0.012 A 
ATOM     27  C13 <0> d         -10.826   6.095  -1.345  0.00  0.00     0.001 A 
ATOM     28  C12 <0> d         -10.887   4.772  -0.948  0.00  0.00     0.000 A 
ATOM     29  C11 <0> d         -10.073   3.831  -1.551  0.00  0.00     0.001 A 
ATOM     30  C10 <0> d          -9.201   4.213  -2.554  0.00  0.00     0.012 A 
ENDBRANCH   9  25
TORSDOF 6
