REMARK  2 active torsions:
REMARK  status: ('A' for Active; 'I' for Inactive)
REMARK    1  A    between atoms: C7_7  and  N1_13 
REMARK    2  A    between atoms: N1_13  and  C10_14 
ROOT
ATOM      1  C1  <0> d          -0.362   1.309  -0.244  0.00  0.00     0.001 A 
ATOM      2  C2  <0> d           0.758   2.118  -0.281  0.00  0.00     0.002 A 
ATOM      3  C3  <0> d           2.011   1.543  -0.226  0.00  0.00     0.024 A 
ATOM      4  C4  <0> d           2.154   0.166  -0.142  0.00  0.00     0.067 A 
ATOM      5  C5  <0> d           1.044  -0.647  -0.121  0.00  0.00    -0.006 A 
ATOM      6  C6  <0> d          -0.220  -0.059  -0.164  0.00  0.00     0.011 A 
ATOM      7  C7  <0> d           1.086  -2.146  -0.080  0.00  0.00     0.221 C 
ATOM      8  C8  <0> d           2.357  -2.709   0.529  0.00  0.00     0.053 C 
ATOM      9  C9  <0> d           3.559  -2.277  -0.324  0.00  0.00     0.148 C 
ATOM     10  S1  <0> d           3.789  -0.494  -0.053  0.00  0.00     0.176 S 
ATOM     11  O1  <0> d           4.210  -0.249   1.282  0.00  0.00    -0.223 OA
ATOM     12  O2  <0> d           4.478   0.087  -1.152  0.00  0.00    -0.223 OA
ENDROOT
BRANCH   7  13
ATOM     13  N1  <0> d          -0.059  -2.625   0.706  0.00  0.00    -0.062 N 
ATOM     14  H11 <0> d          -0.903  -2.184   0.373  0.00  0.00     0.278 HD
ATOM     15  H18 <0> d          -0.140  -3.626   0.606  0.00  0.00     0.278 HD
BRANCH  13  16
ATOM     16  C10 <0> d           0.143  -2.289   2.122  0.00  0.00     0.201 C 
ATOM     17  C13 <0> d          -0.953  -2.973   2.974  0.00  0.00     0.173 C 
ATOM     18  S2  <0> d          -1.189  -1.786   4.358  0.00  0.00     0.146 S 
ATOM     19  C12 <0> d          -0.030  -0.458   3.821  0.00  0.00     0.142 C 
ATOM     20  O3  <0> d          -0.699  -2.370   5.557  0.00  0.00    -0.228 OA
ATOM     21  O4  <0> d          -2.518  -1.285   4.316  0.00  0.00    -0.228 OA
ATOM     22  C11 <0> d           0.068  -0.763   2.300  0.00  0.00     0.049 C 
ENDBRANCH  13  16
ENDBRANCH   7  13
TORSDOF 2
