REMARK  6 active torsions:
REMARK  status: ('A' for Active; 'I' for Inactive)
REMARK    1  A    between atoms: C2_2  and  C3_3 
REMARK    2  A    between atoms: C3_3  and  N1_4 
REMARK    3  A    between atoms: N1_4  and  C4_5 
REMARK    4  A    between atoms: C4_5  and  C6_7 
REMARK    5  A    between atoms: C4_5  and  C10_14 
REMARK    6  A    between atoms: C6_7  and  N2_8 
ROOT
ATOM      1  C4  <0> d           1.071  -2.510  -2.456  0.00  0.00     0.226 C 
ATOM      2  C5  <0> d           2.406  -1.801  -2.215  0.00  0.00     0.060 C 
ENDROOT
BRANCH   1   3
ATOM      3  N1  <0> d           0.194  -2.309  -1.295  0.00  0.00    -0.055 N 
ATOM      4  H8  <0> d           0.657  -2.640  -0.462  0.00  0.00     0.278 HD
ATOM      5  H16 <0> d          -0.664  -2.823  -1.430  0.00  0.00     0.278 HD
BRANCH   3   6
ATOM      6  C3  <0> d          -0.110  -0.879  -1.152  0.00  0.00     0.233 C 
BRANCH   6   7
ATOM      7  C2  <0> d          -1.121  -0.683  -0.021  0.00  0.00     0.023 C 
ATOM      8  C1  <0> d          -1.438   0.806   0.128  0.00  0.00     0.007 C 
ENDBRANCH   6   7
ENDBRANCH   3   6
ENDBRANCH   1   3
BRANCH   1   9
ATOM      9  C6  <0> d           1.318  -4.006  -2.657  0.00  0.00     0.200 C 
BRANCH   9  10
ATOM     10  N2  <0> d           1.832  -4.587  -1.414  0.00  0.00    -0.277 N 
ATOM     11  N3  <0> d           3.001  -4.201  -0.746  0.00  0.00    -0.184 NA
ATOM     12  C9  <0> d           3.126  -4.945   0.323  0.00  0.00     0.159 A 
ATOM     13  C8  <0> d           2.047  -5.835   0.365  0.00  0.00     0.047 A 
ATOM     14  C7  <0> d           1.267  -5.594  -0.714  0.00  0.00     0.133 A 
ATOM     15 Br1  <0> d           1.734  -7.142   1.696  0.00  0.00    -0.048 Br
ENDBRANCH   9  10
ENDBRANCH   1   9
BRANCH   1  16
ATOM     16  C10 <0> d           0.415  -1.939  -3.687  0.00  0.00     0.212 C 
ATOM     17  O1  <0> d           1.068  -1.274  -4.473  0.00  0.00    -0.646 OA
ATOM     18  O2  <0> d          -0.769  -2.143  -3.896  0.00  0.00    -0.646 OA
ENDBRANCH   1  16
TORSDOF 6
