REMARK  6 active torsions:
REMARK  status: ('A' for Active; 'I' for Inactive)
REMARK    1  A    between atoms: C6_6  and  S1_8 
REMARK    2  A    between atoms: S1_8  and  N1_11 
REMARK    3  A    between atoms: N1_11  and  C8_12 
REMARK    4  A    between atoms: C8_12  and  C9_13 
REMARK    5  A    between atoms: C9_13  and  N2_14 
REMARK    6  A    between atoms: N2_14  and  C10_15 
ROOT
ATOM      1  C8  <0> d          -1.279   1.401   0.044  0.00  0.00     0.152 C 
ENDROOT
BRANCH   1   2
ATOM      2  N1  <0> d           0.085   0.867   0.079  0.00  0.00    -0.314 N 
ATOM      3  H7  <0> d           0.261  -0.169   0.403  0.00  0.00     0.172 HD
BRANCH   2   4
ATOM      4  S1  <0> d           1.377   1.883  -0.126  0.00  0.00     0.259 S 
ATOM      5  O1  <0> d           2.545   1.087   0.020  0.00  0.00    -0.201 OA
ATOM      6  O2  <0> d           1.114   2.643  -1.297  0.00  0.00    -0.201 OA
BRANCH   4   7
ATOM      7  C6  <0> d           1.367   3.016   1.224  0.00  0.00     0.086 A 
ATOM      8  C5  <0> d           1.569   2.558   2.512  0.00  0.00    -0.039 A 
ATOM      9  C4  <0> d           1.562   3.447   3.571  0.00  0.00     0.009 A 
ATOM     10  C18 <0> d           1.797   1.090   2.763  0.00  0.00     0.050 C 
ATOM     11  C3  <0> d           1.354   4.794   3.341  0.00  0.00     0.007 A 
ATOM     12  C2  <0> d           1.152   5.252   2.052  0.00  0.00    -0.060 A 
ATOM     13  C1  <0> d           0.925   6.721   1.801  0.00  0.00     0.048 C 
ATOM     14  C7  <0> d           1.163   4.364   0.993  0.00  0.00     0.032 A 
ENDBRANCH   4   7
ENDBRANCH   2   4
ENDBRANCH   1   2
BRANCH   1  15
ATOM     15  C9  <0> d          -2.271   0.253  -0.161  0.00  0.00     0.141 C 
BRANCH  15  16
ATOM     16  N2  <0> d          -3.635   0.787  -0.196  0.00  0.00    -0.372 N 
ATOM     17  H12 <0> d          -3.805   1.868  -0.083  0.00  0.00     0.161 HD
BRANCH  16  18
ATOM     18  C10 <0> d          -4.704  -0.065  -0.371  0.00  0.00     0.137 A 
ATOM     19  N4  <0> d          -4.518  -1.370  -0.516  0.00  0.00    -0.224 NA
ATOM     20  C17 <0> d          -5.537  -2.200  -0.679  0.00  0.00     0.235 A 
ATOM     21  N3  <0> d          -6.785  -1.798  -0.722  0.00  0.00    -0.241 NA
ATOM     22  C16 <0> d          -7.085  -0.497  -0.592  0.00  0.00     0.072 A 
ATOM     23  C11 <0> d          -6.030   0.430  -0.409  0.00  0.00     0.038 A 
ATOM     24  C15 <0> d          -8.407  -0.033  -0.632  0.00  0.00     0.032 A 
ATOM     25  C12 <0> d          -6.321   1.792  -0.271  0.00  0.00     0.017 A 
ATOM     26  C13 <0> d          -7.618   2.210  -0.314  0.00  0.00     0.001 A 
ATOM     27  C14 <0> d          -8.656   1.300  -0.494  0.00  0.00     0.002 A 
ENDBRANCH  16  18
ENDBRANCH  15  16
ENDBRANCH   1  15
TORSDOF 6
