REMARK  2 active torsions:
REMARK  status: ('A' for Active; 'I' for Inactive)
REMARK    1  A    between atoms: N1_4  and  C7_9 
REMARK    2  A    between atoms: C14_16  and  O2_17 
ROOT
ATOM      1  C7  <0> d          -2.787  -2.515   0.078  0.00  0.00     0.216 C 
ATOM      2  C8  <0> d          -2.764  -4.043   0.005  0.00  0.00     0.036 C 
ATOM      3  C9  <0> d          -4.132  -4.594   0.412  0.00  0.00     0.002 C 
ATOM      4  C10 <0> d          -4.632  -3.852   1.653  0.00  0.00     0.000 C 
ATOM      5  C11 <0> d          -5.860  -3.016   1.288  0.00  0.00     0.000 C 
ATOM      6  C12 <0> d          -5.417  -1.768   0.522  0.00  0.00     0.002 C 
ATOM      7  C13 <0> d          -5.051  -2.152  -0.913  0.00  0.00     0.034 C 
ATOM      8  C14 <0> d          -3.549  -1.958  -1.126  0.00  0.00     0.149 C 
ENDROOT
BRANCH   1   9
ATOM      9  N1  <0> d          -1.410  -2.003   0.066  0.00  0.00    -0.060 N 
ATOM     10  C3  <0> d          -1.432  -0.536   0.137  0.00  0.00     0.267 C 
ATOM     11  C2  <0> d           0.004  -0.005   0.124  0.00  0.00     0.143 C 
ATOM     12  C1  <0> d          -0.014   1.519   0.259  0.00  0.00     0.041 C 
ATOM     13  O1  <0> d           0.728  -0.573   1.218  0.00  0.00    -0.378 OA
ATOM     14  C5  <0> d           0.756  -2.003   1.207  0.00  0.00     0.143 C 
ATOM     15  C4  <0> d          -0.678  -2.538   1.222  0.00  0.00     0.267 C 
ATOM     16  C6  <0> d           1.504  -2.510   2.442  0.00  0.00     0.041 C 
ATOM     17  H28 <0> d          -0.951  -2.292  -0.785  0.00  0.00     0.280 HD
ENDBRANCH   1   9
BRANCH   8  18
ATOM     18  O2  <0> d          -3.143  -2.651  -2.308  0.00  0.00    -0.393 OA
ATOM     19  H27 <0> d          -3.587  -2.349  -3.113  0.00  0.00     0.210 HD
ENDBRANCH   8  18
TORSDOF 2
