REMARK  5 active torsions:
REMARK  status: ('A' for Active; 'I' for Inactive)
REMARK    1  A    between atoms: C2_2  and  C3_3 
REMARK    2  A    between atoms: C3_3  and  N1_4 
REMARK    3  A    between atoms: N1_4  and  C4_5 
REMARK    4  A    between atoms: C4_5  and  C5_6 
REMARK    5  A    between atoms: C4_5  and  C7_8 
ROOT
ATOM      1  C7  <0> d          -2.826  -3.909  -0.032  0.00  0.00    -0.008 A 
ATOM      2  C8  <0> d          -1.730  -4.597   0.452  0.00  0.00     0.042 A 
ATOM      3  C9  <0> d          -1.727  -5.983   0.446  0.00  0.00     0.064 A 
ATOM      4  C10 <0> d          -2.832  -6.679  -0.049  0.00  0.00     0.064 A 
ATOM      5  C11 <0> d          -3.927  -5.982  -0.532  0.00  0.00     0.051 A 
ATOM      6  C12 <0> d          -3.924  -4.599  -0.517  0.00  0.00     0.021 A 
ATOM      7 Br1  <0> d          -5.422  -3.647  -1.170  0.00  0.00    -0.050 Br
ATOM      8  N2  <0> d          -2.540  -8.036   0.074  0.00  0.00    -0.306 N 
ATOM      9  H2  <0> d          -3.121  -8.767  -0.189  0.00  0.00     0.170 HD
ATOM     10  C13 <0> d          -1.315  -8.159   0.618  0.00  0.00     0.325 A 
ATOM     11  O1  <0> d          -0.758  -9.214   0.859  0.00  0.00    -0.247 OA
ATOM     12  N3  <0> d          -0.799  -6.938   0.854  0.00  0.00    -0.306 N 
ATOM     13  H3  <0> d           0.071  -6.755   1.242  0.00  0.00     0.170 HD
ENDROOT
BRANCH   1  14
ATOM     14  C4  <0> d          -2.830  -2.402  -0.025  0.00  0.00     0.219 C 
BRANCH  14  15
ATOM     15  N1  <0> d          -1.447  -1.909  -0.054  0.00  0.00    -0.067 N 
ATOM     16  H11 <0> d          -0.926  -2.322   0.706  0.00  0.00     0.277 HD
ATOM     17  H19 <0> d          -1.445  -0.905   0.043  0.00  0.00     0.277 HD
BRANCH  15  18
ATOM     18  C3  <0> d          -0.822  -2.278  -1.332  0.00  0.00     0.232 C 
BRANCH  18  19
ATOM     19  C2  <0> d           0.574  -1.657  -1.415  0.00  0.00     0.023 C 
ATOM     20  C1  <0> d           1.224  -2.041  -2.745  0.00  0.00     0.007 C 
ENDBRANCH  18  19
ENDBRANCH  15  18
ENDBRANCH  14  15
BRANCH  14  21
ATOM     21  C5  <0> d          -3.524  -1.899   1.242  0.00  0.00     0.033 C 
ATOM     22  C6  <0> d          -3.647  -0.376   1.186  0.00  0.00     0.007 C 
ENDBRANCH  14  21
ENDBRANCH   1  14
TORSDOF 5
