REMARK  3 active torsions:
REMARK  status: ('A' for Active; 'I' for Inactive)
REMARK    1  A    between atoms: C4_4  and  C7_7 
REMARK       I    between atoms: N1_12  and  C13_14 
REMARK    2  A    between atoms: C13_14  and  C14_16 
REMARK    3  A    between atoms: C14_16  and  C15_17 
ROOT
ATOM      1  C7  <0> d           3.711  -0.707  -0.038  0.00  0.00     0.167 A 
ATOM      2  C8  <0> d           4.042  -1.243   1.331  0.00  0.00    -0.007 A 
ATOM      3  C9  <0> d           4.091  -2.571   1.181  0.00  0.00     0.062 A 
ATOM      4  C10 <0> d           4.393  -3.525   2.315  0.00  0.00     0.081 C 
ATOM      5  C11 <0> d           5.062  -2.749   3.454  0.00  0.00     0.132 C 
ATOM      6  N1  <0> d           4.320  -1.502   3.696  0.00  0.00    -0.348 N 
ATOM      7  C12 <0> d           4.280  -0.500   2.613  0.00  0.00     0.164 C 
ATOM      8  C13 <0> d           3.696  -1.282   4.870  0.00  0.00     0.222 C 
ATOM      9  O1  <0> d           3.089  -0.247   5.050  0.00  0.00    -0.273 OA
ATOM     10  N3  <0> d           3.834  -2.898  -0.106  0.00  0.00    -0.183 NA
ATOM     11  N4  <0> d           3.615  -1.933  -0.853  0.00  0.00    -0.300 N 
ATOM     12  H21 <0> d           3.415  -1.974  -1.802  0.00  0.00     0.183 HD
ENDROOT
BRANCH   8  13
ATOM     13  C14 <0> d           3.751  -2.321   5.960  0.00  0.00     0.133 C 
BRANCH  13  14
ATOM     14  C15 <0> d           2.968  -1.826   7.177  0.00  0.00     0.127 A 
ATOM     15  N2  <0> d           3.648  -0.674   7.780  0.00  0.00    -0.348 N 
ATOM     16  C22 <0> d           3.987  -0.986   9.044  0.00  0.00     0.252 A 
ATOM     17  H20 <0> d           3.824   0.172   7.339  0.00  0.00     0.163 HD
ATOM     18  C21 <0> d           3.555  -2.360   9.366  0.00  0.00     0.040 A 
ATOM     19  O2  <0> d           4.565  -0.242   9.812  0.00  0.00    -0.268 OA
ATOM     20  C16 <0> d           2.929  -2.897   8.239  0.00  0.00    -0.019 A 
ATOM     21  C20 <0> d           3.669  -3.135  10.521  0.00  0.00     0.017 A 
ATOM     22  C17 <0> d           2.428  -4.178   8.267  0.00  0.00     0.010 A 
ATOM     23  C18 <0> d           2.544  -4.941   9.417  0.00  0.00     0.001 A 
ATOM     24  C19 <0> d           3.163  -4.418  10.539  0.00  0.00     0.001 A 
ENDBRANCH  13  14
ENDBRANCH   8  13
BRANCH   1  25
ATOM     25  C4  <0> d           2.396   0.029  -0.020  0.00  0.00    -0.030 A 
ATOM     26  C3  <0> d           2.377   1.411  -0.013  0.00  0.00     0.009 A 
ATOM     27  C2  <0> d           1.171   2.086   0.002  0.00  0.00     0.001 A 
ATOM     28  C1  <0> d          -0.017   1.378   0.010  0.00  0.00     0.000 A 
ATOM     29  C6  <0> d           0.002  -0.004   0.002  0.00  0.00     0.001 A 
ATOM     30  C5  <0> d           1.208  -0.679  -0.012  0.00  0.00     0.009 A 
ENDBRANCH   1  25
TORSDOF 3
