REMARK  6 active torsions:
REMARK  status: ('A' for Active; 'I' for Inactive)
REMARK    1  A    between atoms: C2_2  and  C3_3 
REMARK    2  A    between atoms: C2_2  and  N3_22 
REMARK    3  A    between atoms: C6_6  and  S2_8 
REMARK    4  A    between atoms: S2_8  and  N1_11 
REMARK    5  A    between atoms: C10_15  and  C12_17 
REMARK    6  A    between atoms: C12_17  and  N2_18 
REMARK       I    between atoms: N2_18  and  C13_19 
REMARK       I    between atoms: N3_22  and  C15_23 
ROOT
ATOM      1  S2  <0> d          -5.512  -1.846   1.101  0.00  0.00     0.267 S 
ATOM      2  O1  <0> d          -5.726  -1.109   2.297  0.00  0.00    -0.200 OA
ATOM      3  O2  <0> d          -6.405  -1.784  -0.002  0.00  0.00    -0.200 OA
ENDROOT
BRANCH   1   4
ATOM      4  C6  <0> d          -3.927  -1.370   0.494  0.00  0.00     0.120 A 
ATOM      5  C5  <0> d          -3.447  -1.425  -0.772  0.00  0.00     0.034 A 
ATOM      6  C4  <0> d          -2.157  -0.992  -1.019  0.00  0.00     0.019 A 
ATOM      7  C3  <0> d          -1.412  -0.526   0.013  0.00  0.00     0.006 A 
ATOM      8  S1  <0> d          -2.537  -0.697   1.389  0.00  0.00    -0.079 SA
BRANCH   7   9
ATOM      9  C2  <0> d           0.002  -0.004   0.002  0.00  0.00     0.120 C 
ATOM     10  C1  <0> d          -0.019   1.526   0.010  0.00  0.00     0.038 C 
BRANCH   9  11
ATOM     11  N3  <0> d           0.711  -0.489   1.189  0.00  0.00    -0.353 N 
ATOM     12  C15 <0> d           2.054  -0.600   1.174  0.00  0.00     0.214 C 
ATOM     13  O4  <0> d           2.676  -0.297   0.177  0.00  0.00    -0.274 OA
ATOM     14  C16 <0> d           2.783  -1.099   2.395  0.00  0.00     0.117 C 
ATOM     15  H22 <0> d           0.213  -0.731   1.986  0.00  0.00     0.163 HD
ENDBRANCH   9  11
ENDBRANCH   7   9
ENDBRANCH   1   4
BRANCH   1  16
ATOM     16  N1  <0> d          -5.410  -3.440   1.539  0.00  0.00    -0.306 N 
ATOM     17  C11 <0> d          -5.019  -3.817   2.904  0.00  0.00     0.141 C 
ATOM     18  C10 <0> d          -3.846  -4.792   2.835  0.00  0.00     0.022 C 
ATOM     19  C9  <0> d          -4.219  -5.974   1.938  0.00  0.00     0.009 C 
ATOM     20  C8  <0> d          -4.515  -5.470   0.523  0.00  0.00     0.021 C 
ATOM     21  C7  <0> d          -5.702  -4.503   0.568  0.00  0.00     0.135 C 
BRANCH  18  22
ATOM     22  C12 <0> d          -3.517  -5.301   4.240  0.00  0.00     0.128 C 
BRANCH  22  23
ATOM     23  N2  <0> d          -2.318  -6.141   4.188  0.00  0.00    -0.361 N 
ATOM     24  C13 <0> d          -1.839  -6.702   5.315  0.00  0.00     0.213 C 
ATOM     25  O3  <0> d          -2.400  -6.512   6.373  0.00  0.00    -0.274 OA
ATOM     26  C14 <0> d          -0.606  -7.566   5.261  0.00  0.00     0.117 C 
ATOM     27  H18 <0> d          -1.869  -6.293   3.341  0.00  0.00     0.162 HD
ENDBRANCH  22  23
ENDBRANCH  18  22
ENDBRANCH   1  16
TORSDOF 6
