REMARK  15 active torsions:
REMARK  status: ('A' for Active; 'I' for Inactive)
REMARK    1  A    between atoms: C2_2  and  C3_3 
REMARK    2  A    between atoms: C3_3  and  C4_4 
REMARK    3  A    between atoms: C4_4  and  C5_5 
REMARK    4  A    between atoms: C5_5  and  C6_6 
REMARK    5  A    between atoms: C7_7  and  C8_8 
REMARK    6  A    between atoms: C8_8  and  C9_9 
REMARK    7  A    between atoms: C10_10  and  O5_25 
REMARK    8  A    between atoms: C12_12  and  O4_24 
REMARK    9  A    between atoms: C13_13  and  C14_14 
REMARK   10  A    between atoms: C15_15  and  C16_16 
REMARK   11  A    between atoms: C16_16  and  C17_17 
REMARK   12  A    between atoms: C16_16  and  O3_23 
REMARK   13  A    between atoms: C17_17  and  C18_18 
REMARK   14  A    between atoms: C18_18  and  C19_19 
REMARK   15  A    between atoms: C19_19  and  C20_20 
ROOT
ATOM      1  C9  <0> d          -0.364  -1.389   8.222  0.00  0.00     0.028 C 
ATOM      2  C10 <0> d          -1.466  -1.384   9.310  0.00  0.00     0.125 C 
ATOM      3  C11 <0> d          -1.004  -2.507  10.270  0.00  0.00     0.064 C 
ATOM      4  C12 <0> d          -0.432  -3.593   9.335  0.00  0.00     0.128 C 
ATOM      5  C13 <0> d          -0.022  -2.881   8.032  0.00  0.00     0.043 C 
ENDROOT
BRANCH   5   6
ATOM      6  C14 <0> d           1.457  -3.046   7.793  0.00  0.00    -0.021 C 
ATOM      7  C15 <0> d           1.884  -3.589   6.681  0.00  0.00     0.001 C 
BRANCH   7   8
ATOM      8  C16 <0> d           3.363  -3.754   6.442  0.00  0.00     0.140 C 
BRANCH   8   9
ATOM      9  C17 <0> d           3.688  -5.237   6.256  0.00  0.00     0.036 C 
BRANCH   9  10
ATOM     10  C18 <0> d           5.202  -5.417   6.138  0.00  0.00     0.013 C 
BRANCH  10  11
ATOM     11  C19 <0> d           5.527  -6.901   5.952  0.00  0.00     0.113 C 
BRANCH  11  12
ATOM     12  C20 <0> d           7.019  -7.078   5.836  0.00  0.00     0.172 C 
ATOM     13  O1  <0> d           7.755  -6.108   5.897  0.00  0.00    -0.648 OA
ATOM     14  O2  <0> d           7.490  -8.192   5.681  0.00  0.00    -0.648 OA
ENDBRANCH  11  12
ENDBRANCH  10  11
ENDBRANCH   9  10
ENDBRANCH   8   9
BRANCH   8  15
ATOM     15  O3  <0> d           3.740  -3.033   5.267  0.00  0.00    -0.392 OA
ATOM     16  H31 <0> d           3.287  -3.325   4.465  0.00  0.00     0.210 HD
ENDBRANCH   8  15
ENDBRANCH   7   8
ENDBRANCH   5   6
BRANCH   1  17
ATOM     17  C8  <0> d          -0.895  -0.791   6.918  0.00  0.00     0.034 C 
BRANCH  17  18
ATOM     18  C7  <0> d          -1.148   0.682   7.107  0.00  0.00    -0.030 C 
ATOM     19  C6  <0> d          -0.610   1.550   6.286  0.00  0.00    -0.031 C 
BRANCH  19  20
ATOM     20  C5  <0> d           0.120   1.072   5.057  0.00  0.00     0.027 C 
BRANCH  20  21
ATOM     21  C4  <0> d          -0.436   1.787   3.824  0.00  0.00     0.004 C 
BRANCH  21  22
ATOM     22  C3  <0> d           0.305   1.302   2.576  0.00  0.00    -0.000 C 
BRANCH  22  23
ATOM     23  C2  <0> d          -0.251   2.017   1.343  0.00  0.00    -0.005 C 
ATOM     24  C1  <0> d           0.490   1.532   0.095  0.00  0.00     0.005 C 
ENDBRANCH  22  23
ENDBRANCH  21  22
ENDBRANCH  20  21
ENDBRANCH  19  20
ENDBRANCH  17  18
ENDBRANCH   1  17
BRANCH   4  25
ATOM     25  O4  <0> d           0.710  -4.206   9.937  0.00  0.00    -0.395 OA
ATOM     26  H32 <0> d           0.521  -4.653  10.774  0.00  0.00     0.210 HD
ENDBRANCH   4  25
BRANCH   2  27
ATOM     27  O5  <0> d          -1.509  -0.123   9.982  0.00  0.00    -0.395 OA
ATOM     28  H33 <0> d          -2.183  -0.069  10.673  0.00  0.00     0.210 HD
ENDBRANCH   2  27
TORSDOF 15
