REMARK  7 active torsions:
REMARK  status: ('A' for Active; 'I' for Inactive)
REMARK    1  A    between atoms: C4_4  and  C7_7 
REMARK    2  A    between atoms: C7_7  and  C8_8 
REMARK    3  A    between atoms: C8_8  and  C9_9 
REMARK    4  A    between atoms: C9_9  and  N1_10 
REMARK       I    between atoms: N1_10  and  C10_11 
REMARK    5  A    between atoms: C10_11  and  C11_13 
REMARK    6  A    between atoms: N4_24  and  C21_27 
REMARK    7  A    between atoms: C20_25  and  N5_26 
ROOT
ATOM      1  C11 <0> d          -5.261  -2.118   0.724  0.00  0.00     0.108 A 
ATOM      2  C12 <0> d          -5.636  -1.605  -0.604  0.00  0.00     0.123 A 
ATOM      3  C13 <0> d          -4.535  -0.724  -1.005  0.00  0.00     0.167 A 
ATOM      4  N2  <0> d          -4.585  -0.116  -2.172  0.00  0.00    -0.226 NA
ATOM      5  C14 <0> d          -5.642  -0.299  -2.974  0.00  0.00     0.088 A 
ATOM      6  C15 <0> d          -5.706   0.352  -4.220  0.00  0.00     0.034 A 
ATOM      7  C16 <0> d          -6.784   0.161  -5.029  0.00  0.00     0.002 A 
ATOM      8  C17 <0> d          -7.831  -0.673  -4.643  0.00  0.00     0.002 A 
ATOM      9  C18 <0> d          -7.805  -1.319  -3.446  0.00  0.00     0.034 A 
ATOM     10  C19 <0> d          -6.707  -1.147  -2.582  0.00  0.00     0.086 A 
ATOM     11  N3  <0> d          -6.671  -1.777  -1.401  0.00  0.00    -0.242 NA
ATOM     12  N4  <0> d          -3.607  -0.747   0.017  0.00  0.00    -0.279 N 
ATOM     13  C20 <0> d          -4.026  -1.556   1.030  0.00  0.00     0.126 A 
ENDROOT
BRANCH   1  14
ATOM     14  C10 <0> d          -6.034  -3.037   1.556  0.00  0.00     0.257 C 
ATOM     15  N1  <0> d          -5.853  -4.367   1.438  0.00  0.00    -0.357 N 
ATOM     16  H12 <0> d          -5.210  -4.715   0.800  0.00  0.00     0.162 HD
ATOM     17  O1  <0> d          -6.842  -2.601   2.356  0.00  0.00    -0.267 OA
BRANCH  15  18
ATOM     18  C9  <0> d          -6.628  -5.289   2.272  0.00  0.00     0.123 C 
BRANCH  18  19
ATOM     19  C8  <0> d          -6.234  -6.730   1.943  0.00  0.00     0.024 C 
BRANCH  19  20
ATOM     20  C7  <0> d          -7.044  -7.692   2.814  0.00  0.00     0.040 C 
BRANCH  20  21
ATOM     21  C4  <0> d          -6.656  -9.112   2.489  0.00  0.00    -0.058 A 
ATOM     22  C3  <0> d          -5.624  -9.721   3.179  0.00  0.00     0.007 A 
ATOM     23  C2  <0> d          -5.268 -11.023   2.881  0.00  0.00     0.001 A 
ATOM     24  C1  <0> d          -5.944 -11.716   1.894  0.00  0.00     0.000 A 
ATOM     25  C6  <0> d          -6.975 -11.107   1.204  0.00  0.00     0.001 A 
ATOM     26  C5  <0> d          -7.335  -9.806   1.506  0.00  0.00     0.007 A 
ENDBRANCH  20  21
ENDBRANCH  19  20
ENDBRANCH  18  19
ENDBRANCH  15  18
ENDBRANCH   1  14
BRANCH  13  27
ATOM     27  N5  <0> d          -3.329  -1.785   2.188  0.00  0.00    -0.384 N 
ATOM     28  H17 <0> d          -2.471  -1.355   2.330  0.00  0.00     0.157 HD
ATOM     29  H18 <0> d          -3.694  -2.376   2.865  0.00  0.00     0.157 HD
ENDBRANCH  13  27
BRANCH  12  30
ATOM     30  C21 <0> d          -2.400  -0.032   0.015  0.00  0.00     0.045 A 
ATOM     31  C26 <0> d          -1.190  -0.711   0.004  0.00  0.00     0.069 A 
ATOM     32  C25 <0> d           0.002  -0.004   0.002  0.00  0.00     0.104 A 
ATOM     33  C24 <0> d          -0.017   1.386   0.010  0.00  0.00     0.102 A 
ATOM     34  O2  <0> d           1.181  -0.685  -0.006  0.00  0.00    -0.346 OA
ATOM     35  C23 <0> d          -1.228   2.061   0.019  0.00  0.00     0.042 A 
ATOM     36  O3  <0> d           1.144   2.098   0.002  0.00  0.00    -0.346 OA
ATOM     37  C22 <0> d          -2.416   1.356   0.025  0.00  0.00     0.033 A 
ATOM     38  C28 <0> d           2.335   1.391   0.365  0.00  0.00     0.202 C 
ATOM     39  C27 <0> d           2.347   0.053  -0.387  0.00  0.00     0.202 C 
ENDBRANCH  12  30
TORSDOF 7
