REMARK  3 active torsions:
REMARK  status: ('A' for Active; 'I' for Inactive)
REMARK    1  A    between atoms: C4_4  and  C15_18 
REMARK    2  A    between atoms: N1_6  and  C6_7 
REMARK    3  A    between atoms: C9_10  and  N2_13 
REMARK       I    between atoms: N2_13  and  C12_14 
ROOT
ATOM      1  C1  <0> d          -3.917   4.209   7.592  0.00  0.00     0.068 C 
ATOM      2  C2  <0> d          -2.571   3.743   7.100  0.00  0.00     0.014 A 
ATOM      3  C3  <0> d          -2.330   3.197   5.896  0.00  0.00     0.038 A 
ATOM      4  C4  <0> d          -0.891   2.897   5.858  0.00  0.00    -0.010 A 
ATOM      5  C5  <0> d          -0.384   3.312   7.081  0.00  0.00     0.023 A 
ATOM      6  N1  <0> d          -1.402   3.813   7.806  0.00  0.00    -0.319 N 
ATOM      7  C14 <0> d           1.054   3.219   7.521  0.00  0.00     0.069 C 
ENDROOT
BRANCH   4   8
ATOM      8  C15 <0> d          -0.170   2.310   4.790  0.00  0.00     0.036 C 
ATOM      9  C16 <0> d          -0.693   1.216   4.121  0.00  0.00     0.101 A 
ATOM     10  C19 <0> d          -0.060   0.688   2.898  0.00  0.00     0.265 A 
ATOM     11  C17 <0> d          -1.905   0.527   4.600  0.00  0.00     0.265 A 
ATOM     12  N4  <0> d          -0.624  -0.381   2.299  0.00  0.00    -0.294 N 
ATOM     13  O3  <0> d           0.943   1.203   2.441  0.00  0.00    -0.267 OA
ATOM     14  C18 <0> d          -1.732  -0.955   2.789  0.00  0.00     0.185 A 
ATOM     15  C20 <0> d          -0.015  -0.924   1.083  0.00  0.00     0.162 C 
ATOM     16  N3  <0> d          -2.356  -0.532   3.897  0.00  0.00    -0.294 N 
ATOM     17  S1  <0> d          -2.381  -2.304   1.958  0.00  0.00    -0.040 SA
ATOM     18  C21 <0> d          -3.560  -1.233   4.353  0.00  0.00     0.162 C 
ATOM     19  O2  <0> d          -2.484   0.905   5.602  0.00  0.00    -0.267 OA
ENDBRANCH   4   8
BRANCH   6  20
ATOM     20  C6  <0> d          -1.280   4.334   9.102  0.00  0.00     0.039 A 
ATOM     21  C11 <0> d          -1.528   5.681   9.335  0.00  0.00     0.032 A 
ATOM     22  C10 <0> d          -1.409   6.194  10.610  0.00  0.00     0.032 A 
ATOM     23  C9  <0> d          -1.041   5.363  11.661  0.00  0.00     0.034 A 
ATOM     24  C8  <0> d          -0.793   4.017  11.428  0.00  0.00     0.032 A 
ATOM     25  C7  <0> d          -0.917   3.503  10.153  0.00  0.00     0.032 A 
BRANCH  23  26
ATOM     26  N2  <0> d          -0.920   5.884  12.955  0.00  0.00    -0.328 N 
ATOM     27  C12 <0> d           0.038   5.418  13.782  0.00  0.00     0.218 C 
ATOM     28  O1  <0> d           0.755   4.506  13.427  0.00  0.00    -0.274 OA
ATOM     29  C13 <0> d           0.217   6.030  15.147  0.00  0.00     0.117 C 
ATOM     30  H9  <0> d          -1.525   6.579  13.257  0.00  0.00     0.169 HD
ENDBRANCH  23  26
ENDBRANCH   6  20
TORSDOF 3
