REMARK  5 active torsions:
REMARK  status: ('A' for Active; 'I' for Inactive)
REMARK    1  A    between atoms: O1_2  and  C2_3 
REMARK    2  A    between atoms: C2_3  and  C3_4 
REMARK    3  A    between atoms: C3_4  and  N1_5 
REMARK       I    between atoms: N1_5  and  C4_6 
REMARK    4  A    between atoms: C4_6  and  C5_8 
REMARK    5  A    between atoms: C5_8  and  C6_9 
ROOT
ATOM      1  C6  <0> d           0.604  -5.838   2.812  0.00  0.00     0.113 C 
ATOM      2  C7  <0> d           1.085  -6.202   4.236  0.00  0.00     0.108 C 
ATOM      3  S1  <0> d           2.205  -7.601   3.810  0.00  0.00    -0.090 SA
ATOM      4  C8  <0> d           2.500  -7.175   2.104  0.00  0.00     0.172 A 
ATOM      5  N2  <0> d           1.580  -6.219   1.785  0.00  0.00    -0.287 N 
ATOM      6  C9  <0> d           1.646  -5.703   0.521  0.00  0.00     0.258 A 
ATOM      7  O3  <0> d           0.872  -4.822   0.183  0.00  0.00    -0.267 OA
ATOM      8  C10 <0> d           2.601  -6.181  -0.387  0.00  0.00     0.035 A 
ATOM      9  C11 <0> d           3.469  -7.156   0.009  0.00  0.00     0.049 A 
ATOM     10  N3  <0> d           3.389  -7.625   1.248  0.00  0.00    -0.228 NA
ATOM     11  C12 <0> d           4.397  -7.520  -1.129  0.00  0.00     0.060 C 
ATOM     12  C13 <0> d           3.720  -6.955  -2.397  0.00  0.00     0.011 C 
ATOM     13  C14 <0> d           2.876  -5.795  -1.824  0.00  0.00     0.047 C 
ENDROOT
BRANCH   1  14
ATOM     14  C5  <0> d           0.369  -4.328   2.738  0.00  0.00     0.129 C 
BRANCH  14  15
ATOM     15  C4  <0> d          -0.677  -3.932   3.748  0.00  0.00     0.219 C 
ATOM     16  N1  <0> d          -0.960  -2.630   3.950  0.00  0.00    -0.359 N 
ATOM     17  H9  <0> d          -0.490  -1.947   3.445  0.00  0.00     0.162 HD
ATOM     18  O2  <0> d          -1.265  -4.785   4.378  0.00  0.00    -0.274 OA
BRANCH  16  19
ATOM     19  C3  <0> d          -1.978  -2.245   4.931  0.00  0.00     0.148 C 
BRANCH  19  20
ATOM     20  C2  <0> d          -2.103  -0.720   4.964  0.00  0.00     0.186 C 
BRANCH  20  21
ATOM     21  O1  <0> d          -2.596  -0.255   3.706  0.00  0.00    -0.394 OA
ATOM     22  C1  <0> d          -2.751   1.163   3.631  0.00  0.00     0.201 C 
ENDBRANCH  20  21
ENDBRANCH  19  20
ENDBRANCH  16  19
ENDBRANCH  14  15
ENDBRANCH   1  14
TORSDOF 5
