REMARK  7 active torsions:
REMARK  status: ('A' for Active; 'I' for Inactive)
REMARK    1  A    between atoms: C2_2  and  O4_26 
REMARK    2  A    between atoms: C6_6  and  O1_10 
REMARK    3  A    between atoms: C7_11  and  C13_19 
REMARK    4  A    between atoms: C8_12  and  C9_13 
REMARK    5  A    between atoms: C9_13  and  O3_15 
REMARK    6  A    between atoms: O3_15  and  C10_16 
REMARK    7  A    between atoms: C10_16  and  C11_17 
ROOT
ATOM      1  C1  <0> d           4.667  -0.590  -0.776  0.00  0.00     0.047 C 
ATOM      2  C2  <0> d           4.710   0.891  -1.161  0.00  0.00     0.073 C 
ATOM      3  C3  <0> d           5.473   1.676  -0.087  0.00  0.00     0.097 C 
ATOM      4  C4  <0> d           4.630   1.714   1.163  0.00  0.00     0.042 A 
ATOM      5  C5  <0> d           3.303   1.433   1.195  0.00  0.00     0.030 A 
ATOM      6  C6  <0> d           2.865   1.568   2.515  0.00  0.00     0.190 A 
ATOM      7  N1  <0> d           3.896   1.920   3.249  0.00  0.00    -0.149 NA
ATOM      8  N2  <0> d           5.019   2.017   2.413  0.00  0.00    -0.279 N 
ATOM      9  H1  <0> d           5.944   2.267   2.698  0.00  0.00     0.189 HD
ATOM     10  C7  <0> d           2.490   1.047  -0.016  0.00  0.00     0.074 C 
ATOM     11  C8  <0> d           3.282   1.431  -1.272  0.00  0.00     0.133 C 
ENDROOT
BRANCH  10  12
ATOM     12  C13 <0> d           1.175   1.783   0.000  0.00  0.00    -0.047 A 
ATOM     13  C18 <0> d           1.157   3.165   0.007  0.00  0.00     0.027 A 
ATOM     14  C17 <0> d          -0.050   3.841   0.022  0.00  0.00     0.011 A 
ATOM     15  C16 <0> d          -1.238   3.133   0.030  0.00  0.00     0.019 A 
ATOM     16 Br1  <0> d          -0.076   5.731   0.032  0.00  0.00    -0.051 Br
ATOM     17  C15 <0> d          -1.219   1.750   0.017  0.00  0.00     0.002 A 
ATOM     18  C14 <0> d          -0.013   1.076   0.008  0.00  0.00     0.008 A 
ENDBRANCH  10  12
BRANCH  11  19
ATOM     19  C9  <0> d           2.614   0.840  -2.486  0.00  0.00     0.267 C 
ATOM     20  O2  <0> d           3.218   0.066  -3.191  0.00  0.00    -0.265 OA
BRANCH  19  21
ATOM     21  O3  <0> d           1.349   1.174  -2.786  0.00  0.00    -0.317 OA
BRANCH  21  22
ATOM     22  C10 <0> d           0.770   0.566  -3.970  0.00  0.00     0.205 C 
BRANCH  22  23
ATOM     23  C11 <0> d          -0.645   1.055  -4.145  0.00  0.00    -0.011 C 
ATOM     24  C12 <0> d          -1.066   1.432  -5.327  0.00  0.00     0.009 C 
ENDBRANCH  22  23
ENDBRANCH  21  22
ENDBRANCH  19  21
ENDBRANCH  11  19
BRANCH   6  25
ATOM     25  O1  <0> d           1.596   1.370   2.961  0.00  0.00    -0.343 OA
ATOM     26  H9  <0> d           1.560   1.534   3.947  0.00  0.00     0.219 HD
ENDBRANCH   6  25
BRANCH   2  27
ATOM     27  O4  <0> d           5.373   1.036  -2.418  0.00  0.00    -0.389 OA
ATOM     28  H19 <0> d           6.285   0.714  -2.422  0.00  0.00     0.210 HD
ENDBRANCH   2  27
TORSDOF 7
