REMARK  6 active torsions:
REMARK  status: ('A' for Active; 'I' for Inactive)
REMARK    1  A    between atoms: C3_3  and  C4_4 
REMARK    2  A    between atoms: C3_3  and  N4_32 
REMARK    3  A    between atoms: C4_4  and  N1_5 
REMARK       I    between atoms: N1_5  and  C5_6 
REMARK    4  A    between atoms: C5_6  and  C6_8 
REMARK    5  A    between atoms: C6_8  and  O3_28 
REMARK    6  A    between atoms: N3_18  and  C14_19 
ROOT
ATOM      1  C6  <0> d          -0.018   1.503   0.010  0.00  0.00     0.256 A 
ATOM      2  C7  <0> d          -0.651   1.953   1.306  0.00  0.00     0.035 A 
ATOM      3  C8  <0> d          -0.128   1.584   2.524  0.00  0.00     0.034 A 
ATOM      4  C9  <0> d          -0.735   2.016   3.692  0.00  0.00     0.011 A 
ATOM      5  C10 <0> d          -1.863   2.816   3.631  0.00  0.00     0.021 A 
ATOM      6  C11 <0> d          -2.389   3.187   2.410  0.00  0.00     0.031 A 
ATOM      7  C12 <0> d          -1.784   2.756   1.236  0.00  0.00     0.048 A 
ATOM      8  N2  <0> d          -2.301   3.122  -0.007  0.00  0.00    -0.308 N 
ATOM      9  C13 <0> d          -1.754   2.733  -1.166  0.00  0.00     0.330 A 
ATOM     10  O2  <0> d          -2.272   3.099  -2.204  0.00  0.00    -0.246 OA
ATOM     11  N3  <0> d          -0.659   1.955  -1.236  0.00  0.00    -0.248 N 
ATOM     12 Br1  <0> d          -0.021   1.514   5.370  0.00  0.00    -0.051 Br
ATOM     13  H15 <0> d          -3.092   3.683  -0.034  0.00  0.00     0.170 HD
ENDROOT
BRANCH   1  14
ATOM     14  C5  <0> d           0.002  -0.004   0.002  0.00  0.00     0.279 C 
ATOM     15  N1  <0> d          -1.152  -0.693  -0.092  0.00  0.00    -0.355 N 
ATOM     16  H11 <0> d          -1.996  -0.219  -0.155  0.00  0.00     0.162 HD
ATOM     17  O1  <0> d           1.057  -0.597   0.080  0.00  0.00    -0.268 OA
BRANCH  15  18
ATOM     18  C4  <0> d          -1.133  -2.158  -0.101  0.00  0.00     0.150 C 
BRANCH  18  19
ATOM     19  C3  <0> d          -2.564  -2.687  -0.215  0.00  0.00     0.253 C 
BRANCH  19  20
ATOM     20  N4  <0> d          -2.525  -4.164  -0.244  0.00  0.00    -0.077 N 
ATOM     21  C1  <0> d          -2.079  -4.683   1.066  0.00  0.00     0.269 C 
ATOM     22  C2  <0> d          -3.864  -4.698  -0.569  0.00  0.00     0.269 C 
ATOM     23  H20 <0> d          -1.861  -4.467  -0.966  0.00  0.00     0.279 HD
ENDBRANCH  19  20
ENDBRANCH  18  19
ENDBRANCH  15  18
ENDBRANCH   1  14
BRANCH   1  24
ATOM     24  O3  <0> d           1.336   1.958  -0.000  0.00  0.00    -0.359 OA
ATOM     25  H19 <0> d           1.857   1.661   0.758  0.00  0.00     0.213 HD
ENDBRANCH   1  24
BRANCH  11  26
ATOM     26  C14 <0> d          -0.134   1.581  -2.481  0.00  0.00     0.119 A 
ATOM     27  C19 <0> d          -0.569   0.414  -3.098  0.00  0.00     0.146 A 
ATOM     28  C18 <0> d          -0.048   0.048  -4.326  0.00  0.00     0.045 A 
ATOM     29  F1  <0> d          -1.498  -0.362  -2.499  0.00  0.00    -0.204 F 
ATOM     30  C17 <0> d           0.903   0.842  -4.941  0.00  0.00     0.006 A 
ATOM     31  C16 <0> d           1.337   2.004  -4.330  0.00  0.00     0.045 A 
ATOM     32  C15 <0> d           0.818   2.379  -3.104  0.00  0.00     0.146 A 
ATOM     33  F2  <0> d           1.240   3.517  -2.510  0.00  0.00    -0.204 F 
ENDBRANCH  11  26
TORSDOF 6
