REMARK  5 active torsions:
REMARK  status: ('A' for Active; 'I' for Inactive)
REMARK    1  A    between atoms: C5_5  and  C9_9 
REMARK    2  A    between atoms: C9_9  and  C10_10 
REMARK    3  A    between atoms: C9_9  and  O3_30 
REMARK    4  A    between atoms: C10_10  and  N1_33 
REMARK    5  A    between atoms: C17_17  and  O2_29 
ROOT
ATOM      1  C11 <0> d          -4.801   2.716   2.661  0.00  0.00     0.238 C 
ATOM      2  C12 <0> d          -4.813   4.055   1.918  0.00  0.00     0.066 C 
ATOM      3  C13 <0> d          -4.812   3.796   0.411  0.00  0.00     0.073 C 
ATOM      4  C14 <0> d          -6.020   2.931   0.041  0.00  0.00     0.066 C 
ATOM      5  C15 <0> d          -5.971   1.627   0.841  0.00  0.00     0.238 C 
ATOM      6  C16 <0> d          -4.890   5.129  -0.340  0.00  0.00     0.075 C 
ATOM      7  C17 <0> d          -3.719   6.004   0.112  0.00  0.00     0.156 C 
ATOM      8  C18 <0> d          -2.438   5.206   0.073  0.00  0.00     0.005 A 
ATOM      9  C19 <0> d          -1.226   5.903   0.069  0.00  0.00     0.013 A 
ATOM     10  C20 <0> d          -0.033   5.253   0.043  0.00  0.00     0.013 A 
ATOM     11  C21 <0> d          -0.006   3.848   0.028  0.00  0.00    -0.023 A 
ATOM     12  C22 <0> d           1.207   3.140   0.009  0.00  0.00     0.012 A 
ATOM     13  C23 <0> d           1.191   1.779   0.000  0.00  0.00     0.001 A 
ATOM     14  C24 <0> d          -0.013   1.076   0.008  0.00  0.00     0.001 A 
ATOM     15  C25 <0> d          -1.206   1.730   0.017  0.00  0.00     0.015 A 
ATOM     16  C26 <0> d          -1.228   3.135   0.032  0.00  0.00     0.008 A 
ATOM     17  C27 <0> d          -2.452   3.843   0.047  0.00  0.00     0.089 A 
ATOM     18  O1  <0> d          -3.608   3.131   0.033  0.00  0.00    -0.339 OA
ATOM     19  N1  <0> d          -6.004   1.946   2.284  0.00  0.00    -0.068 N 
ATOM     20  H32 <0> d          -6.838   2.513   2.480  0.00  0.00     0.280 HD
ENDROOT
BRANCH   7  21
ATOM     21  O2  <0> d          -3.603   7.130  -0.760  0.00  0.00    -0.391 OA
ATOM     22  H30 <0> d          -2.883   7.733  -0.530  0.00  0.00     0.210 HD
ENDBRANCH   7  21
BRANCH  19  23
ATOM     23  C10 <0> d          -6.074   0.701   3.075  0.00  0.00     0.271 C 
BRANCH  23  24
ATOM     24  C9  <0> d          -7.157  -0.206   2.487  0.00  0.00     0.177 C 
BRANCH  24  25
ATOM     25  C5  <0> d          -7.255  -1.468   3.305  0.00  0.00    -0.028 A 
ATOM     26  C4  <0> d          -8.033  -1.493   4.448  0.00  0.00     0.010 A 
ATOM     27  C3  <0> d          -8.126  -2.652   5.195  0.00  0.00     0.008 A 
ATOM     28  C2  <0> d          -7.433  -3.783   4.806  0.00  0.00    -0.056 A 
ATOM     29  C1  <0> d          -7.530  -5.045   5.625  0.00  0.00     0.049 C 
ATOM     30  C7  <0> d          -6.650  -3.756   3.667  0.00  0.00    -0.056 A 
ATOM     31  C6  <0> d          -6.561  -2.599   2.917  0.00  0.00     0.017 A 
ATOM     32  C8  <0> d          -5.894  -4.989   3.244  0.00  0.00     0.049 C 
ENDBRANCH  24  25
BRANCH  24  33
ATOM     33  O3  <0> d          -8.414   0.475   2.511  0.00  0.00    -0.389 OA
ATOM     34  H31 <0> d          -8.705   0.731   3.397  0.00  0.00     0.210 HD
ENDBRANCH  24  33
ENDBRANCH  23  24
ENDBRANCH  19  23
TORSDOF 5
