REMARK  5 active torsions:
REMARK  status: ('A' for Active; 'I' for Inactive)
REMARK    1  A    between atoms: C2_2  and  C3_3 
REMARK    2  A    between atoms: N2_9  and  C7_12 
REMARK    3  A    between atoms: C7_12  and  C8_13 
REMARK    4  A    between atoms: C8_13  and  O3_14 
REMARK    5  A    between atoms: N3_16  and  C10_17 
ROOT
ATOM      1  C3  <0> d           0.148  -0.735   1.166  0.00  0.00     0.122 A 
ATOM      2  C4  <0> d           0.146  -0.084   2.489  0.00  0.00     0.265 A 
ATOM      3  O1  <0> d           0.015   1.122   2.591  0.00  0.00    -0.267 OA
ATOM      4  N1  <0> d           0.293  -0.860   3.582  0.00  0.00    -0.299 N 
ATOM      5  C5  <0> d           0.438  -2.189   3.483  0.00  0.00     0.183 A 
ATOM      6  S1  <0> d           0.618  -3.094   4.925  0.00  0.00    -0.040 SA
ATOM      7  N2  <0> d           0.449  -2.847   2.315  0.00  0.00    -0.288 N 
ATOM      8  C6  <0> d           0.306  -2.200   1.140  0.00  0.00     0.267 A 
ATOM      9  O2  <0> d           0.312  -2.809   0.087  0.00  0.00    -0.267 OA
ATOM     10  H4  <0> d           0.294  -0.447   4.460  0.00  0.00     0.171 HD
ENDROOT
BRANCH   1  11
ATOM     11  C2  <0> d           0.002  -0.004   0.002  0.00  0.00     0.022 C 
ATOM     12  C1  <0> d          -0.001   1.502   0.053  0.00  0.00     0.069 C 
ATOM     13  N3  <0> d          -0.138  -0.639  -1.179  0.00  0.00    -0.388 N 
ATOM     14  H12 <0> d          -0.223  -1.605  -1.204  0.00  0.00     0.159 HD
BRANCH  13  15
ATOM     15  C10 <0> d          -0.161   0.130  -2.426  0.00  0.00     0.081 C 
ATOM     16  C15 <0> d           0.292  -0.761  -3.584  0.00  0.00     0.025 C 
ATOM     17  C14 <0> d           0.268   0.042  -4.886  0.00  0.00     0.002 C 
ATOM     18  C13 <0> d          -1.155   0.540  -5.152  0.00  0.00     0.000 C 
ATOM     19  C12 <0> d          -1.607   1.431  -3.994  0.00  0.00     0.002 C 
ATOM     20  C11 <0> d          -1.583   0.628  -2.692  0.00  0.00     0.025 C 
ENDBRANCH  13  15
ENDBRANCH   1  11
BRANCH   7  21
ATOM     21  C7  <0> d           0.613  -4.303   2.315  0.00  0.00     0.161 C 
BRANCH  21  22
ATOM     22  C8  <0> d          -0.761  -4.971   2.393  0.00  0.00     0.187 C 
BRANCH  22  23
ATOM     23  O3  <0> d          -1.502  -4.675   1.208  0.00  0.00    -0.394 OA
ATOM     24  C9  <0> d          -2.808  -5.255   1.179  0.00  0.00     0.201 C 
ENDBRANCH  22  23
ENDBRANCH  21  22
ENDBRANCH   7  21
TORSDOF 5
