REMARK  2 active torsions:
REMARK  status: ('A' for Active; 'I' for Inactive)
REMARK    1  A    between atoms: C9_10  and  N1_13 
REMARK    2  A    between atoms: C10_11  and  O2_12 
ROOT
ATOM      1  C1  <0> d          -0.018   1.503   0.010  0.00  0.00     0.051 C 
ATOM      2  C2  <0> d           0.002  -0.004   0.002  0.00  0.00    -0.028 A 
ATOM      3  C3  <0> d           0.006  -0.685  -1.198  0.00  0.00     0.009 A 
ATOM      4  C4  <0> d           0.025  -2.068  -1.208  0.00  0.00     0.001 A 
ATOM      5  C5  <0> d           0.043  -2.766  -0.016  0.00  0.00     0.012 A 
ATOM      6  C6  <0> d           0.040  -2.088   1.192  0.00  0.00     0.006 A 
ATOM      7  C7  <0> d           0.023  -0.704   1.204  0.00  0.00     0.083 A 
ATOM      8  O1  <0> d           0.013   0.002   2.365  0.00  0.00    -0.348 OA
ATOM      9  C8  <0> d           0.402  -0.676   3.561  0.00  0.00     0.212 C 
ATOM     10  C9  <0> d          -0.367  -2.001   3.639  0.00  0.00     0.245 C 
ATOM     11  C10 <0> d           0.064  -2.885   2.471  0.00  0.00     0.187 C 
ENDROOT
BRANCH  10  12
ATOM     12  N1  <0> d          -0.069  -2.672   4.911  0.00  0.00    -0.061 N 
ATOM     13  C15 <0> d          -0.472  -1.807   6.026  0.00  0.00     0.239 C 
ATOM     14  C14 <0> d          -0.089  -2.467   7.353  0.00  0.00     0.008 C 
ATOM     15  C13 <0> d          -0.801  -3.818   7.469  0.00  0.00     0.011 C 
ATOM     16  C16 <0> d          -0.513  -1.565   8.514  0.00  0.00     0.011 C 
ATOM     17  C12 <0> d          -0.431  -4.684   6.262  0.00  0.00     0.008 C 
ATOM     18  C11 <0> d          -0.801  -3.943   4.976  0.00  0.00     0.239 C 
ATOM     19  C17 <0> d          -1.196  -6.007   6.327  0.00  0.00     0.011 C 
ATOM     20  H26 <0> d           0.922  -2.854   4.970  0.00  0.00     0.280 HD
ENDBRANCH  10  12
BRANCH  11  21
ATOM     21  O2  <0> d           1.392  -3.353   2.715  0.00  0.00    -0.389 OA
ATOM     22  H13 <0> d           1.742  -3.923   2.017  0.00  0.00     0.210 HD
ENDBRANCH  11  21
TORSDOF 2
