REMARK  3 active torsions:
REMARK  status: ('A' for Active; 'I' for Inactive)
REMARK    1  A    between atoms: C2_2  and  N1_9 
REMARK       I    between atoms: N1_9  and  C6_10 
REMARK    2  A    between atoms: C6_10  and  C7_12 
REMARK    3  A    between atoms: C7_12  and  N2_13 
ROOT
ATOM      1  N2  <0> d          -5.497   5.898   0.334  0.00  0.00    -0.271 N 
ATOM      2  C8  <0> d          -6.684   5.872  -0.299  0.00  0.00     0.262 A 
ATOM      3  O4  <0> d          -6.855   5.635  -1.478  0.00  0.00    -0.267 OA
ATOM      4  C9  <0> d          -7.747   6.177   0.682  0.00  0.00     0.050 A 
ATOM      5  C10 <0> d          -9.127   6.285   0.611  0.00  0.00     0.043 A 
ATOM      6  C11 <0> d          -9.851   6.600   1.751  0.00  0.00     0.056 A 
ATOM      7  C12 <0> d          -9.205   6.806   2.958  0.00  0.00     0.056 A 
ATOM      8  C13 <0> d          -7.824   6.700   3.043  0.00  0.00     0.043 A 
ATOM      9  C14 <0> d          -7.089   6.386   1.911  0.00  0.00     0.050 A 
ATOM     10  C15 <0> d          -5.649   6.197   1.636  0.00  0.00     0.262 A 
ATOM     11  O5  <0> d          -4.753   6.294   2.450  0.00  0.00    -0.267 OA
ATOM     12 Cl1  <0> d         -10.128   7.199   4.375  0.00  0.00    -0.083 Cl
ATOM     13 Cl2  <0> d         -11.580   6.736   1.664  0.00  0.00    -0.083 Cl
ENDROOT
BRANCH   1  14
ATOM     14  C7  <0> d          -4.208   5.640  -0.313  0.00  0.00     0.238 C 
BRANCH  14  15
ATOM     15  C6  <0> d          -3.891   4.169  -0.232  0.00  0.00     0.236 C 
ATOM     16  N1  <0> d          -2.746   3.696  -0.764  0.00  0.00    -0.350 N 
ATOM     17  H10 <0> d          -2.044   4.384  -1.257  0.00  0.00     0.163 HD
ATOM     18  O3  <0> d          -4.665   3.410   0.313  0.00  0.00    -0.272 OA
BRANCH  16  19
ATOM     19  C2  <0> d          -2.438   2.266  -0.685  0.00  0.00     0.043 C 
ATOM     20  C1  <0> d          -3.518   1.490  -1.441  0.00  0.00     0.039 C 
ATOM     21  C5  <0> d          -1.080   2.015  -1.369  0.00  0.00     0.170 C 
ATOM     22  S1  <0> d          -0.017   1.417   0.010  0.00  0.00     0.146 S 
ATOM     23  C4  <0> d          -1.056   2.002   1.420  0.00  0.00     0.143 C 
ATOM     24  O1  <0> d           0.002  -0.004   0.002  0.00  0.00    -0.228 OA
ATOM     25  O2  <0> d           1.208   2.136   0.002  0.00  0.00    -0.228 OA
ATOM     26  C3  <0> d          -2.467   1.843   0.783  0.00  0.00     0.046 C 
ENDBRANCH  16  19
ENDBRANCH  14  15
ENDBRANCH   1  14
TORSDOF 3
