REMARK  7 active torsions:
REMARK  status: ('A' for Active; 'I' for Inactive)
REMARK    1  A    between atoms: C2_2  and  O1_3 
REMARK    2  A    between atoms: O1_3  and  C3_4 
REMARK    3  A    between atoms: C5_6  and  C9_11 
REMARK    4  A    between atoms: C8_9  and  O2_10 
REMARK    5  A    between atoms: N1_15  and  C13_19 
REMARK    6  A    between atoms: C13_19  and  C14_20 
REMARK       I    between atoms: C14_20  and  N3_22 
REMARK    7  A    between atoms: N3_22  and  C15_23 
ROOT
ATOM      1  C9  <0> d          -0.676   4.802  -3.024  0.00  0.00     0.046 C 
ATOM      2  C10 <0> d          -0.988   3.643  -2.391  0.00  0.00     0.106 A 
ATOM      3  C11 <0> d          -0.531   3.197  -1.066  0.00  0.00     0.279 A 
ATOM      4  O3  <0> d           0.210   3.796  -0.308  0.00  0.00    -0.265 OA
ATOM      5  N1  <0> d          -1.097   1.991  -0.859  0.00  0.00    -0.256 N 
ATOM      6  C12 <0> d          -1.846   1.652  -1.920  0.00  0.00     0.330 A 
ATOM      7  O4  <0> d          -2.472   0.614  -2.017  0.00  0.00    -0.246 OA
ATOM      8  N2  <0> d          -1.816   2.613  -2.859  0.00  0.00    -0.304 N 
ATOM      9  H11 <0> d          -2.280   2.595  -3.711  0.00  0.00     0.171 HD
ENDROOT
BRANCH   1  10
ATOM     10  C5  <0> d          -1.367   5.169  -4.266  0.00  0.00    -0.031 A 
ATOM     11  C4  <0> d          -0.761   6.047  -5.173  0.00  0.00     0.051 A 
ATOM     12  C3  <0> d          -1.415   6.385  -6.342  0.00  0.00     0.102 A 
ATOM     13  C8  <0> d          -2.678   5.860  -6.612  0.00  0.00     0.099 A 
ATOM     14  C7  <0> d          -3.281   4.993  -5.712  0.00  0.00     0.040 A 
ATOM     15  C6  <0> d          -2.636   4.646  -4.545  0.00  0.00     0.014 A 
BRANCH  12  16
ATOM     16  O1  <0> d          -0.828   7.235  -7.227  0.00  0.00    -0.349 OA
BRANCH  16  17
ATOM     17  C2  <0> d           0.467   7.734  -6.886  0.00  0.00     0.171 C 
ATOM     18  C1  <0> d           0.961   8.667  -7.994  0.00  0.00     0.034 C 
ENDBRANCH  16  17
ENDBRANCH  12  16
BRANCH  13  19
ATOM     19  O2  <0> d          -3.320   6.199  -7.761  0.00  0.00    -0.358 OA
ATOM     20  H9  <0> d          -3.879   6.984  -7.682  0.00  0.00     0.217 HD
ENDBRANCH  13  19
ENDBRANCH   1  10
BRANCH   5  21
ATOM     21  C13 <0> d          -0.917   1.171   0.341  0.00  0.00     0.240 C 
BRANCH  21  22
ATOM     22  C14 <0> d          -1.979   1.520   1.352  0.00  0.00     0.240 C 
ATOM     23  O5  <0> d          -2.804   2.370   1.095  0.00  0.00    -0.271 OA
ATOM     24  N3  <0> d          -2.010   0.887   2.542  0.00  0.00    -0.326 N 
ATOM     25  H14 <0> d          -1.304   0.265   2.780  0.00  0.00     0.169 HD
BRANCH  24  26
ATOM     26  C15 <0> d          -3.062   1.126   3.434  0.00  0.00     0.034 A 
ATOM     27  C20 <0> d          -4.350   1.325   2.954  0.00  0.00     0.031 A 
ATOM     28  C19 <0> d          -5.385   1.560   3.837  0.00  0.00     0.026 A 
ATOM     29  C18 <0> d          -5.141   1.599   5.199  0.00  0.00     0.034 A 
ATOM     30  C17 <0> d          -3.858   1.402   5.679  0.00  0.00     0.026 A 
ATOM     31 Cl1  <0> d          -6.445   1.895   6.306  0.00  0.00    -0.084 Cl
ATOM     32  C16 <0> d          -2.820   1.160   4.801  0.00  0.00     0.031 A 
ENDBRANCH  24  26
ENDBRANCH  21  22
ENDBRANCH   5  21
TORSDOF 7
