REMARK  6 active torsions:
REMARK  status: ('A' for Active; 'I' for Inactive)
REMARK    1  A    between atoms: N2_6  and  C5_8 
REMARK    2  A    between atoms: C5_8  and  C6_9 
REMARK    3  A    between atoms: C6_9  and  C7_10 
REMARK    4  A    between atoms: C7_10  and  C8_11 
REMARK       I    between atoms: C8_11  and  N3_13 
REMARK    5  A    between atoms: N3_13  and  C9_14 
REMARK    6  A    between atoms: C12_17  and  N4_21 
ROOT
ATOM      1  C8  <0> d          -3.499   3.297   2.901  0.00  0.00     0.222 C 
ATOM      2  O2  <0> d          -2.808   2.905   3.817  0.00  0.00    -0.273 OA
ATOM      3  N3  <0> d          -4.658   3.936   3.155  0.00  0.00    -0.326 N 
ATOM      4  H10 <0> d          -5.248   4.356   2.327  0.00  0.00     0.169 HD
ENDROOT
BRANCH   1   5
ATOM      5  C7  <0> d          -3.061   3.070   1.477  0.00  0.00     0.105 C 
BRANCH   5   6
ATOM      6  C6  <0> d          -1.722   2.329   1.467  0.00  0.00     0.029 C 
BRANCH   6   7
ATOM      7  C5  <0> d          -1.278   2.098   0.021  0.00  0.00     0.133 C 
BRANCH   7   8
ATOM      8  N2  <0> d           0.004   1.389   0.012  0.00  0.00    -0.308 N 
ATOM      9  C3  <0> d           1.157   2.084   0.013  0.00  0.00     0.347 A 
ATOM     10  N1  <0> d           2.336   1.459  -0.001  0.00  0.00    -0.206 NA
ATOM     11  O1  <0> d           1.123   3.304   0.027  0.00  0.00    -0.244 OA
ATOM     12  C2  <0> d           2.402   0.143  -0.016  0.00  0.00     0.123 A 
ATOM     13  C1  <0> d           1.226  -0.612  -0.018  0.00  0.00     0.037 A 
ATOM     14  C4  <0> d           0.027   0.031  -0.004  0.00  0.00     0.097 A 
ENDBRANCH   7   8
ENDBRANCH   6   7
ENDBRANCH   5   6
ENDBRANCH   1   5
BRANCH   3  15
ATOM     15  C9  <0> d          -5.112   4.064   4.475  0.00  0.00     0.056 A 
ATOM     16  C14 <0> d          -6.474   4.031   4.748  0.00  0.00     0.062 A 
ATOM     17  C13 <0> d          -6.921   4.152   6.050  0.00  0.00     0.055 A 
ATOM     18 Cl1  <0> d          -7.614   3.830   3.454  0.00  0.00    -0.082 Cl
ATOM     19  C12 <0> d          -6.010   4.318   7.084  0.00  0.00     0.027 A 
ATOM     20  C11 <0> d          -4.648   4.357   6.810  0.00  0.00     0.031 A 
ATOM     21  C10 <0> d          -4.201   4.231   5.510  0.00  0.00     0.033 A 
BRANCH  19  22
ATOM     22  N4  <0> d          -6.462   4.447   8.401  0.00  0.00    -0.399 N 
ATOM     23  H14 <0> d          -7.540   4.417   8.618  0.00  0.00     0.156 HD
ATOM     24  H15 <0> d          -5.740   4.579   9.220  0.00  0.00     0.156 HD
ENDBRANCH  19  22
ENDBRANCH   3  15
TORSDOF 6
