REMARK  7 active torsions:
REMARK  status: ('A' for Active; 'I' for Inactive)
REMARK    1  A    between atoms: C2_2  and  C3_3 
REMARK    2  A    between atoms: C4_4  and  C7_9 
REMARK    3  A    between atoms: C7_9  and  N2_10 
REMARK    4  A    between atoms: N2_10  and  C8_11 
REMARK    5  A    between atoms: C13_18  and  C14_20 
REMARK    6  A    between atoms: C14_20  and  C15_21 
REMARK    7  A    between atoms: C15_21  and  N5_22 
ROOT
ATOM      1  C8  <0> d          -2.155   1.046   4.534  0.00  0.00     0.139 A 
ATOM      2  C9  <0> d          -2.087   2.427   4.869  0.00  0.00     0.052 A 
ATOM      3  C10 <0> d          -2.375   3.595   4.056  0.00  0.00    -0.032 A 
ATOM      4  C11 <0> d          -2.240   4.817   4.593  0.00  0.00    -0.012 A 
ATOM      5  S2  <0> d          -1.705   4.481   6.260  0.00  0.00    -0.074 SA
ATOM      6  C12 <0> d          -1.679   2.710   6.191  0.00  0.00     0.114 A 
ATOM      7  N3  <0> d          -1.385   1.746   7.041  0.00  0.00    -0.225 NA
ATOM      8  C13 <0> d          -1.467   0.482   6.671  0.00  0.00     0.131 A 
ATOM      9  N4  <0> d          -1.847   0.144   5.452  0.00  0.00    -0.215 NA
ATOM     10  C16 <0> d          -2.481   6.154   3.942  0.00  0.00     0.057 C 
ATOM     11  C17 <0> d          -2.821   3.437   2.625  0.00  0.00     0.050 C 
ENDROOT
BRANCH   1  12
ATOM     12  N2  <0> d          -2.544   0.651   3.267  0.00  0.00    -0.369 N 
ATOM     13  H11 <0> d          -2.853   1.312   2.627  0.00  0.00     0.161 HD
BRANCH  12  14
ATOM     14  C7  <0> d          -2.489  -0.763   2.891  0.00  0.00     0.169 C 
BRANCH  14  15
ATOM     15  C4  <0> d          -2.962  -0.925   1.470  0.00  0.00     0.027 A 
ATOM     16  C3  <0> d          -2.255  -0.889   0.311  0.00  0.00     0.050 A 
ATOM     17  N1  <0> d          -2.931  -1.058  -0.807  0.00  0.00    -0.250 NA
ATOM     18  C5  <0> d          -4.225  -1.260  -0.797  0.00  0.00     0.072 A 
ATOM     19  S1  <0> d          -4.608  -1.216   0.842  0.00  0.00    -0.076 SA
ATOM     20  C6  <0> d          -5.149  -1.474  -1.968  0.00  0.00     0.078 C 
BRANCH  16  21
ATOM     21  C2  <0> d          -0.765  -0.661   0.304  0.00  0.00     0.056 C 
ATOM     22  C1  <0> d          -0.479   0.839   0.219  0.00  0.00     0.011 C 
ENDBRANCH  16  21
ENDBRANCH  14  15
ENDBRANCH  12  14
ENDBRANCH   1  12
BRANCH   8  23
ATOM     23  C14 <0> d          -1.125  -0.599   7.663  0.00  0.00     0.107 C 
BRANCH  23  24
ATOM     24  C15 <0> d          -2.385  -1.003   8.432  0.00  0.00     0.237 C 
BRANCH  24  25
ATOM     25  N5  <0> d          -2.052  -2.057   9.399  0.00  0.00    -0.079 N 
ATOM     26  H16 <0> d          -1.686  -2.860   8.909  0.00  0.00     0.274 HD
ATOM     27  H17 <0> d          -1.359  -1.713  10.046  0.00  0.00     0.274 HD
ATOM     28  H24 <0> d          -2.883  -2.323   9.906  0.00  0.00     0.274 HD
ENDBRANCH  24  25
ENDBRANCH  23  24
ENDBRANCH   8  23
TORSDOF 7
