REMARK  3 active torsions:
REMARK  status: ('A' for Active; 'I' for Inactive)
REMARK    1  A    between atoms: C8_9  and  C14_15 
REMARK    2  A    between atoms: C16_17  and  N2_22 
REMARK    3  A    between atoms: C19_20  and  O1_21 
ROOT
ATOM      1  C1  <0> d          -0.876  -0.742   0.122  0.00  0.00     0.050 C 
ATOM      2  C2  <0> d           0.337   0.151   0.079  0.00  0.00    -0.035 A 
ATOM      3  C3  <0> d           1.599  -0.406   0.069  0.00  0.00     0.011 A 
ATOM      4  C4  <0> d           2.712   0.413   0.028  0.00  0.00     0.025 A 
ATOM      5  C5  <0> d           2.558   1.786  -0.002  0.00  0.00     0.043 A 
ATOM      6  C6  <0> d           1.291   2.356   0.007  0.00  0.00    -0.001 A 
ATOM      7  C7  <0> d           0.179   1.536   0.048  0.00  0.00     0.043 A 
ATOM      8  N1  <0> d          -1.119   2.046   0.067  0.00  0.00    -0.380 N 
ATOM      9  C8  <0> d          -1.196   3.346  -0.607  0.00  0.00     0.123 C 
ATOM     10  C9  <0> d          -0.262   4.335   0.072  0.00  0.00     0.028 C 
ATOM     11  C10 <0> d           1.201   3.859  -0.032  0.00  0.00     0.051 C 
ATOM     12  C11 <0> d           1.834   4.400   1.240  0.00  0.00    -0.021 C 
ATOM     13  C12 <0> d           0.917   4.640   2.143  0.00  0.00    -0.029 C 
ATOM     14  C13 <0> d          -0.460   4.295   1.607  0.00  0.00     0.035 C 
ATOM     15 Cl1  <0> d           3.961   2.808  -0.052  0.00  0.00    -0.084 Cl
ATOM     16  H9  <0> d          -2.024   1.601   0.507  0.00  0.00     0.160 HD
ENDROOT
BRANCH   9  17
ATOM     17  C14 <0> d          -0.793   3.188  -2.051  0.00  0.00     0.000 A 
ATOM     18  C19 <0> d          -1.302   2.140  -2.803  0.00  0.00     0.074 A 
ATOM     19  C18 <0> d          -0.930   1.998  -4.132  0.00  0.00     0.039 A 
ATOM     20  C17 <0> d          -0.053   2.900  -4.703  0.00  0.00     0.039 A 
ATOM     21  C16 <0> d           0.453   3.944  -3.950  0.00  0.00     0.103 A 
ATOM     22  C15 <0> d           0.079   4.091  -2.628  0.00  0.00     0.048 A 
BRANCH  18  23
ATOM     23  O1  <0> d          -2.164   1.254  -2.239  0.00  0.00    -0.360 OA
ATOM     24  H17 <0> d          -2.568   0.423  -2.837  0.00  0.00     0.217 HD
ENDBRANCH  18  23
BRANCH  21  25
ATOM     25  N2  <0> d           1.393   4.909  -4.564  0.00  0.00    -0.116 N 
ATOM     26  O2  <0> d           1.719   4.783  -5.731  0.00  0.00    -0.532 OA
ATOM     27  O3  <0> d           1.839   5.829  -3.903  0.00  0.00    -0.532 OA
ENDBRANCH  21  25
ENDBRANCH   9  17
TORSDOF 3
