REMARK  7 active torsions:
REMARK  status: ('A' for Active; 'I' for Inactive)
REMARK    1  A    between atoms: C4_4  and  S1_10 
REMARK    2  A    between atoms: C7_7  and  O1_8 
REMARK    3  A    between atoms: S1_10  and  C9_13 
REMARK    4  A    between atoms: C9_13  and  C10_14 
REMARK    5  A    between atoms: C10_14  and  C11_15 
REMARK    6  A    between atoms: C10_14  and  O4_17 
REMARK    7  A    between atoms: C11_15  and  N1_16 
ROOT
ATOM      1  S1  <0> d          -1.485   5.409  -2.288  0.00  0.00     0.178 S 
ATOM      2  O2  <0> d          -2.146   5.968  -1.162  0.00  0.00    -0.223 OA
ATOM      3  O3  <0> d          -0.160   5.802  -2.619  0.00  0.00    -0.223 OA
ENDROOT
BRANCH   1   4
ATOM      4  C4  <0> d          -2.459   5.902  -3.671  0.00  0.00     0.059 A 
ATOM      5  C3  <0> d          -3.804   6.176  -3.506  0.00  0.00     0.033 A 
ATOM      6  C2  <0> d          -4.570   6.563  -4.589  0.00  0.00    -0.027 A 
ATOM      7  C1  <0> d          -6.036   6.861  -4.408  0.00  0.00     0.051 C 
ATOM      8  C7  <0> d          -3.988   6.677  -5.843  0.00  0.00     0.074 A 
ATOM      9  C6  <0> d          -2.638   6.401  -6.007  0.00  0.00     0.039 A 
ATOM     10  C5  <0> d          -1.876   6.021  -4.920  0.00  0.00     0.026 A 
BRANCH   8  11
ATOM     11  O1  <0> d          -4.739   7.058  -6.910  0.00  0.00    -0.355 OA
ATOM     12  C8  <0> d          -4.074   7.154  -8.171  0.00  0.00     0.210 C 
ENDBRANCH   8  11
ENDBRANCH   1   4
BRANCH   1  13
ATOM     13  C9  <0> d          -1.609   3.600  -2.252  0.00  0.00     0.179 C 
BRANCH  13  14
ATOM     14  C10 <0> d          -0.793   3.056  -1.078  0.00  0.00     0.157 C 
BRANCH  14  15
ATOM     15  C11 <0> d          -0.795   1.527  -1.120  0.00  0.00     0.262 C 
BRANCH  15  16
ATOM     16  N1  <0> d          -0.012   1.005   0.008  0.00  0.00    -0.077 N 
ATOM     17  H15 <0> d          -0.013  -0.095  -0.023  0.00  0.00     0.274 HD
ATOM     18  H16 <0> d          -0.457   1.346   0.954  0.00  0.00     0.274 HD
ATOM     19  H18 <0> d           1.023   1.372  -0.064  0.00  0.00     0.274 HD
ENDBRANCH  15  16
ENDBRANCH  14  15
BRANCH  14  20
ATOM     20  O4  <0> d          -1.372   3.500   0.151  0.00  0.00    -0.393 OA
ATOM     21  H17 <0> d          -0.919   3.207   1.110  0.00  0.00     0.210 HD
ENDBRANCH  14  20
ENDBRANCH  13  14
ENDBRANCH   1  13
TORSDOF 7
