REMARK  3 active torsions:
REMARK  status: ('A' for Active; 'I' for Inactive)
REMARK    1  A    between atoms: C6_6  and  C7_7 
REMARK    2  A    between atoms: C9_9  and  C10_13 
REMARK       I    between atoms: C10_13  and  N3_15 
REMARK    3  A    between atoms: N3_15  and  C11_16 
ROOT
ATOM      1  C7  <0> d          -1.272  -0.766   0.011  0.00  0.00     0.089 A 
ATOM      2  C8  <0> d          -1.402  -2.167   0.010  0.00  0.00     0.071 A 
ATOM      3  C9  <0> d          -2.763  -2.406   0.020  0.00  0.00     0.120 A 
ATOM      4  N1  <0> d          -3.372  -1.182   0.026  0.00  0.00    -0.272 N 
ATOM      5  H1  <0> d          -4.330  -1.037   0.035  0.00  0.00     0.189 HD
ATOM      6  N2  <0> d          -2.484  -0.254   0.026  0.00  0.00    -0.174 NA
ENDROOT
BRANCH   3   7
ATOM      7  C10 <0> d          -3.427  -3.720   0.024  0.00  0.00     0.270 C 
ATOM      8  O1  <0> d          -2.761  -4.738   0.018  0.00  0.00    -0.266 OA
ATOM      9  N3  <0> d          -4.772  -3.795   0.034  0.00  0.00    -0.350 N 
ATOM     10  H8  <0> d          -5.304  -2.984   0.039  0.00  0.00     0.163 HD
BRANCH   9  11
ATOM     11  C11 <0> d          -5.433  -5.103   0.038  0.00  0.00     0.099 C 
ATOM     12  C14 <0> d          -6.849  -4.975   0.669  0.00  0.00     0.165 C 
ATOM     13  S1  <0> d          -7.649  -6.499   0.014  0.00  0.00     0.146 S 
ATOM     14  C13 <0> d          -6.564  -6.814  -1.437  0.00  0.00     0.142 C 
ATOM     15  O2  <0> d          -7.480  -7.551   0.954  0.00  0.00    -0.228 OA
ATOM     16  O3  <0> d          -8.954  -6.176  -0.446  0.00  0.00    -0.228 OA
ATOM     17  C12 <0> d          -5.596  -5.606  -1.406  0.00  0.00     0.041 C 
ENDBRANCH   9  11
ENDBRANCH   3   7
BRANCH   1  18
ATOM     18  C6  <0> d           0.002  -0.004   0.002  0.00  0.00    -0.006 A 
ATOM     19  C1  <0> d          -0.017   1.389   0.010  0.00  0.00     0.015 A 
ATOM     20  C2  <0> d           1.170   2.093   0.002  0.00  0.00     0.020 A 
ATOM     21  C3  <0> d           2.378   1.417  -0.013  0.00  0.00     0.011 A 
ATOM     22  C4  <0> d           2.402   0.033  -0.021  0.00  0.00     0.020 A 
ATOM     23 Br1  <0> d           4.001   2.388  -0.023  0.00  0.00    -0.051 Br
ATOM     24  C5  <0> d           1.220  -0.680  -0.014  0.00  0.00     0.015 A 
ENDBRANCH   1  18
TORSDOF 3
