REMARK  9 active torsions:
REMARK  status: ('A' for Active; 'I' for Inactive)
REMARK    1  A    between atoms: C2_2  and  C3_3 
REMARK    2  A    between atoms: C3_3  and  C4_4 
REMARK    3  A    between atoms: C3_3  and  N1_19 
REMARK    4  A    between atoms: C4_4  and  C5_5 
REMARK    5  A    between atoms: C4_4  and  S1_12 
REMARK    6  A    between atoms: S1_12  and  C11_13 
REMARK    7  A    between atoms: C11_13  and  C12_14 
REMARK    8  A    between atoms: C12_14  and  O2_16 
REMARK    9  A    between atoms: O2_16  and  C13_17 
ROOT
ATOM      1  C4  <0> d           0.743  -2.030  -1.274  0.00  0.00     0.112 C 
ENDROOT
BRANCH   1   2
ATOM      2  C3  <0> d           0.672  -0.513  -1.082  0.00  0.00     0.201 C 
BRANCH   2   3
ATOM      3  C2  <0> d          -0.202  -0.193   0.132  0.00  0.00     0.030 C 
ATOM      4  C1  <0> d          -0.343   1.324   0.272  0.00  0.00     0.007 C 
ENDBRANCH   2   3
BRANCH   2   5
ATOM      5  N1  <0> d           2.025   0.016  -0.866  0.00  0.00    -0.074 N 
ATOM      6  H19 <0> d           2.425  -0.408  -0.042  0.00  0.00     0.274 HD
ATOM      7  H20 <0> d           2.601  -0.195  -1.667  0.00  0.00     0.274 HD
ATOM      8  H21 <0> d           1.978   1.016  -0.740  0.00  0.00     0.274 HD
ENDBRANCH   2   5
ENDBRANCH   1   2
BRANCH   1   9
ATOM      9  C5  <0> d           1.597  -2.345  -2.474  0.00  0.00    -0.025 A 
ATOM     10  C10 <0> d           2.962  -2.509  -2.328  0.00  0.00     0.018 A 
ATOM     11  C9  <0> d           3.745  -2.804  -3.430  0.00  0.00     0.019 A 
ATOM     12 Br1  <0> d           3.758  -2.338  -0.621  0.00  0.00    -0.051 Br
ATOM     13  C8  <0> d           3.164  -2.924  -4.678  0.00  0.00     0.001 A 
ATOM     14  C7  <0> d           1.800  -2.755  -4.824  0.00  0.00     0.001 A 
ATOM     15  C6  <0> d           1.016  -2.466  -3.723  0.00  0.00     0.010 A 
ENDBRANCH   1   9
BRANCH   1  16
ATOM     16  S1  <0> d          -0.929  -2.685  -1.531  0.00  0.00    -0.147 SA
BRANCH  16  17
ATOM     17  C11 <0> d          -0.693  -4.483  -1.579  0.00  0.00     0.185 C 
BRANCH  17  18
ATOM     18  C12 <0> d          -2.001  -5.153  -1.911  0.00  0.00     0.268 C 
ATOM     19  O1  <0> d          -2.991  -4.486  -2.098  0.00  0.00    -0.264 OA
BRANCH  18  20
ATOM     20  O2  <0> d          -2.066  -6.491  -2.001  0.00  0.00    -0.321 OA
BRANCH  20  21
ATOM     21  C13 <0> d          -3.339  -7.058  -2.320  0.00  0.00     0.174 C 
ATOM     22  C14 <0> d          -3.217  -8.582  -2.378  0.00  0.00     0.034 C 
ENDBRANCH  20  21
ENDBRANCH  18  20
ENDBRANCH  17  18
ENDBRANCH  16  17
ENDBRANCH   1  16
TORSDOF 9
