REMARK  3 active torsions:
REMARK  status: ('A' for Active; 'I' for Inactive)
REMARK    1  A    between atoms: C2_2  and  C3_3 
REMARK    2  A    between atoms: N1_11  and  S2_12 
REMARK    3  A    between atoms: S2_12  and  N2_15 
ROOT
ATOM      1  C3  <0> d           0.718  -0.497  -1.257  0.00  0.00     0.131 C 
ATOM      2  C4  <0> d           0.835  -2.020  -1.222  0.00  0.00    -0.021 A 
ATOM      3  C5  <0> d           1.720  -2.699  -0.385  0.00  0.00     0.017 A 
ATOM      4  C6  <0> d           1.767  -4.051  -0.405  0.00  0.00     0.051 A 
ATOM      5  S1  <0> d           0.535  -4.444  -1.637  0.00  0.00    -0.106 SA
ATOM      6  C7  <0> d           0.054  -2.784  -2.033  0.00  0.00    -0.008 A 
ATOM      7  C8  <0> d          -0.964  -2.324  -3.026  0.00  0.00     0.067 C 
ATOM      8  C9  <0> d          -1.311  -0.856  -2.731  0.00  0.00     0.143 C 
ATOM      9  N1  <0> d          -0.061  -0.133  -2.448  0.00  0.00    -0.285 N 
ENDROOT
BRANCH   9  10
ATOM     10  S2  <0> d           0.461   1.073  -3.456  0.00  0.00     0.319 S 
ATOM     11  O1  <0> d          -0.690   1.563  -4.132  0.00  0.00    -0.182 OA
ATOM     12  O2  <0> d           1.305   1.913  -2.681  0.00  0.00    -0.182 OA
BRANCH  10  13
ATOM     13  N2  <0> d           1.421   0.368  -4.606  0.00  0.00    -0.291 N 
ATOM     14  C13 <0> d           0.848  -0.131  -5.866  0.00  0.00     0.166 C 
ATOM     15  C12 <0> d           1.661   0.456  -7.031  0.00  0.00     0.290 C 
ATOM     16  N3  <0> d           3.084   0.148  -6.831  0.00  0.00     0.086 N 
ATOM     17  C11 <0> d           3.601   0.786  -5.613  0.00  0.00     0.290 C 
ATOM     18  H17 <0> d           3.628   0.415  -7.638  0.00  0.00     0.316 HD
ATOM     19  C10 <0> d           2.868   0.219  -4.393  0.00  0.00     0.166 C 
ENDBRANCH  10  13
ENDBRANCH   9  10
BRANCH   1  20
ATOM     20  C2  <0> d           0.002  -0.004   0.002  0.00  0.00     0.026 C 
ATOM     21  C1  <0> d          -0.019   1.526   0.010  0.00  0.00     0.007 C 
ENDBRANCH   1  20
TORSDOF 3
