REMARK  8 active torsions:
REMARK  status: ('A' for Active; 'I' for Inactive)
REMARK    1  A    between atoms: S1_2  and  C2_3 
REMARK    2  A    between atoms: C5_6  and  C14_17 
REMARK    3  A    between atoms: C7_8  and  C8_9 
REMARK    4  A    between atoms: C13_14  and  O1_15 
REMARK    5  A    between atoms: C14_17  and  C15_18 
REMARK    6  A    between atoms: C14_17  and  N1_21 
REMARK    7  A    between atoms: C15_18  and  C16_19 
REMARK    8  A    between atoms: N1_21  and  C17_22 
ROOT
ATOM      1  C2  <0> d           0.848  -0.411  -1.489  0.00  0.00     0.014 A 
ATOM      2  C3  <0> d           1.315   0.597  -2.322  0.00  0.00     0.020 A 
ATOM      3  C4  <0> d           1.979   0.277  -3.491  0.00  0.00     0.014 A 
ATOM      4  C5  <0> d           2.182  -1.046  -3.840  0.00  0.00     0.004 A 
ATOM      5  C6  <0> d           1.723  -2.062  -3.021  0.00  0.00     0.137 A 
ATOM      6  C7  <0> d           1.058  -1.751  -1.835  0.00  0.00     0.033 A 
ATOM      7  F1  <0> d           1.924  -3.352  -3.366  0.00  0.00    -0.204 F 
ENDROOT
BRANCH   4   8
ATOM      8  C14 <0> d           2.907  -1.383  -5.118  0.00  0.00     0.126 C 
BRANCH   8   9
ATOM      9  C15 <0> d           1.888  -1.625  -6.233  0.00  0.00     0.099 C 
BRANCH   9  10
ATOM     10  C16 <0> d           2.605  -2.081  -7.478  0.00  0.00     0.233 C 
ATOM     11  O2  <0> d           2.287  -3.115  -8.014  0.00  0.00    -0.307 OA
ENDBRANCH   9  10
ENDBRANCH   8   9
BRANCH   8  12
ATOM     12  N1  <0> d           3.783  -0.269  -5.490  0.00  0.00    -0.359 N 
ATOM     13  H15 <0> d           3.582   0.629  -5.185  0.00  0.00     0.162 HD
BRANCH  12  14
ATOM     14  C17 <0> d           4.869  -0.493  -6.256  0.00  0.00     0.349 C 
ATOM     15  O3  <0> d           5.121  -1.616  -6.638  0.00  0.00    -0.284 OA
ENDBRANCH  12  14
ENDBRANCH   8  12
ENDBRANCH   4   8
BRANCH   6  16
ATOM     16  C8  <0> d           0.569  -2.835  -0.949  0.00  0.00     0.012 A 
ATOM     17  C13 <0> d           1.390  -3.337   0.065  0.00  0.00     0.076 A 
ATOM     18  C12 <0> d           0.923  -4.345   0.892  0.00  0.00     0.037 A 
ATOM     19  C11 <0> d          -0.346  -4.860   0.707  0.00  0.00     0.003 A 
ATOM     20  C10 <0> d          -1.159  -4.370  -0.300  0.00  0.00     0.001 A 
ATOM     21  C9  <0> d          -0.709  -3.361  -1.127  0.00  0.00     0.015 A 
BRANCH  17  22
ATOM     22  O1  <0> d           2.640  -2.834   0.242  0.00  0.00    -0.360 OA
ATOM     23  H11 <0> d           2.680  -2.085   0.853  0.00  0.00     0.217 HD
ENDBRANCH  17  22
ENDBRANCH   6  16
BRANCH   1  24
ATOM     24  S1  <0> d           0.002  -0.004   0.002  0.00  0.00    -0.133 SA
ATOM     25  C1  <0> d          -0.022   1.810   0.012  0.00  0.00     0.095 C 
ENDBRANCH   1  24
TORSDOF 8
