REMARK  6 active torsions:
REMARK  status: ('A' for Active; 'I' for Inactive)
REMARK    1  A    between atoms: C5_5  and  C8_8 
REMARK    2  A    between atoms: N3_13  and  C10_14 
REMARK    3  A    between atoms: C10_14  and  C11_15 
REMARK       I    between atoms: C11_15  and  N4_17 
REMARK    4  A    between atoms: N4_17  and  C13_19 
REMARK    5  A    between atoms: C13_19  and  C14_20 
REMARK       I    between atoms: C14_20  and  N5_22 
REMARK    6  A    between atoms: N5_22  and  C15_23 
ROOT
ATOM      1  C11 <0> d           0.861  -3.826   4.691  0.00  0.00     0.238 C 
ATOM      2  O1  <0> d           0.267  -4.456   3.841  0.00  0.00    -0.272 OA
ATOM      3  N4  <0> d           0.252  -3.526   5.855  0.00  0.00    -0.346 N 
ATOM      4  C12 <0> d           0.968  -2.765   6.881  0.00  0.00     0.153 C 
ENDROOT
BRANCH   1   5
ATOM      5  C10 <0> d           2.279  -3.380   4.445  0.00  0.00     0.236 C 
BRANCH   5   6
ATOM      6  N3  <0> d           2.709  -3.827   3.118  0.00  0.00    -0.298 N 
ATOM      7  C8  <0> d           2.608  -3.134   1.934  0.00  0.00     0.165 A 
ATOM      8  N1  <0> d           3.116  -3.898   0.995  0.00  0.00    -0.128 NA
ATOM      9  N2  <0> d           3.518  -5.008   1.503  0.00  0.00    -0.121 NA
ATOM     10  C9  <0> d           3.291  -5.021   2.797  0.00  0.00     0.203 A 
ATOM     11  S1  <0> d           3.673  -6.330   3.913  0.00  0.00    -0.009 SA
BRANCH   7  12
ATOM     12  C5  <0> d           2.040  -1.781   1.754  0.00  0.00     0.012 A 
ATOM     13  C4  <0> d           2.338  -1.043   0.607  0.00  0.00     0.016 A 
ATOM     14  C3  <0> d           1.804   0.219   0.445  0.00  0.00     0.007 A 
ATOM     15  C2  <0> d           0.975   0.753   1.416  0.00  0.00    -0.062 A 
ATOM     16  C1  <0> d           0.396   2.132   1.232  0.00  0.00     0.048 C 
ATOM     17  C7  <0> d           0.680   0.029   2.557  0.00  0.00     0.007 A 
ATOM     18  C6  <0> d           1.203  -1.237   2.729  0.00  0.00     0.016 A 
ENDBRANCH   7  12
ENDBRANCH   5   6
ENDBRANCH   1   5
BRANCH   3  19
ATOM     19  C13 <0> d          -1.127  -3.960   6.093  0.00  0.00     0.228 C 
BRANCH  19  20
ATOM     20  C14 <0> d          -1.121  -5.322   6.739  0.00  0.00     0.240 C 
ATOM     21  O2  <0> d          -0.068  -5.875   6.976  0.00  0.00    -0.271 OA
ATOM     22  N5  <0> d          -2.285  -5.924   7.053  0.00  0.00    -0.325 N 
ATOM     23  H15 <0> d          -3.127  -5.520   6.790  0.00  0.00     0.169 HD
BRANCH  22  24
ATOM     24  C15 <0> d          -2.279  -7.133   7.757  0.00  0.00     0.046 A 
ATOM     25  C20 <0> d          -1.589  -8.229   7.253  0.00  0.00    -0.034 A 
ATOM     26  C19 <0> d          -1.581  -9.419   7.954  0.00  0.00     0.015 A 
ATOM     27  C21 <0> d          -0.846  -8.116   5.947  0.00  0.00     0.050 C 
ATOM     28  C18 <0> d          -2.268  -9.524   9.149  0.00  0.00    -0.061 A 
ATOM     29  C17 <0> d          -2.961  -8.438   9.650  0.00  0.00     0.015 A 
ATOM     30  C22 <0> d          -2.262 -10.827   9.907  0.00  0.00     0.048 C 
ATOM     31  C16 <0> d          -2.968  -7.243   8.957  0.00  0.00    -0.034 A 
ATOM     32  C23 <0> d          -3.723  -6.058   9.505  0.00  0.00     0.050 C 
ENDBRANCH  22  24
ENDBRANCH  19  20
ENDBRANCH   3  19
TORSDOF 6
