REMARK  7 active torsions:
REMARK  status: ('A' for Active; 'I' for Inactive)
REMARK    1  A    between atoms: N1_2  and  C2_3 
REMARK    2  A    between atoms: N1_2  and  C5_8 
REMARK    3  A    between atoms: C2_3  and  C3_4 
REMARK    4  A    between atoms: C3_4  and  C4_5 
REMARK    5  A    between atoms: C5_8  and  C6_9 
REMARK    6  A    between atoms: C9_13  and  O4_23 
REMARK    7  A    between atoms: N2_15  and  C11_16 
ROOT
ATOM      1  C6  <0> d          -1.954  -0.178  -1.224  0.00  0.00     0.041 A 
ATOM      2  C7  <0> d          -2.447  -1.121  -2.058  0.00  0.00     0.084 A 
ATOM      3  C8  <0> d          -2.921  -0.737  -3.333  0.00  0.00     0.208 A 
ATOM      4  O3  <0> d          -3.373  -1.569  -4.107  0.00  0.00    -0.285 OA
ATOM      5  C9  <0> d          -2.863   0.633  -3.695  0.00  0.00     0.131 A 
ATOM      6  C10 <0> d          -2.358   1.528  -2.814  0.00  0.00     0.132 A 
ATOM      7  N2  <0> d          -1.916   1.124  -1.594  0.00  0.00    -0.351 N 
ENDROOT
BRANCH   1   8
ATOM      8  C5  <0> d          -1.447  -0.581   0.137  0.00  0.00     0.291 C 
BRANCH   8   9
ATOM      9  N1  <0> d          -2.336  -0.036   1.172  0.00  0.00    -0.069 N 
ATOM     10  C1  <0> d          -3.655  -0.675   1.069  0.00  0.00     0.270 C 
ATOM     11  H26 <0> d          -2.433   0.960   1.042  0.00  0.00     0.279 HD
BRANCH   9  12
ATOM     12  C2  <0> d          -1.765  -0.304   2.498  0.00  0.00     0.245 C 
BRANCH  12  13
ATOM     13  C3  <0> d          -2.626   0.370   3.569  0.00  0.00     0.141 C 
BRANCH  13  14
ATOM     14  C4  <0> d          -2.040   0.095   4.930  0.00  0.00     0.174 C 
ATOM     15  O1  <0> d          -1.028  -0.577   5.034  0.00  0.00    -0.648 OA
ATOM     16  O2  <0> d          -2.578   0.545   5.928  0.00  0.00    -0.648 OA
ENDBRANCH  13  14
ENDBRANCH  12  13
ENDBRANCH   9  12
ENDBRANCH   8   9
ENDBRANCH   1   8
BRANCH   7  17
ATOM     17  C11 <0> d          -1.380   2.119  -0.661  0.00  0.00     0.089 C 
ATOM     18  C17 <0> d          -0.209   2.743  -1.259  0.00  0.00     0.026 C 
ATOM     19  C16 <0> d           0.462   3.760  -0.313  0.00  0.00     0.002 C 
ATOM     20  C15 <0> d          -0.313   5.049  -0.371  0.00  0.00     0.000 C 
ATOM     21  C14 <0> d          -1.376   5.149   0.740  0.00  0.00     0.000 C 
ATOM     22  C13 <0> d          -2.134   3.826   0.962  0.00  0.00     0.002 C 
ATOM     23  C12 <0> d          -2.487   3.141  -0.331  0.00  0.00     0.026 C 
ENDBRANCH   7  17
BRANCH   5  24
ATOM     24  O4  <0> d          -3.310   1.042  -4.914  0.00  0.00    -0.356 OA
ATOM     25  H25 <0> d          -3.651   0.328  -5.469  0.00  0.00     0.218 HD
ENDBRANCH   5  24
TORSDOF 7
