REMARK  4 active torsions:
REMARK  status: ('A' for Active; 'I' for Inactive)
REMARK    1  A    between atoms: C2_2  and  C3_3 
REMARK    2  A    between atoms: C2_2  and  N1_8 
REMARK       I    between atoms: N1_8  and  C7_9 
REMARK    3  A    between atoms: C7_9  and  C8_11 
REMARK    4  A    between atoms: N3_13  and  C12_18 
ROOT
ATOM      1  C8  <0> d           0.761  -1.119   3.544  0.00  0.00     0.122 C 
ATOM      2  N2  <0> d           2.024  -1.403   3.464  0.00  0.00    -0.168 NA
ATOM      3  N3  <0> d           2.732  -1.870   4.575  0.00  0.00    -0.232 N 
ATOM      4  C9  <0> d           2.079  -2.399   5.628  0.00  0.00     0.240 C 
ATOM      5  O3  <0> d           2.698  -2.806   6.587  0.00  0.00    -0.272 OA
ATOM      6  C10 <0> d           0.573  -2.481   5.610  0.00  0.00     0.111 C 
ATOM      7  C11 <0> d           0.014  -1.277   4.842  0.00  0.00     0.076 C 
ENDROOT
BRANCH   1   8
ATOM      8  C7  <0> d           0.051  -0.633   2.355  0.00  0.00     0.268 C 
ATOM      9  N1  <0> d           0.711  -0.489   1.189  0.00  0.00    -0.349 N 
ATOM     10  H13 <0> d           1.654  -0.707   1.135  0.00  0.00     0.163 HD
ATOM     11  O2  <0> d          -1.133  -0.360   2.423  0.00  0.00    -0.266 OA
BRANCH   9  12
ATOM     12  C2  <0> d           0.002  -0.004   0.002  0.00  0.00     0.109 C 
ATOM     13  C1  <0> d          -0.019   1.526   0.010  0.00  0.00     0.035 C 
BRANCH  12  14
ATOM     14  C3  <0> d           0.718  -0.497  -1.257  0.00  0.00     0.143 C 
ATOM     15  O1  <0> d           2.003   0.133  -1.379  0.00  0.00    -0.384 OA
ATOM     16  C6  <0> d           2.287   0.399  -2.759  0.00  0.00     0.168 C 
ATOM     17  C5  <0> d           1.068  -0.066  -3.584  0.00  0.00     0.029 C 
ATOM     18  C4  <0> d          -0.066  -0.071  -2.523  0.00  0.00     0.036 C 
ENDBRANCH  12  14
ENDBRANCH   9  12
ENDBRANCH   1   8
BRANCH   3  19
ATOM     19  C12 <0> d           4.195  -1.785   4.595  0.00  0.00     0.128 C 
ATOM     20  C15 <0> d           4.784  -2.598   3.407  0.00  0.00     0.167 C 
ATOM     21  S1  <0> d           6.466  -1.855   3.291  0.00  0.00     0.146 S 
ATOM     22  C14 <0> d           6.149  -0.251   4.134  0.00  0.00     0.142 C 
ATOM     23  O4  <0> d           7.367  -2.621   4.079  0.00  0.00    -0.228 OA
ATOM     24  O5  <0> d           6.769  -1.607   1.925  0.00  0.00    -0.228 OA
ATOM     25  C13 <0> d           4.632  -0.319   4.435  0.00  0.00     0.043 C 
ENDBRANCH   3  19
TORSDOF 4
