REMARK  3 active torsions:
REMARK  status: ('A' for Active; 'I' for Inactive)
REMARK    1  A    between atoms: C3_3  and  C6_7 
REMARK       I    between atoms: C6_7  and  N1_9 
REMARK    2  A    between atoms: N1_9  and  C7_10 
REMARK    3  A    between atoms: C11_14  and  C12_15 
ROOT
ATOM      1  C7  <0> d          -4.873  -0.847  -0.140  0.00  0.00     0.095 C 
ATOM      2  C8  <0> d          -5.255  -0.671   1.344  0.00  0.00     0.026 C 
ATOM      3  C9  <0> d          -6.691  -1.245   1.437  0.00  0.00     0.003 C 
ATOM      4  C10 <0> d          -6.634  -2.464   0.483  0.00  0.00     0.013 C 
ATOM      5  C11 <0> d          -5.750  -1.987  -0.689  0.00  0.00     0.069 C 
ENDROOT
BRANCH   1   6
ATOM      6  N1  <0> d          -3.457  -1.204  -0.255  0.00  0.00    -0.351 N 
ATOM      7  C6  <0> d          -2.532  -0.240  -0.432  0.00  0.00     0.254 C 
ATOM      8  O2  <0> d          -2.872   0.925  -0.496  0.00  0.00    -0.268 OA
ATOM      9  H8  <0> d          -3.186  -2.134  -0.204  0.00  0.00     0.163 HD
BRANCH   7  10
ATOM     10  C3  <0> d          -1.107  -0.599  -0.548  0.00  0.00     0.063 A 
ATOM     11  C2  <0> d          -0.055   0.250  -0.728  0.00  0.00     0.064 A 
ATOM     12  C1  <0> d          -0.142   1.750  -0.847  0.00  0.00     0.077 C 
ATOM     13  O1  <0> d           1.067  -0.475  -0.786  0.00  0.00    -0.326 OA
ATOM     14  C5  <0> d           0.800  -1.782  -0.642  0.00  0.00     0.143 A 
ATOM     15  C4  <0> d          -0.523  -1.947  -0.492  0.00  0.00     0.044 A 
ENDBRANCH   7  10
ENDBRANCH   1   6
BRANCH   5  16
ATOM     16  C12 <0> d          -4.882  -3.118  -1.175  0.00  0.00     0.077 C 
ATOM     17  S1  <0> d          -4.701  -4.430  -0.278  0.00  0.00    -0.065 SA
ATOM     18  N2  <0> d          -4.257  -3.025  -2.365  0.00  0.00    -0.393 N 
ATOM     19  H15 <0> d          -4.367  -2.230  -2.910  0.00  0.00     0.156 HD
ATOM     20  H16 <0> d          -3.698  -3.753  -2.678  0.00  0.00     0.156 HD
ENDBRANCH   5  16
TORSDOF 3
