REMARK  3 active torsions:
REMARK  status: ('A' for Active; 'I' for Inactive)
REMARK       I    between atoms: N1_2  and  C2_3 
REMARK    1  A    between atoms: N1_2  and  C9_15 
REMARK    2  A    between atoms: C2_3  and  C3_5 
REMARK    3  A    between atoms: C5_7  and  C6_11 
ROOT
ATOM      1  C9  <0> d          -0.247  -0.762  -1.247  0.00  0.00     0.124 C 
ATOM      2  C10 <0> d           1.108  -1.075  -1.904  0.00  0.00     0.047 C 
ATOM      3  C11 <0> d           0.442  -0.749  -3.251  0.00  0.00     0.007 C 
ATOM      4  C12 <0> d          -0.539   0.135  -2.462  0.00  0.00     0.047 C 
ATOM      5  C13 <0> d          -1.139  -1.928  -1.146  0.00  0.00     0.091 C 
ATOM      6  N4  <0> d          -1.827  -2.828  -1.068  0.00  0.00    -0.195 NA
ENDROOT
BRANCH   1   7
ATOM      7  N1  <0> d          -0.131  -0.023   0.013  0.00  0.00    -0.329 N 
ATOM      8  C1  <0> d          -0.294   1.433   0.026  0.00  0.00     0.155 C 
ATOM      9  C2  <0> d           0.124  -0.683   1.160  0.00  0.00     0.274 C 
ATOM     10  O1  <0> d           0.352  -1.877   1.137  0.00  0.00    -0.266 OA
BRANCH   9  11
ATOM     11  C3  <0> d           0.127   0.042   2.440  0.00  0.00     0.137 A 
ATOM     12  N3  <0> d          -0.855   0.030   3.391  0.00  0.00    -0.271 N 
ATOM     13  N2  <0> d          -0.508   0.776   4.378  0.00  0.00    -0.177 NA
ATOM     14  H1  <0> d          -1.686  -0.467   3.332  0.00  0.00     0.189 HD
ATOM     15  C5  <0> d           0.663   1.319   4.165  0.00  0.00     0.078 A 
ATOM     16  C4  <0> d           1.121   0.877   2.921  0.00  0.00     0.071 A 
ATOM     17 Br1  <0> d           2.752   1.323   2.075  0.00  0.00    -0.046 Br
BRANCH  15  18
ATOM     18  C6  <0> d           1.388   2.256   5.096  0.00  0.00     0.041 A 
ATOM     19  C8  <0> d           0.695   3.572   5.456  0.00  0.00     0.011 A 
ATOM     20  C7  <0> d           0.803   2.455   6.496  0.00  0.00     0.011 A 
ENDBRANCH  15  18
ENDBRANCH   9  11
ENDBRANCH   1   7
TORSDOF 3
