REMARK  4 active torsions:
REMARK  status: ('A' for Active; 'I' for Inactive)
REMARK    1  A    between atoms: C2_2  and  C3_3 
REMARK    2  A    between atoms: C3_3  and  N1_4 
REMARK    3  A    between atoms: N3_12  and  C11_15 
REMARK    4  A    between atoms: N4_17  and  C12_18 
ROOT
ATOM      1  N1  <0> d           0.660  -1.977   1.294  0.00  0.00    -0.317 N 
ATOM      2  C4  <0> d          -0.364  -2.679   1.821  0.00  0.00     0.252 C 
ATOM      3  O1  <0> d          -1.362  -2.208   2.325  0.00  0.00    -0.271 OA
ATOM      4  C5  <0> d          -0.059  -4.155   1.677  0.00  0.00     0.276 C 
ATOM      5  N2  <0> d           1.023  -4.220   0.665  0.00  0.00    -0.036 N 
ATOM      6  C6  <0> d           1.676  -2.901   0.784  0.00  0.00     0.206 C 
ATOM      7  C7  <0> d           2.844  -2.996   1.765  0.00  0.00     0.081 C 
ATOM      8  C8  <0> d           3.495  -1.617   1.914  0.00  0.00     0.129 C 
ATOM      9  N3  <0> d           3.855  -1.117   0.580  0.00  0.00    -0.358 N 
ATOM     10  C9  <0> d           2.815  -1.059  -0.457  0.00  0.00     0.129 C 
ATOM     11  C10 <0> d           2.169  -2.442  -0.586  0.00  0.00     0.081 C 
ATOM     12  C14 <0> d          -1.296  -4.910   1.188  0.00  0.00     0.050 C 
ATOM     13  H9  <0> d           1.671  -4.962   0.883  0.00  0.00     0.281 HD
ATOM     14  H27 <0> d           0.638  -4.340  -0.260  0.00  0.00     0.281 HD
ENDROOT
BRANCH   1  15
ATOM     15  C3  <0> d           0.740  -0.515   1.234  0.00  0.00     0.128 C 
BRANCH  15  16
ATOM     16  C2  <0> d           0.072  -0.019  -0.049  0.00  0.00     0.015 C 
ATOM     17  C1  <0> d           0.276   1.491  -0.180  0.00  0.00     0.006 C 
ENDBRANCH  15  16
ENDBRANCH   1  15
BRANCH   9  18
ATOM     18  C11 <0> d           5.115  -0.720   0.312  0.00  0.00     0.169 C 
ATOM     19  S1  <0> d           6.343  -0.919   1.488  0.00  0.00    -0.041 SA
ATOM     20  N4  <0> d           5.407  -0.167  -0.882  0.00  0.00    -0.367 N 
ATOM     21  H18 <0> d           4.729  -0.120  -1.574  0.00  0.00     0.161 HD
BRANCH  20  22
ATOM     22  C12 <0> d           6.750   0.362  -1.134  0.00  0.00     0.117 C 
ATOM     23  C13 <0> d           6.816   0.929  -2.554  0.00  0.00     0.026 C 
ENDBRANCH  20  22
ENDBRANCH   9  18
TORSDOF 4
