REMARK  4 active torsions:
REMARK  status: ('A' for Active; 'I' for Inactive)
REMARK    1  A    between atoms: N1_10  and  N3_14 
REMARK       I    between atoms: N3_14  and  C10_15 
REMARK    2  A    between atoms: C10_15  and  C11_17 
REMARK    3  A    between atoms: C11_17  and  N4_18 
REMARK    4  A    between atoms: N4_18  and  C13_20 
ROOT
ATOM      1  C1  <0> d          -0.019   1.526   0.010  0.00  0.00     0.010 C 
ATOM      2  C2  <0> d           0.002  -0.004   0.002  0.00  0.00    -0.019 C 
ATOM      3  C3  <0> d           0.716  -0.497  -1.258  0.00  0.00     0.007 C 
ATOM      4  C4  <0> d           0.727  -2.028  -1.271  0.00  0.00     0.041 C 
ATOM      5  C5  <0> d           1.442  -2.543  -0.027  0.00  0.00     0.117 A 
ATOM      6  C6  <0> d           0.753  -2.041   1.238  0.00  0.00     0.041 C 
ATOM      7  C7  <0> d           0.742  -0.510   1.242  0.00  0.00     0.007 C 
ATOM      8  C8  <0> d           1.495  -4.053  -0.035  0.00  0.00     0.275 A 
ATOM      9  O1  <0> d           0.556  -4.821  -0.030  0.00  0.00    -0.268 OA
ATOM     10  N1  <0> d           2.807  -4.367  -0.051  0.00  0.00    -0.167 N 
ATOM     11  C9  <0> d           3.576  -3.272  -0.053  0.00  0.00     0.345 A 
ATOM     12  O2  <0> d           4.791  -3.300  -0.065  0.00  0.00    -0.245 OA
ATOM     13  N2  <0> d           2.853  -2.136  -0.039  0.00  0.00    -0.323 N 
ATOM     14  H13 <0> d           3.196  -1.229  -0.038  0.00  0.00     0.165 HD
ENDROOT
BRANCH  10  15
ATOM     15  N3  <0> d           3.303  -5.678  -0.062  0.00  0.00    -0.255 N 
ATOM     16  C10 <0> d           3.812  -6.196  -1.197  0.00  0.00     0.262 C 
ATOM     17  O3  <0> d           3.841  -5.528  -2.209  0.00  0.00    -0.270 OA
ATOM     18  H14 <0> d           3.280  -6.212   0.747  0.00  0.00     0.191 HD
BRANCH  16  19
ATOM     19  C11 <0> d           4.345  -7.605  -1.210  0.00  0.00     0.338 C 
BRANCH  19  20
ATOM     20  N4  <0> d           4.839  -7.930  -2.554  0.00  0.00    -0.062 N 
ATOM     21  C12 <0> d           5.992  -7.076  -2.872  0.00  0.00     0.270 C 
ATOM     22  H25 <0> d           4.107  -7.771  -3.229  0.00  0.00     0.280 HD
BRANCH  20  23
ATOM     23  C13 <0> d           5.248  -9.340  -2.598  0.00  0.00     0.188 A 
ATOM     24  C15 <0> d           4.182 -10.395  -2.293  0.00  0.00     0.035 A 
ATOM     25  C14 <0> d           4.683 -10.205  -3.727  0.00  0.00     0.035 A 
ENDBRANCH  20  23
ENDBRANCH  19  20
ENDBRANCH  16  19
ENDBRANCH  10  15
TORSDOF 4
