REMARK  6 active torsions:
REMARK  status: ('A' for Active; 'I' for Inactive)
REMARK    1  A    between atoms: N1_2  and  C2_3 
REMARK       I    between atoms: N1_2  and  C11_12 
REMARK    2  A    between atoms: C11_12  and  C12_14 
REMARK    3  A    between atoms: C12_14  and  C13_15 
REMARK    4  A    between atoms: C13_15  and  C14_16 
REMARK    5  A    between atoms: C14_16  and  N2_17 
REMARK    6  A    between atoms: N2_17  and  C15_18 
ROOT
ATOM      1  C13 <0> d           1.021  -2.227  -0.019  0.00  0.00     0.029 C 
ENDROOT
BRANCH   1   2
ATOM      2  C12 <0> d           2.357  -2.974  -0.035  0.00  0.00     0.104 C 
BRANCH   2   3
ATOM      3  C11 <0> d           2.101  -4.459  -0.041  0.00  0.00     0.220 C 
ATOM      4  N1  <0> d           3.138  -5.321  -0.055  0.00  0.00    -0.348 N 
ATOM      5  C1  <0> d           4.512  -4.814  -0.065  0.00  0.00     0.153 C 
ATOM      6  O1  <0> d           0.964  -4.879  -0.033  0.00  0.00    -0.273 OA
BRANCH   4   7
ATOM      7  C2  <0> d           2.889  -6.765  -0.061  0.00  0.00     0.120 C 
ATOM      8  C6  <0> d           3.547  -7.406  -1.264  0.00  0.00    -0.029 A 
ATOM      9  C5  <0> d           4.183  -8.574  -0.879  0.00  0.00    -0.050 A 
ATOM     10  C7  <0> d           3.592  -7.001  -2.586  0.00  0.00     0.010 A 
ATOM     11  C4  <0> d           3.993  -8.796   0.606  0.00  0.00     0.041 C 
ATOM     12  C10 <0> d           4.858  -9.332  -1.821  0.00  0.00     0.007 A 
ATOM     13  C3  <0> d           3.553  -7.427   1.166  0.00  0.00     0.035 C 
ATOM     14  C9  <0> d           4.899  -8.926  -3.141  0.00  0.00     0.001 A 
ATOM     15  C8  <0> d           4.266  -7.759  -3.523  0.00  0.00     0.001 A 
ENDBRANCH   4   7
ENDBRANCH   2   3
ENDBRANCH   1   2
BRANCH   1  16
ATOM     16  C14 <0> d           1.281  -0.719  -0.013  0.00  0.00     0.121 C 
BRANCH  16  17
ATOM     17  N2  <0> d           0.002  -0.004   0.002  0.00  0.00    -0.373 N 
ATOM     18  H19 <0> d          -0.943  -0.567   0.008  0.00  0.00     0.161 HD
BRANCH  17  19
ATOM     19  C15 <0> d          -0.017   1.374   0.010  0.00  0.00     0.148 A 
ATOM     20  C17 <0> d          -1.296   2.100   0.019  0.00  0.00     0.034 A 
ATOM     21  C16 <0> d          -1.114   3.490   0.030  0.00  0.00     0.095 A 
ATOM     22  C18 <0> d          -2.615   1.622   0.035  0.00  0.00     0.017 A 
ATOM     23  S1  <0> d           0.650   3.658   0.015  0.00  0.00     0.286 S 
ATOM     24  C21 <0> d          -2.164   4.361   0.045  0.00  0.00     0.026 A 
ATOM     25  N3  <0> d           1.092   2.044   0.003  0.00  0.00    -0.141 NA
ATOM     26  O2  <0> d           1.044   4.205   1.266  0.00  0.00    -0.198 OA
ATOM     27  O3  <0> d           1.021   4.218  -1.238  0.00  0.00    -0.198 OA
ATOM     28  C20 <0> d          -3.462   3.869   0.054  0.00  0.00     0.002 A 
ATOM     29  C19 <0> d          -3.673   2.502   0.050  0.00  0.00     0.001 A 
ENDBRANCH  17  19
ENDBRANCH  16  17
ENDBRANCH   1  16
TORSDOF 6
