REMARK  3 active torsions:
REMARK  status: ('A' for Active; 'I' for Inactive)
REMARK    1  A    between atoms: C6_6  and  S1_7 
REMARK    2  A    between atoms: S1_7  and  N1_10 
REMARK    3  A    between atoms: N1_10  and  C7_11 
ROOT
ATOM      1  S1  <0> d          -1.511  -0.907   0.012  0.00  0.00     0.259 S 
ATOM      2  O1  <0> d          -1.217  -2.187   0.553  0.00  0.00    -0.201 OA
ATOM      3  O2  <0> d          -2.492  -0.048   0.578  0.00  0.00    -0.201 OA
ENDROOT
BRANCH   1   4
ATOM      4  C6  <0> d           0.002  -0.004   0.002  0.00  0.00     0.080 A 
ATOM      5  C1  <0> d          -0.017   1.378   0.010  0.00  0.00     0.026 A 
ATOM      6  C2  <0> d           1.171   2.083   0.002  0.00  0.00     0.009 A 
ATOM      7  C3  <0> d           2.381   1.411  -0.014  0.00  0.00    -0.052 A 
ATOM      8  C14 <0> d           3.799   1.942  -0.025  0.00  0.00     0.039 C 
ATOM      9  C4  <0> d           2.400   0.028  -0.021  0.00  0.00    -0.050 A 
ATOM     10  C13 <0> d           4.671   0.753  -0.480  0.00  0.00     0.009 C 
ATOM     11  C12 <0> d           3.831  -0.464  -0.038  0.00  0.00     0.039 C 
ATOM     12  C5  <0> d           1.208  -0.677  -0.014  0.00  0.00     0.033 A 
ENDBRANCH   1   4
BRANCH   1  13
ATOM     13  N1  <0> d          -1.947  -1.149  -1.567  0.00  0.00    -0.302 N 
ATOM     14  H5  <0> d          -2.755  -0.740  -1.915  0.00  0.00     0.173 HD
BRANCH  13  15
ATOM     15  C7  <0> d          -1.113  -1.980  -2.438  0.00  0.00     0.185 C 
ATOM     16  C11 <0> d          -0.164  -1.104  -3.204  0.00  0.00     0.241 C 
ATOM     17  N2  <0> d           0.112  -1.271  -4.497  0.00  0.00    -0.359 N 
ATOM     18  O3  <0> d           0.382  -0.196  -2.615  0.00  0.00    -0.271 OA
ATOM     19  C10 <0> d          -0.506  -2.287  -5.340  0.00  0.00     0.122 C 
ATOM     20  H12 <0> d           0.764  -0.678  -4.903  0.00  0.00     0.162 HD
ATOM     21  C9  <0> d          -1.116  -3.396  -4.481  0.00  0.00     0.022 C 
ATOM     22  C8  <0> d          -2.007  -2.753  -3.411  0.00  0.00     0.037 C 
ENDBRANCH  13  15
ENDBRANCH   1  13
TORSDOF 3
