REMARK  5 active torsions:
REMARK  status: ('A' for Active; 'I' for Inactive)
REMARK    1  A    between atoms: C10_12  and  C11_13 
REMARK    2  A    between atoms: C11_13  and  C12_14 
REMARK       I    between atoms: C12_14  and  N1_16 
REMARK    3  A    between atoms: N1_16  and  C13_17 
REMARK    4  A    between atoms: C16_23  and  O6_24 
REMARK    5  A    between atoms: C18_27  and  C19_28 
ROOT
ATOM      1  C1  <0> d          -2.412   0.969   2.511  0.00  0.00     0.050 C 
ATOM      2  C2  <0> d          -2.967   0.494   1.193  0.00  0.00    -0.036 A 
ATOM      3  C3  <0> d          -4.068  -0.473   1.145  0.00  0.00     0.005 A 
ATOM      4  C4  <0> d          -4.628  -0.977   2.320  0.00  0.00     0.030 A 
ATOM      5  C5  <0> d          -5.668  -1.889   2.239  0.00  0.00     0.012 A 
ATOM      6  C6  <0> d          -6.158  -2.307   0.986  0.00  0.00     0.089 A 
ATOM      7  C7  <0> d          -5.597  -1.802  -0.178  0.00  0.00     0.076 A 
ATOM      8  C8  <0> d          -4.558  -0.890  -0.110  0.00  0.00     0.093 A 
ATOM      9  O1  <0> d          -4.007  -0.395  -1.241  0.00  0.00    -0.274 OA
ATOM     10  C9  <0> d          -3.003   0.494  -1.202  0.00  0.00     0.295 A 
ATOM     11  O2  <0> d          -2.542   0.914  -2.248  0.00  0.00    -0.259 OA
ATOM     12  C10 <0> d          -2.462   0.950   0.019  0.00  0.00     0.033 A 
ATOM     13  O7  <0> d          -7.154  -3.187   1.216  0.00  0.00    -0.314 OA
ATOM     14  C17 <0> d          -7.347  -3.370   2.533  0.00  0.00     0.061 A 
ATOM     15  C18 <0> d          -6.477  -2.612   3.239  0.00  0.00     0.017 A 
ATOM     16  C25 <0> d          -8.381  -4.286   3.136  0.00  0.00     0.077 C 
ENDROOT
BRANCH  12  17
ATOM     17  C11 <0> d          -1.330   1.944   0.019  0.00  0.00     0.148 C 
BRANCH  17  18
ATOM     18  C12 <0> d          -0.014   1.209   0.009  0.00  0.00     0.222 C 
ATOM     19  O3  <0> d           0.002  -0.004   0.002  0.00  0.00    -0.273 OA
ATOM     20  N1  <0> d           1.143   1.898   0.001  0.00  0.00    -0.353 N 
ATOM     21  H10 <0> d           1.130   2.868   0.007  0.00  0.00     0.163 HD
BRANCH  20  22
ATOM     22  C13 <0> d           2.422   1.183  -0.015  0.00  0.00     0.128 C 
ATOM     23  C16 <0> d           3.466   2.030   0.713  0.00  0.00     0.155 C 
ATOM     24  C15 <0> d           4.885   1.732   0.154  0.00  0.00     0.174 C 
ATOM     25  S1  <0> d           4.485   1.584  -1.642  0.00  0.00     0.148 S 
ATOM     26  C14 <0> d           2.795   0.871  -1.477  0.00  0.00     0.168 C 
ATOM     27  O4  <0> d           5.343   0.619  -2.235  0.00  0.00    -0.228 OA
ATOM     28  O5  <0> d           4.390   2.884  -2.209  0.00  0.00    -0.228 OA
BRANCH  23  29
ATOM     29  O6  <0> d           3.433   1.724   2.108  0.00  0.00    -0.393 OA
ATOM     30  H15 <0> d           4.070   2.225   2.636  0.00  0.00     0.210 HD
ENDBRANCH  23  29
ENDBRANCH  20  22
ENDBRANCH  17  18
ENDBRANCH  12  17
BRANCH  15  31
ATOM     31  C19 <0> d          -6.361  -2.526   4.714  0.00  0.00    -0.023 A 
ATOM     32  C24 <0> d          -5.965  -3.641   5.451  0.00  0.00     0.012 A 
ATOM     33  C23 <0> d          -5.858  -3.555   6.824  0.00  0.00     0.001 A 
ATOM     34  C22 <0> d          -6.143  -2.365   7.470  0.00  0.00     0.000 A 
ATOM     35  C21 <0> d          -6.537  -1.255   6.743  0.00  0.00     0.001 A 
ATOM     36  C20 <0> d          -6.641  -1.328   5.369  0.00  0.00     0.012 A 
ENDBRANCH  15  31
TORSDOF 5
