REMARK  5 active torsions:
REMARK  status: ('A' for Active; 'I' for Inactive)
REMARK    1  A    between atoms: C3_3  and  C7_8 
REMARK    2  A    between atoms: N2_17  and  C15_18 
REMARK    3  A    between atoms: C15_18  and  C16_19 
REMARK    4  A    between atoms: C19_22  and  O2_26 
REMARK    5  A    between atoms: C21_24  and  O1_25 
ROOT
ATOM      1  C7  <0> d           3.671   2.107  -0.064  0.00  0.00     0.271 C 
ATOM      2  C8  <0> d           4.319   2.039  -1.425  0.00  0.00     0.047 A 
ATOM      3  C9  <0> d           3.681   1.915  -2.605  0.00  0.00     0.029 A 
ATOM      4  C10 <0> d           4.662   1.908  -3.617  0.00  0.00     0.019 A 
ATOM      5  C11 <0> d           5.864   2.024  -3.016  0.00  0.00     0.091 A 
ATOM      6  N1  <0> d           5.662   2.096  -1.671  0.00  0.00    -0.358 N 
ATOM      7  C12 <0> d           6.699   2.202  -0.638  0.00  0.00     0.130 C 
ATOM      8  C13 <0> d           6.293   3.287   0.364  0.00  0.00     0.048 C 
ATOM      9  C14 <0> d           5.436   2.675   1.466  0.00  0.00     0.238 C 
ATOM     10  N2  <0> d           4.605   1.588   0.945  0.00  0.00    -0.053 N 
ATOM     11  H22 <0> d           5.196   0.887   0.524  0.00  0.00     0.281 HD
ENDROOT
BRANCH  10  12
ATOM     12  C15 <0> d           3.845   0.984   2.047  0.00  0.00     0.277 C 
BRANCH  12  13
ATOM     13  C16 <0> d           4.800   0.372   3.039  0.00  0.00     0.001 A 
ATOM     14  C21 <0> d           5.443   1.176   3.969  0.00  0.00     0.076 A 
ATOM     15  C20 <0> d           6.318   0.611   4.885  0.00  0.00     0.073 A 
ATOM     16  C19 <0> d           6.555  -0.754   4.863  0.00  0.00     0.068 A 
ATOM     17  C18 <0> d           5.914  -1.553   3.927  0.00  0.00     0.037 A 
ATOM     18  C17 <0> d           5.039  -0.989   3.019  0.00  0.00     0.014 A 
BRANCH  14  19
ATOM     19  O1  <0> d           5.213   2.515   3.985  0.00  0.00    -0.360 OA
ATOM     20  H20 <0> d           4.479   2.781   4.556  0.00  0.00     0.217 HD
ENDBRANCH  14  19
BRANCH  16  21
ATOM     21  O2  <0> d           7.416  -1.309   5.756  0.00  0.00    -0.361 OA
ATOM     22  H21 <0> d           8.332  -1.345   5.450  0.00  0.00     0.217 HD
ENDBRANCH  16  21
ENDBRANCH  12  13
ENDBRANCH  10  12
BRANCH   1  23
ATOM     23  C3  <0> d           2.415   1.274  -0.063  0.00  0.00    -0.020 A 
ATOM     24  C2  <0> d           1.191   1.870   0.177  0.00  0.00     0.010 A 
ATOM     25  C1  <0> d           0.038   1.106   0.178  0.00  0.00     0.002 A 
ATOM     26  C6  <0> d           0.109  -0.253  -0.060  0.00  0.00     0.024 A 
ATOM     27  C5  <0> d           1.334  -0.850  -0.301  0.00  0.00     0.034 A 
ATOM     28  C4  <0> d           2.487  -0.086  -0.302  0.00  0.00     0.033 A 
ATOM     29 Cl1  <0> d           1.424  -2.557  -0.602  0.00  0.00    -0.084 Cl
ENDBRANCH   1  23
TORSDOF 5
