REMARK  7 active torsions:
REMARK  status: ('A' for Active; 'I' for Inactive)
REMARK    1  A    between atoms: C4_5  and  C6_8 
REMARK    2  A    between atoms: C6_8  and  N3_9 
REMARK       I    between atoms: N3_9  and  C7_10 
REMARK    3  A    between atoms: C7_10  and  C8_12 
REMARK       I    between atoms: N4_14  and  C16_22 
REMARK    4  A    between atoms: C16_22  and  C17_24 
REMARK    5  A    between atoms: C19_26  and  O5_34 
REMARK    6  A    between atoms: C20_27  and  O4_32 
REMARK    7  A    between atoms: C21_28  and  O3_30 
ROOT
ATOM      1  C8  <0> d          -3.624  -6.518  -0.375  0.00  0.00     0.106 C 
ATOM      2  C9  <0> d          -3.957  -5.917  -1.759  0.00  0.00     0.141 C 
ATOM      3  N4  <0> d          -3.670  -7.008  -2.720  0.00  0.00    -0.346 N 
ATOM      4  C10 <0> d          -4.152  -8.235  -2.039  0.00  0.00     0.136 C 
ATOM      5  C11 <0> d          -3.756  -8.039  -0.562  0.00  0.00    -0.007 C 
ATOM      6  C12 <0> d          -2.423  -8.724  -0.279  0.00  0.00     0.039 C 
ATOM      7  C13 <0> d          -2.594 -10.239  -0.416  0.00  0.00     0.233 C 
ATOM      8  N5  <0> d          -3.617 -10.705   0.528  0.00  0.00    -0.075 N 
ATOM      9  C14 <0> d          -4.917 -10.112   0.191  0.00  0.00     0.233 C 
ATOM     10  C15 <0> d          -4.844  -8.591   0.353  0.00  0.00     0.039 C 
ATOM     11  C16 <0> d          -3.100  -6.909  -3.937  0.00  0.00     0.254 C 
ATOM     12  O2  <0> d          -2.641  -5.846  -4.308  0.00  0.00    -0.267 OA
ATOM     13  H18 <0> d          -3.685 -11.711   0.479  0.00  0.00     0.277 HD
ATOM     14  H34 <0> d          -3.358 -10.434   1.464  0.00  0.00     0.277 HD
ENDROOT
BRANCH  11  15
ATOM     15  C17 <0> d          -3.034  -8.091  -4.820  0.00  0.00     0.037 A 
ATOM     16  C22 <0> d          -2.098  -8.138  -5.856  0.00  0.00     0.057 A 
ATOM     17  C21 <0> d          -2.034  -9.248  -6.678  0.00  0.00     0.105 A 
ATOM     18  C20 <0> d          -2.909 -10.313  -6.480  0.00  0.00     0.135 A 
ATOM     19  C19 <0> d          -3.846 -10.266  -5.452  0.00  0.00     0.105 A 
ATOM     20  C18 <0> d          -3.910  -9.161  -4.623  0.00  0.00     0.057 A 
BRANCH  17  21
ATOM     21  O3  <0> d          -1.119  -9.297  -7.683  0.00  0.00    -0.353 OA
ATOM     22  C23 <0> d          -0.253  -8.170  -7.828  0.00  0.00     0.210 C 
ENDBRANCH  17  21
BRANCH  18  23
ATOM     23  O4  <0> d          -2.848 -11.400  -7.293  0.00  0.00    -0.351 OA
ATOM     24  C24 <0> d          -3.657 -11.377  -8.470  0.00  0.00     0.210 C 
ENDBRANCH  18  23
BRANCH  19  25
ATOM     25  O5  <0> d          -4.699 -11.308  -5.261  0.00  0.00    -0.353 OA
ATOM     26  C25 <0> d          -5.634 -11.193  -4.187  0.00  0.00     0.210 C 
ENDBRANCH  19  25
ENDBRANCH  11  15
BRANCH   1  27
ATOM     27  C7  <0> d          -2.217  -6.159   0.028  0.00  0.00     0.224 C 
ATOM     28  N3  <0> d          -1.871  -6.146   1.330  0.00  0.00    -0.355 N 
ATOM     29  H9  <0> d          -2.529  -6.367   2.009  0.00  0.00     0.162 HD
ATOM     30  O1  <0> d          -1.395  -5.883  -0.820  0.00  0.00    -0.273 OA
BRANCH  28  31
ATOM     31  C6  <0> d          -0.503  -5.797   1.722  0.00  0.00     0.183 C 
BRANCH  31  32
ATOM     32  C4  <0> d          -0.380  -5.856   3.223  0.00  0.00     0.069 A 
ATOM     33  N1  <0> d          -0.721  -4.810   3.955  0.00  0.00    -0.260 NA
ATOM     34  C3  <0> d          -0.613  -4.862   5.271  0.00  0.00     0.143 A 
ATOM     35  C2  <0> d          -0.143  -6.011   5.882  0.00  0.00     0.048 A 
ATOM     36  C1  <0> d          -0.020  -6.071   7.383  0.00  0.00     0.072 C 
ATOM     37  N2  <0> d           0.202  -7.055   5.149  0.00  0.00    -0.262 NA
ATOM     38  C5  <0> d           0.090  -7.005   3.833  0.00  0.00     0.145 A 
ENDBRANCH  31  32
ENDBRANCH  28  31
ENDBRANCH   1  27
TORSDOF 7
