REMARK  6 active torsions:
REMARK  status: ('A' for Active; 'I' for Inactive)
REMARK    1  A    between atoms: N2_11  and  C9_12 
REMARK    2  A    between atoms: C9_12  and  C10_13 
REMARK       I    between atoms: C10_13  and  N3_15 
REMARK    3  A    between atoms: N3_15  and  C11_16 
REMARK    4  A    between atoms: C11_16  and  C12_17 
REMARK    5  A    between atoms: C12_17  and  N4_18 
REMARK    6  A    between atoms: C15_22  and  C16_23 
ROOT
ATOM      1  C11 <0> d           5.219   5.593  -2.590  0.00  0.00     0.143 C 
ENDROOT
BRANCH   1   2
ATOM      2  N3  <0> d           4.895   5.442  -1.169  0.00  0.00    -0.358 N 
ATOM      3  C10 <0> d           3.964   4.548  -0.781  0.00  0.00     0.235 C 
ATOM      4  O2  <0> d           3.393   3.869  -1.609  0.00  0.00    -0.272 OA
ATOM      5  H8  <0> d           5.351   5.985  -0.507  0.00  0.00     0.162 HD
BRANCH   3   6
ATOM      6  C9  <0> d           3.631   4.393   0.680  0.00  0.00     0.235 C 
BRANCH   6   7
ATOM      7  N2  <0> d           2.597   3.367   0.839  0.00  0.00    -0.302 N 
ATOM      8  C4  <0> d           1.260   3.709   0.812  0.00  0.00     0.066 A 
ATOM      9  C3  <0> d           0.877   5.035   0.632  0.00  0.00     0.032 A 
ATOM     10  C5  <0> d           0.276   2.715   0.965  0.00  0.00     0.083 A 
ATOM     11  C2  <0> d          -0.460   5.365   0.606  0.00  0.00     0.002 A 
ATOM     12  C1  <0> d          -1.431   4.384   0.758  0.00  0.00     0.002 A 
ATOM     13  C6  <0> d          -1.080   3.078   0.935  0.00  0.00     0.034 A 
ATOM     14  N1  <0> d           0.626   1.425   1.134  0.00  0.00    -0.253 NA
ATOM     15  C7  <0> d           1.878   1.068   1.170  0.00  0.00     0.192 A 
ATOM     16  C8  <0> d           2.937   2.071   1.014  0.00  0.00     0.266 A 
ATOM     17  O1  <0> d           4.108   1.740   1.042  0.00  0.00    -0.266 OA
ENDBRANCH   6   7
ENDBRANCH   3   6
ENDBRANCH   1   2
BRANCH   1  18
ATOM     18  C12 <0> d           6.299   6.664  -2.756  0.00  0.00     0.155 C 
BRANCH  18  19
ATOM     19  N4  <0> d           6.622   6.816  -4.176  0.00  0.00    -0.273 N 
ATOM     20  C22 <0> d           7.605   6.063  -4.712  0.00  0.00     0.294 A 
ATOM     21  S1  <0> d           7.631   6.582  -6.420  0.00  0.00    -0.023 SA
ATOM     22  O4  <0> d           8.303   5.231  -4.165  0.00  0.00    -0.259 OA
ATOM     23  C14 <0> d           6.322   7.795  -6.328  0.00  0.00     0.079 A 
ATOM     24  C13 <0> d           5.948   7.691  -4.903  0.00  0.00     0.268 A 
ATOM     25  C15 <0> d           5.812   8.594  -7.300  0.00  0.00     0.036 C 
ATOM     26  O3  <0> d           5.064   8.375  -4.422  0.00  0.00    -0.266 OA
BRANCH  25  27
ATOM     27  C16 <0> d           6.456   8.647  -8.619  0.00  0.00    -0.035 A 
ATOM     28  C21 <0> d           5.839   9.327  -9.676  0.00  0.00     0.014 A 
ATOM     29  C20 <0> d           6.449   9.373 -10.910  0.00  0.00     0.043 A 
ATOM     30  C19 <0> d           7.671   8.748 -11.108  0.00  0.00     0.116 A 
ATOM     31  C18 <0> d           8.288   8.073 -10.065  0.00  0.00     0.043 A 
ATOM     32  F1  <0> d           8.263   8.797 -12.321  0.00  0.00    -0.206 F 
ATOM     33  C17 <0> d           7.693   8.023  -8.824  0.00  0.00     0.014 A 
ENDBRANCH  25  27
ENDBRANCH  18  19
ENDBRANCH   1  18
TORSDOF 6
