REMARK  7 active torsions:
REMARK  status: ('A' for Active; 'I' for Inactive)
REMARK    1  A    between atoms: C2_2  and  N1_3 
REMARK    2  A    between atoms: N2_6  and  C7_9 
REMARK    3  A    between atoms: C7_9  and  C9_11 
REMARK    4  A    between atoms: C9_11  and  N3_12 
REMARK       I    between atoms: N3_12  and  C10_13 
REMARK    5  A    between atoms: C10_13  and  C11_15 
REMARK       I    between atoms: C11_15  and  N4_17 
REMARK    6  A    between atoms: N4_17  and  C12_18 
REMARK    7  A    between atoms: C17_23  and  N5_24 
ROOT
ATOM      1  N3  <0> d          -3.973  -4.644  -2.200  0.00  0.00    -0.351 N 
ATOM      2  C10 <0> d          -3.777  -5.966  -2.377  0.00  0.00     0.309 C 
ATOM      3  O1  <0> d          -4.306  -6.763  -1.630  0.00  0.00    -0.262 OA
ATOM      4  H20 <0> d          -3.549  -4.007  -2.796  0.00  0.00     0.162 HD
ENDROOT
BRANCH   2   5
ATOM      5  C11 <0> d          -2.908  -6.449  -3.491  0.00  0.00     0.314 C 
ATOM      6  O2  <0> d          -2.378  -5.652  -4.237  0.00  0.00    -0.262 OA
ATOM      7  N4  <0> d          -2.712  -7.771  -3.667  0.00  0.00    -0.317 N 
ATOM      8  H21 <0> d          -3.069  -8.404  -3.025  0.00  0.00     0.169 HD
BRANCH   7   9
ATOM      9  C12 <0> d          -1.994  -8.229  -4.777  0.00  0.00     0.063 A 
ATOM     10  C17 <0> d          -1.341  -9.461  -4.728  0.00  0.00     0.078 A 
ATOM     11  C16 <0> d          -0.635  -9.912  -5.835  0.00  0.00     0.062 A 
ATOM     12  C15 <0> d          -0.573  -9.136  -6.978  0.00  0.00     0.026 A 
ATOM     13 Cl1  <0> d           0.173 -11.447  -5.782  0.00  0.00    -0.082 Cl
ATOM     14  C14 <0> d          -1.216  -7.912  -7.024  0.00  0.00     0.004 A 
ATOM     15  C13 <0> d          -1.925  -7.458  -5.928  0.00  0.00     0.032 A 
BRANCH  10  16
ATOM     16  N5  <0> d          -1.402 -10.242  -3.568  0.00  0.00    -0.386 N 
ATOM     17  C18 <0> d          -2.478 -11.222  -3.400  0.00  0.00     0.149 C 
ATOM     18  C19 <0> d          -0.389 -10.079  -2.522  0.00  0.00     0.149 C 
ENDBRANCH  10  16
ENDBRANCH   7   9
ENDBRANCH   2   5
BRANCH   1  19
ATOM     19  C9  <0> d          -4.825  -4.169  -1.107  0.00  0.00     0.158 C 
BRANCH  19  20
ATOM     20  C7  <0> d          -4.879  -2.640  -1.130  0.00  0.00     0.236 C 
ATOM     21  C8  <0> d          -5.666  -2.140   0.083  0.00  0.00     0.044 C 
BRANCH  20  22
ATOM     22  N2  <0> d          -3.514  -2.101  -1.084  0.00  0.00     0.097 N 
ATOM     23  C4  <0> d          -3.520  -0.638  -1.223  0.00  0.00     0.300 C 
ATOM     24  C3  <0> d          -2.079  -0.123  -1.230  0.00  0.00     0.265 C 
ATOM     25  N1  <0> d          -1.415  -0.510   0.021  0.00  0.00    -0.068 N 
ATOM     26  C6  <0> d          -1.394  -1.974   0.135  0.00  0.00     0.265 C 
ATOM     27  H31 <0> d          -1.918  -0.119   0.804  0.00  0.00     0.280 HD
ATOM     28  C5  <0> d          -2.829  -2.505   0.153  0.00  0.00     0.300 C 
BRANCH  25  29
ATOM     29  C2  <0> d          -0.037   0.000   0.022  0.00  0.00     0.230 C 
ATOM     30  C1  <0> d          -0.060   1.530   0.030  0.00  0.00     0.034 C 
ENDBRANCH  25  29
ENDBRANCH  20  22
ENDBRANCH  19  20
ENDBRANCH   1  19
TORSDOF 7
