REMARK  6 active torsions:
REMARK  status: ('A' for Active; 'I' for Inactive)
REMARK    1  A    between atoms: C6_6  and  C8_8 
REMARK       I    between atoms: C8_8  and  N1_10 
REMARK    2  A    between atoms: C10_12  and  C17_20 
REMARK       I    between atoms: C17_20  and  N3_22 
REMARK    3  A    between atoms: N3_22  and  C18_23 
REMARK    4  A    between atoms: C18_23  and  C19_24 
REMARK    5  A    between atoms: C18_23  and  C22_27 
REMARK       I    between atoms: C22_27  and  N4_29 
REMARK    6  A    between atoms: N4_29  and  C23_30 
ROOT
ATOM      1  C8  <0> d          -2.224  -3.856   3.414  0.00  0.00     0.253 C 
ATOM      2  O1  <0> d          -2.624  -3.548   4.520  0.00  0.00    -0.267 OA
ATOM      3  N1  <0> d          -2.019  -5.152   3.109  0.00  0.00    -0.346 N 
ATOM      4  C9  <0> d          -1.422  -5.710   1.873  0.00  0.00     0.141 C 
ATOM      5  C10 <0> d          -0.544  -6.885   2.359  0.00  0.00     0.106 C 
ATOM      6  C11 <0> d          -1.153  -7.296   3.710  0.00  0.00    -0.007 C 
ATOM      7  C12 <0> d          -2.334  -6.341   3.936  0.00  0.00     0.136 C 
ATOM      8  C13 <0> d          -1.642  -8.740   3.652  0.00  0.00     0.039 C 
ATOM      9  C14 <0> d          -2.189  -9.144   5.024  0.00  0.00     0.233 C 
ATOM     10  N2  <0> d          -1.134  -9.005   6.034  0.00  0.00    -0.075 N 
ATOM     11  C15 <0> d          -0.734  -7.597   6.149  0.00  0.00     0.233 C 
ATOM     12  C16 <0> d          -0.125  -7.127   4.825  0.00  0.00     0.039 C 
ATOM     13  H18 <0> d          -1.478  -9.329   6.926  0.00  0.00     0.277 HD
ATOM     14  H41 <0> d          -0.335  -9.559   5.764  0.00  0.00     0.277 HD
ENDROOT
BRANCH   5  15
ATOM     15  C17 <0> d          -0.610  -8.030   1.381  0.00  0.00     0.225 C 
ATOM     16  O2  <0> d          -1.600  -8.187   0.697  0.00  0.00    -0.273 OA
ATOM     17  N3  <0> d           0.430  -8.879   1.266  0.00  0.00    -0.347 N 
ATOM     18  H23 <0> d           1.221  -8.753   1.813  0.00  0.00     0.163 HD
BRANCH  17  19
ATOM     19  C18 <0> d           0.365  -9.992   0.315  0.00  0.00     0.180 C 
BRANCH  19  20
ATOM     20  C19 <0> d           0.799  -9.505  -1.069  0.00  0.00     0.009 C 
ATOM     21  C20 <0> d          -0.202  -8.467  -1.581  0.00  0.00     0.012 C 
ATOM     22  C21 <0> d           2.188  -8.872  -0.975  0.00  0.00     0.012 C 
ENDBRANCH  19  20
BRANCH  19  23
ATOM     23  C22 <0> d           1.285 -11.095   0.771  0.00  0.00     0.241 C 
ATOM     24  O3  <0> d           2.170 -10.858   1.566  0.00  0.00    -0.271 OA
ATOM     25  N4  <0> d           1.124 -12.346   0.295  0.00  0.00    -0.351 N 
ATOM     26  H31 <0> d           0.462 -12.522  -0.392  0.00  0.00     0.163 HD
BRANCH  25  27
ATOM     27  C23 <0> d           1.950 -13.439   0.814  0.00  0.00     0.022 C 
ATOM     28  C24 <0> d           1.717 -13.584   2.319  0.00  0.00     0.037 C 
ATOM     29  C25 <0> d           1.569 -14.744   0.111  0.00  0.00     0.037 C 
ATOM     30  C26 <0> d           3.426 -13.131   0.553  0.00  0.00     0.037 C 
ENDBRANCH  25  27
ENDBRANCH  19  23
ENDBRANCH  17  19
ENDBRANCH   5  15
BRANCH   1  31
ATOM     31  C6  <0> d          -1.962  -2.808   2.405  0.00  0.00     0.032 A 
ATOM     32  C5  <0> d          -1.723  -1.492   2.806  0.00  0.00     0.017 A 
ATOM     33  C4  <0> d          -1.479  -0.519   1.859  0.00  0.00     0.002 A 
ATOM     34  C3  <0> d          -1.471  -0.845   0.514  0.00  0.00     0.007 A 
ATOM     35  C2  <0> d          -1.708  -2.147   0.110  0.00  0.00    -0.061 A 
ATOM     36  C1  <0> d          -1.698  -2.493  -1.357  0.00  0.00     0.048 C 
ATOM     37  C7  <0> d          -1.958  -3.128   1.046  0.00  0.00     0.023 A 
ENDBRANCH   1  31
TORSDOF 6
