REMARK  4 active torsions:
REMARK  status: ('A' for Active; 'I' for Inactive)
REMARK    1  A    between atoms: C4_4  and  C7_8 
REMARK    2  A    between atoms: C7_8  and  N1_9 
REMARK    3  A    between atoms: N1_9  and  C8_10 
REMARK    4  A    between atoms: C12_15  and  N3_16 
ROOT
ATOM      1  C8  <0> d           5.354  -1.628   1.578  0.00  0.00     0.076 A 
ATOM      2  C9  <0> d           6.143  -2.063   0.519  0.00  0.00     0.034 A 
ATOM      3  C10 <0> d           7.327  -2.726   0.807  0.00  0.00     0.022 A 
ATOM      4  C11 <0> d           7.684  -2.933   2.126  0.00  0.00     0.119 A 
ATOM      5  N2  <0> d           6.917  -2.509   3.111  0.00  0.00    -0.239 NA
ATOM      6  C12 <0> d           5.784  -1.868   2.884  0.00  0.00     0.176 A 
ENDROOT
BRANCH   1   7
ATOM      7  N1  <0> d           4.152  -0.955   1.338  0.00  0.00    -0.382 N 
ATOM      8  H6  <0> d           3.610  -0.651   2.082  0.00  0.00     0.160 HD
BRANCH   7   9
ATOM      9  C7  <0> d           3.713  -0.710  -0.038  0.00  0.00     0.163 C 
BRANCH   9  10
ATOM     10  C4  <0> d           2.398   0.026  -0.021  0.00  0.00     0.020 A 
ATOM     11  C3  <0> d           2.379   1.411  -0.013  0.00  0.00     0.126 A 
ATOM     12  C2  <0> d           1.170   2.086   0.002  0.00  0.00     0.043 A 
ATOM     13  F1  <0> d           3.539   2.103  -0.021  0.00  0.00    -0.205 F 
ATOM     14  C1  <0> d          -0.017   1.378   0.010  0.00  0.00     0.005 A 
ATOM     15  C6  <0> d           0.002  -0.004   0.002  0.00  0.00     0.024 A 
ATOM     16  C5  <0> d           1.209  -0.680  -0.013  0.00  0.00     0.044 A 
ATOM     17 Cl1  <0> d           1.232  -2.416  -0.022  0.00  0.00    -0.084 Cl
ENDBRANCH   9  10
ENDBRANCH   7   9
ENDBRANCH   1   7
BRANCH   6  18
ATOM     18  N3  <0> d           5.005  -1.431   3.962  0.00  0.00    -0.225 N 
ATOM     19  N4  <0> d           4.091  -0.370   3.943  0.00  0.00    -0.179 NA
ATOM     20  C15 <0> d           3.556  -0.269   5.133  0.00  0.00     0.141 A 
ATOM     21  C14 <0> d           4.117  -1.254   5.954  0.00  0.00     0.040 A 
ATOM     22  C13 <0> d           5.005  -1.957   5.214  0.00  0.00     0.122 A 
ENDBRANCH   6  18
TORSDOF 4
