REMARK  4 active torsions:
REMARK  status: ('A' for Active; 'I' for Inactive)
REMARK    1  A    between atoms: C4_4  and  C6_8 
REMARK       I    between atoms: C6_8  and  N3_10 
REMARK    2  A    between atoms: N3_10  and  C7_11 
REMARK    3  A    between atoms: C7_11  and  C8_12 
REMARK    4  A    between atoms: C8_12  and  C9_13 
ROOT
ATOM      1  C6  <0> d           1.149  -2.993  -1.453  0.00  0.00     0.238 C 
ATOM      2  O1  <0> d           0.362  -3.769  -0.953  0.00  0.00    -0.272 OA
ATOM      3  N3  <0> d           1.659  -3.244  -2.675  0.00  0.00    -0.359 N 
ATOM      4  H12 <0> d           2.288  -2.623  -3.075  0.00  0.00     0.162 HD
ENDROOT
BRANCH   3   5
ATOM      5  C7  <0> d           1.262  -4.454  -3.399  0.00  0.00     0.127 C 
BRANCH   5   6
ATOM      6  C8  <0> d           1.980  -4.498  -4.750  0.00  0.00     0.057 C 
BRANCH   6   7
ATOM      7  C9  <0> d           1.573  -5.742  -5.495  0.00  0.00    -0.044 A 
ATOM      8  C16 <0> d           2.043  -6.177  -6.865  0.00  0.00     0.108 A 
ATOM      9  N4  <0> d           1.363  -7.447  -7.140  0.00  0.00    -0.381 N 
ATOM     10  C17 <0> d           3.559  -6.384  -6.861  0.00  0.00     0.037 C 
ATOM     11  C15 <0> d           0.596  -7.741  -6.118  0.00  0.00     0.039 A 
ATOM     12  H24 <0> d           1.461  -7.979  -7.946  0.00  0.00     0.160 HD
ATOM     13  C10 <0> d           0.707  -6.694  -5.077  0.00  0.00    -0.005 A 
ATOM     14  C14 <0> d          -0.271  -8.840  -5.870  0.00  0.00     0.030 A 
ATOM     15  C11 <0> d          -0.082  -6.850  -3.850  0.00  0.00     0.014 A 
ATOM     16  C12 <0> d          -0.877  -7.936  -3.715  0.00  0.00     0.001 A 
ATOM     17  C13 <0> d          -0.966  -8.914  -4.715  0.00  0.00     0.002 A 
ENDBRANCH   6   7
ENDBRANCH   5   6
ENDBRANCH   3   5
BRANCH   1  18
ATOM     18  C4  <0> d           1.556  -1.748  -0.707  0.00  0.00     0.185 C 
ATOM     19  C3  <0> d           0.768  -0.531  -1.233  0.00  0.00     0.129 C 
ATOM     20  C2  <0> d           0.002  -0.004   0.002  0.00  0.00     0.088 C 
ATOM     21 Cl1  <0> d           1.895   0.729  -1.860  0.00  0.00    -0.121 Cl
ATOM     22  C1  <0> d          -0.019   1.526   0.010  0.00  0.00     0.029 C 
ATOM     23  N2  <0> d           0.790  -0.523   1.151  0.00  0.00    -0.253 NA
ATOM     24  N1  <0> d           1.201  -1.869   0.725  0.00  0.00    -0.241 NA
ATOM     25  H8  <0> d           1.594   0.059   1.331  0.00  0.00     0.141 HD
ATOM     26  C5  <0> d           2.347  -2.345   1.513  0.00  0.00     0.131 C 
ENDBRANCH   1  18
TORSDOF 4
