REMARK  5 active torsions:
REMARK  status: ('A' for Active; 'I' for Inactive)
REMARK    1  A    between atoms: N1_6  and  C7_8 
REMARK    2  A    between atoms: C7_8  and  C8_9 
REMARK    3  A    between atoms: C8_9  and  C9_10 
REMARK    4  A    between atoms: C9_10  and  C10_11 
REMARK    5  A    between atoms: C9_10  and  N2_18 
ROOT
ATOM      1  C8  <0> d           2.993  -2.028   2.239  0.00  0.00     0.068 C 
ENDROOT
BRANCH   1   2
ATOM      2  C7  <0> d           1.534  -2.461   2.390  0.00  0.00     0.237 C 
BRANCH   2   3
ATOM      3  N1  <0> d           0.758  -1.980   1.239  0.00  0.00    -0.070 N 
ATOM      4  C5  <0> d          -0.613  -2.496   1.324  0.00  0.00     0.239 C 
ATOM      5  C4  <0> d          -1.402  -2.064   0.086  0.00  0.00     0.008 C 
ATOM      6  C3  <0> d          -1.434  -0.535   0.015  0.00  0.00     0.011 C 
ATOM      7  C16 <0> d          -2.832  -2.602   0.177  0.00  0.00     0.011 C 
ATOM      8  C2  <0> d           0.002  -0.004   0.002  0.00  0.00     0.008 C 
ATOM      9  C1  <0> d          -0.019   1.526   0.010  0.00  0.00     0.011 C 
ATOM     10  C6  <0> d           0.740  -0.512   1.242  0.00  0.00     0.239 C 
ATOM     11  H26 <0> d           1.188  -2.307   0.386  0.00  0.00     0.279 HD
ENDBRANCH   2   3
ENDBRANCH   1   2
BRANCH   1  12
ATOM     12  C9  <0> d           3.800  -2.529   3.438  0.00  0.00     0.253 C 
BRANCH  12  13
ATOM     13  C10 <0> d           5.258  -2.210   3.231  0.00  0.00    -0.008 A 
ATOM     14  C15 <0> d           6.034  -3.015   2.417  0.00  0.00     0.019 A 
ATOM     15  C14 <0> d           7.371  -2.719   2.223  0.00  0.00     0.019 A 
ATOM     16 Br1  <0> d           5.264  -4.516   1.562  0.00  0.00    -0.051 Br
ATOM     17  C13 <0> d           7.934  -1.624   2.852  0.00  0.00     0.001 A 
ATOM     18  C12 <0> d           7.160  -0.823   3.670  0.00  0.00     0.001 A 
ATOM     19  C11 <0> d           5.823  -1.116   3.860  0.00  0.00     0.011 A 
ENDBRANCH  12  13
BRANCH  12  20
ATOM     20  N2  <0> d           3.323  -1.869   4.661  0.00  0.00     0.087 N 
ATOM     21  H21 <0> d           3.429  -0.867   4.595  0.00  0.00     0.313 HD
ATOM     22  H22 <0> d           2.366  -2.119   4.857  0.00  0.00     0.313 HD
ENDBRANCH  12  20
ENDBRANCH   1  12
TORSDOF 5
