REMARK  7 active torsions:
REMARK  status: ('A' for Active; 'I' for Inactive)
REMARK    1  A    between atoms: N2_11  and  C8_12 
REMARK    2  A    between atoms: C8_12  and  C9_13 
REMARK    3  A    between atoms: C9_13  and  C10_14 
REMARK    4  A    between atoms: C10_14  and  S1_15 
REMARK    5  A    between atoms: S1_15  and  C11_16 
REMARK    6  A    between atoms: C13_18  and  C17_25 
REMARK    7  A    between atoms: C15_20  and  N4_22 
ROOT
ATOM      1  C11 <0> d           9.205   0.317   2.903  0.00  0.00     0.117 A 
ATOM      2  C12 <0> d          10.007   0.474   4.050  0.00  0.00     0.092 A 
ATOM      3  C13 <0> d          11.375   0.767   3.890  0.00  0.00     0.022 A 
ATOM      4  C14 <0> d          11.878   0.889   2.580  0.00  0.00     0.102 A 
ATOM      5  C15 <0> d          11.000   0.715   1.493  0.00  0.00     0.144 A 
ATOM      6  N3  <0> d           9.722   0.436   1.689  0.00  0.00    -0.222 NA
ATOM      7  C16 <0> d          13.261   1.187   2.357  0.00  0.00     0.104 C 
ATOM      8  N5  <0> d          14.358   1.423   2.180  0.00  0.00    -0.191 NA
ATOM      9  C22 <0> d           9.440   0.339   5.358  0.00  0.00     0.103 C 
ATOM     10  N7  <0> d           8.991   0.232   6.395  0.00  0.00    -0.191 NA
ENDROOT
BRANCH   3  11
ATOM     11  C17 <0> d          12.258   0.942   5.065  0.00  0.00    -0.020 A 
ATOM     12  C21 <0> d          13.307   0.050   5.315  0.00  0.00     0.031 A 
ATOM     13  C20 <0> d          14.110   0.254   6.418  0.00  0.00     0.117 A 
ATOM     14  N6  <0> d          13.893   1.266   7.237  0.00  0.00    -0.273 NA
ATOM     15  C19 <0> d          12.912   2.126   7.041  0.00  0.00     0.117 A 
ATOM     16  C18 <0> d          12.065   2.000   5.959  0.00  0.00     0.031 A 
ENDBRANCH   3  11
BRANCH   5  17
ATOM     17  N4  <0> d          11.481   0.833   0.205  0.00  0.00    -0.383 N 
ATOM     18  H12 <0> d          12.418   1.034   0.053  0.00  0.00     0.157 HD
ATOM     19  H13 <0> d          10.883   0.714  -0.549  0.00  0.00     0.157 HD
ENDBRANCH   5  17
BRANCH   1  20
ATOM     20  S1  <0> d           7.491  -0.050   3.085  0.00  0.00    -0.109 SA
BRANCH  20  21
ATOM     21  C10 <0> d           6.884  -0.168   1.380  0.00  0.00     0.082 C 
BRANCH  21  22
ATOM     22  C9  <0> d           5.388  -0.487   1.392  0.00  0.00     0.031 C 
BRANCH  22  23
ATOM     23  C8  <0> d           4.875  -0.586  -0.046  0.00  0.00     0.135 C 
BRANCH  23  24
ATOM     24  N2  <0> d           3.443  -0.892  -0.035  0.00  0.00    -0.297 N 
ATOM     25  C4  <0> d           2.410   0.043  -0.021  0.00  0.00     0.065 A 
ATOM     26  C3  <0> d           2.381   1.429  -0.013  0.00  0.00     0.032 A 
ATOM     27  C5  <0> d           1.214  -0.678  -0.013  0.00  0.00     0.063 A 
ATOM     28  C2  <0> d           1.169   2.091   0.002  0.00  0.00     0.002 A 
ATOM     29  C1  <0> d          -0.017   1.377   0.010  0.00  0.00     0.002 A 
ATOM     30  C6  <0> d           0.002  -0.004   0.002  0.00  0.00     0.032 A 
ATOM     31  N1  <0> d           1.557  -2.028  -0.023  0.00  0.00    -0.306 N 
ATOM     32  H1  <0> d           0.934  -2.772  -0.021  0.00  0.00     0.171 HD
ATOM     33  C7  <0> d           2.900  -2.124  -0.036  0.00  0.00     0.327 A 
ATOM     34  O1  <0> d           3.528  -3.166  -0.047  0.00  0.00    -0.246 OA
ENDBRANCH  23  24
ENDBRANCH  22  23
ENDBRANCH  21  22
ENDBRANCH  20  21
ENDBRANCH   1  20
TORSDOF 7
