REMARK  5 active torsions:
REMARK  status: ('A' for Active; 'I' for Inactive)
REMARK    1  A    between atoms: N1_2  and  C3_4 
REMARK    2  A    between atoms: C7_9  and  N3_10 
REMARK    3  A    between atoms: N3_10  and  C8_11 
REMARK    4  A    between atoms: C8_11  and  C9_12 
REMARK    5  A    between atoms: C14_17  and  O1_18 
ROOT
ATOM      1  N3  <0> d          -1.215  -0.756   2.441  0.00  0.00    -0.383 N 
ATOM      2  H10 <0> d          -0.381  -0.260   2.459  0.00  0.00     0.160 HD
ENDROOT
BRANCH   1   3
ATOM      3  C7  <0> d          -1.802  -1.092   1.215  0.00  0.00     0.070 A 
ATOM      4  C3  <0> d          -1.196  -0.718   0.010  0.00  0.00     0.059 A 
ATOM      5  C4  <0> d          -1.819  -1.082  -1.181  0.00  0.00     0.048 A 
ATOM      6  C5  <0> d          -3.004  -1.789  -1.132  0.00  0.00     0.090 A 
ATOM      7  N2  <0> d          -3.549  -2.120   0.023  0.00  0.00    -0.373 N 
ATOM      8  C6  <0> d          -2.994  -1.796   1.176  0.00  0.00     0.119 A 
ATOM      9  H18 <0> d          -4.382  -2.617   0.025  0.00  0.00     0.164 HD
BRANCH   4  10
ATOM     10  N1  <0> d           0.002  -0.004   0.002  0.00  0.00    -0.388 N 
ATOM     11  C1  <0> d          -0.018   1.461   0.010  0.00  0.00     0.149 C 
ATOM     12  C2  <0> d           1.281  -0.719  -0.014  0.00  0.00     0.149 C 
ENDBRANCH   4  10
ENDBRANCH   1   3
BRANCH   1  13
ATOM     13  C8  <0> d          -1.859  -1.153   3.696  0.00  0.00     0.161 C 
BRANCH  13  14
ATOM     14  C9  <0> d          -1.030  -0.673   4.859  0.00  0.00    -0.004 A 
ATOM     15  C14 <0> d          -1.117   0.648   5.274  0.00  0.00     0.093 A 
ATOM     16  C13 <0> d          -0.357   1.086   6.350  0.00  0.00     0.046 A 
ATOM     17  C12 <0> d           0.492   0.209   6.998  0.00  0.00     0.041 A 
ATOM     18 Br1  <0> d          -0.479   2.884   6.924  0.00  0.00    -0.048 Br
ATOM     19  C11 <0> d           0.580  -1.106   6.579  0.00  0.00     0.013 A 
ATOM     20  C10 <0> d          -0.181  -1.546   5.510  0.00  0.00     0.030 A 
ATOM     21 Br2  <0> d           1.741  -2.305   7.468  0.00  0.00    -0.051 Br
BRANCH  15  22
ATOM     22  O1  <0> d          -1.947   1.510   4.631  0.00  0.00    -0.354 OA
ATOM     23  C15 <0> d          -3.286   1.610   5.122  0.00  0.00     0.210 C 
ENDBRANCH  15  22
ENDBRANCH  13  14
ENDBRANCH   1  13
TORSDOF 5
