REMARK  4 active torsions:
REMARK  status: ('A' for Active; 'I' for Inactive)
REMARK    1  A    between atoms: C3_5  and  N3_7 
REMARK       I    between atoms: N3_7  and  C4_8 
REMARK    2  A    between atoms: C4_8  and  C5_10 
REMARK    3  A    between atoms: C5_10  and  N4_11 
REMARK    4  A    between atoms: C8_15  and  C9_16 
ROOT
ATOM      1  N4  <0> d          -0.098   0.142   0.795  0.00  0.00    -0.265 N 
ATOM      2  C6  <0> d          -0.075   1.420   0.457  0.00  0.00     0.268 A 
ATOM      3  O2  <0> d          -1.099   2.046   0.253  0.00  0.00    -0.266 OA
ATOM      4  C7  <0> d           1.257   2.048   0.332  0.00  0.00     0.079 A 
ATOM      5  C8  <0> d           1.584   3.323   0.005  0.00  0.00     0.036 C 
ATOM      6  S2  <0> d           2.317   0.666   0.732  0.00  0.00    -0.023 SA
ATOM      7  C15 <0> d           1.039  -0.549   1.014  0.00  0.00     0.294 A 
ATOM      8  O3  <0> d           1.164  -1.718   1.328  0.00  0.00    -0.259 OA
ENDROOT
BRANCH   1   9
ATOM      9  C5  <0> d          -1.387  -0.539   0.934  0.00  0.00     0.239 C 
BRANCH   9  10
ATOM     10  C4  <0> d          -1.786  -1.137  -0.391  0.00  0.00     0.242 C 
ATOM     11  N3  <0> d          -2.944  -1.816  -0.503  0.00  0.00    -0.303 N 
ATOM     12  H4  <0> d          -3.522  -1.920   0.269  0.00  0.00     0.171 HD
ATOM     13  O1  <0> d          -1.063  -1.006  -1.356  0.00  0.00    -0.271 OA
BRANCH  11  14
ATOM     14  C3  <0> d          -3.312  -2.367  -1.726  0.00  0.00     0.196 A 
ATOM     15  N2  <0> d          -2.681  -2.337  -2.887  0.00  0.00    -0.123 NA
ATOM     16  N1  <0> d          -3.151  -2.897  -3.916  0.00  0.00    -0.145 NA
ATOM     17  C2  <0> d          -4.307  -3.529  -3.868  0.00  0.00     0.097 A 
ATOM     18  C1  <0> d          -5.057  -4.256  -4.954  0.00  0.00     0.081 C 
ATOM     19  S1  <0> d          -4.731  -3.279  -2.148  0.00  0.00    -0.034 SA
ENDBRANCH  11  14
ENDBRANCH   9  10
ENDBRANCH   1   9
BRANCH   5  20
ATOM     20  C9  <0> d           2.980   3.772   0.105  0.00  0.00    -0.035 A 
ATOM     21  C14 <0> d           3.354   5.024  -0.396  0.00  0.00     0.013 A 
ATOM     22  C13 <0> d           4.665   5.438  -0.298  0.00  0.00     0.024 A 
ATOM     23  C12 <0> d           5.612   4.618   0.294  0.00  0.00     0.034 A 
ATOM     24  C11 <0> d           5.249   3.377   0.792  0.00  0.00     0.024 A 
ATOM     25 Cl1  <0> d           7.261   5.148   0.412  0.00  0.00    -0.084 Cl
ATOM     26  C10 <0> d           3.941   2.951   0.707  0.00  0.00     0.013 A 
ENDBRANCH   5  20
TORSDOF 4
