REMARK  6 active torsions:
REMARK  status: ('A' for Active; 'I' for Inactive)
REMARK    1  A    between atoms: O1_2  and  C2_3 
REMARK    2  A    between atoms: C2_3  and  C3_4 
REMARK    3  A    between atoms: C3_4  and  N1_5 
REMARK    4  A    between atoms: N1_5  and  C4_6 
REMARK    5  A    between atoms: C4_6  and  C5_7 
REMARK    6  A    between atoms: C6_8  and  N4_15 
ROOT
ATOM      1  C5  <0> d           2.177  -4.304  -1.523  0.00  0.00     0.089 A 
ATOM      2  C6  <0> d           1.660  -4.681  -2.710  0.00  0.00     0.153 A 
ATOM      3  N2  <0> d           2.656  -5.173  -3.467  0.00  0.00    -0.204 NA
ATOM      4  C7  <0> d           3.770  -5.115  -2.792  0.00  0.00     0.179 A 
ATOM      5  N3  <0> d           3.549  -4.572  -1.555  0.00  0.00    -0.299 N 
ATOM      6  C8  <0> d           4.641  -4.441  -0.726  0.00  0.00     0.106 A 
ATOM      7  C9  <0> d           5.851  -4.827  -1.127  0.00  0.00     0.071 A 
ATOM      8  S1  <0> d           5.517  -5.440  -2.771  0.00  0.00    -0.062 SA
ENDROOT
BRANCH   1   9
ATOM      9  C4  <0> d           1.415  -3.698  -0.372  0.00  0.00     0.293 C 
BRANCH   9  10
ATOM     10  N1  <0> d           1.338  -2.242  -0.549  0.00  0.00    -0.068 N 
ATOM     11  H8  <0> d           0.862  -2.033  -1.414  0.00  0.00     0.277 HD
ATOM     12  H23 <0> d           2.270  -1.856  -0.576  0.00  0.00     0.277 HD
BRANCH  10  13
ATOM     13  C3  <0> d           0.595  -1.651   0.573  0.00  0.00     0.258 C 
BRANCH  13  14
ATOM     14  C2  <0> d           0.514  -0.134   0.388  0.00  0.00     0.194 C 
BRANCH  14  15
ATOM     15  O1  <0> d          -0.259   0.163  -0.776  0.00  0.00    -0.394 OA
ATOM     16  C1  <0> d          -0.397   1.561  -1.040  0.00  0.00     0.201 C 
ENDBRANCH  14  15
ENDBRANCH  13  14
ENDBRANCH  10  13
ENDBRANCH   9  10
ENDBRANCH   1   9
BRANCH   2  17
ATOM     17  N4  <0> d           0.313  -4.576  -3.091  0.00  0.00    -0.363 N 
ATOM     18  C14 <0> d          -0.634  -4.072  -2.148  0.00  0.00     0.134 C 
ATOM     19  C13 <0> d          -1.084  -5.232  -1.247  0.00  0.00     0.093 C 
ATOM     20  S2  <0> d          -2.293  -6.237  -2.011  0.00  0.00    -0.167 SA
ATOM     21  C12 <0> d          -1.492  -6.901  -3.518  0.00  0.00     0.075 C 
ATOM     22  C11 <0> d          -1.380  -5.828  -4.555  0.00  0.00     0.030 C 
ATOM     23  C10 <0> d          -0.078  -4.995  -4.447  0.00  0.00     0.125 C 
ENDBRANCH   2  17
TORSDOF 6
