REMARK  5 active torsions:
REMARK  status: ('A' for Active; 'I' for Inactive)
REMARK    1  A    between atoms: C2_2  and  C3_3 
REMARK    2  A    between atoms: C2_2  and  N3_18 
REMARK    3  A    between atoms: C3_3  and  C4_4 
REMARK    4  A    between atoms: C3_3  and  S1_11 
REMARK    5  A    between atoms: S1_11  and  C10_12 
ROOT
ATOM      1  C3  <0> d           0.511  -0.484   1.288  0.00  0.00     0.118 C 
ENDROOT
BRANCH   1   2
ATOM      2  C2  <0> d          -0.606   0.039   0.384  0.00  0.00     0.198 C 
ATOM      3  C1  <0> d          -0.212  -0.162  -1.081  0.00  0.00     0.041 C 
BRANCH   2   4
ATOM      4  N3  <0> d          -1.847  -0.696   0.662  0.00  0.00    -0.074 N 
ATOM      5  H13 <0> d          -1.684  -1.685   0.550  0.00  0.00     0.274 HD
ATOM      6  H14 <0> d          -2.143  -0.509   1.609  0.00  0.00     0.274 HD
ATOM      7  H15 <0> d          -2.566  -0.398   0.020  0.00  0.00     0.274 HD
ENDBRANCH   2   4
ENDBRANCH   1   2
BRANCH   1   8
ATOM      8  C4  <0> d           0.664  -1.970   1.089  0.00  0.00    -0.041 A 
ATOM      9  C9  <0> d           0.174  -2.848   2.037  0.00  0.00     0.027 A 
ATOM     10  C8  <0> d           0.309  -4.212   1.852  0.00  0.00     0.011 A 
ATOM     11  C7  <0> d           0.946  -4.697   0.723  0.00  0.00     0.019 A 
ATOM     12 Br1  <0> d          -0.369  -5.415   3.144  0.00  0.00    -0.051 Br
ATOM     13  C6  <0> d           1.441  -3.817  -0.221  0.00  0.00     0.002 A 
ATOM     14  C5  <0> d           1.300  -2.455  -0.038  0.00  0.00     0.008 A 
ENDBRANCH   1   8
BRANCH   1  15
ATOM     15  S1  <0> d           2.068   0.346   0.868  0.00  0.00    -0.078 SA
BRANCH  15  16
ATOM     16  C10 <0> d           1.819   2.010   1.388  0.00  0.00     0.188 A 
ATOM     17  N2  <0> d           2.753   2.915   1.134  0.00  0.00    -0.235 NA
ATOM     18  C13 <0> d           2.595   4.174   1.507  0.00  0.00     0.121 A 
ATOM     19  C12 <0> d           1.440   4.540   2.180  0.00  0.00     0.038 A 
ATOM     20  C11 <0> d           0.485   3.567   2.435  0.00  0.00     0.121 A 
ATOM     21  N1  <0> d           0.703   2.327   2.030  0.00  0.00    -0.235 NA
ENDBRANCH  15  16
ENDBRANCH   1  15
TORSDOF 5
