REMARK  6 active torsions:
REMARK  status: ('A' for Active; 'I' for Inactive)
REMARK    1  A    between atoms: C2_2  and  C3_3 
REMARK    2  A    between atoms: C3_3  and  C8_11 
REMARK    3  A    between atoms: C11_14  and  N2_17 
REMARK       I    between atoms: N2_17  and  C14_18 
REMARK    4  A    between atoms: C14_18  and  C15_20 
REMARK    5  A    between atoms: C15_20  and  N3_21 
REMARK       I    between atoms: N3_21  and  C17_23 
REMARK    6  A    between atoms: C17_23  and  C18_25 
ROOT
ATOM      1  C8  <0> d          -1.855   0.156   1.310  0.00  0.00    -0.040 A 
ATOM      2  C9  <0> d          -2.567  -0.782   2.035  0.00  0.00     0.011 A 
ATOM      3  C10 <0> d          -3.329  -0.387   3.117  0.00  0.00     0.030 A 
ATOM      4  C11 <0> d          -3.380   0.953   3.477  0.00  0.00     0.034 A 
ATOM      5  C12 <0> d          -2.663   1.892   2.747  0.00  0.00     0.030 A 
ATOM      6  C13 <0> d          -1.899   1.491   1.669  0.00  0.00     0.011 A 
ENDROOT
BRANCH   4   7
ATOM      7  N2  <0> d          -4.152   1.356   4.572  0.00  0.00    -0.326 N 
ATOM      8  C14 <0> d          -4.264   0.554   5.649  0.00  0.00     0.240 C 
ATOM      9  O3  <0> d          -3.630  -0.478   5.705  0.00  0.00    -0.271 OA
ATOM     10  H15 <0> d          -4.607   2.213   4.555  0.00  0.00     0.169 HD
BRANCH   8  11
ATOM     11  C15 <0> d          -5.177   0.940   6.784  0.00  0.00     0.228 C 
BRANCH  11  12
ATOM     12  N3  <0> d          -5.122  -0.088   7.826  0.00  0.00    -0.343 N 
ATOM     13  C16 <0> d          -4.138   0.015   8.907  0.00  0.00     0.153 C 
ATOM     14  C17 <0> d          -5.977  -1.130   7.791  0.00  0.00     0.260 C 
ATOM     15  O4  <0> d          -6.723  -1.273   6.840  0.00  0.00    -0.267 OA
BRANCH  14  16
ATOM     16  C18 <0> d          -6.009  -2.090   8.899  0.00  0.00     0.072 A 
ATOM     17  S1  <0> d          -5.146  -2.036  10.457  0.00  0.00    -0.097 SA
ATOM     18  C21 <0> d          -5.717  -3.466  11.128  0.00  0.00     0.050 A 
ATOM     19  C20 <0> d          -6.541  -3.973  10.178  0.00  0.00     0.009 A 
ATOM     20  C19 <0> d          -6.714  -3.279   9.004  0.00  0.00     0.025 A 
ENDBRANCH  14  16
ENDBRANCH  11  12
ENDBRANCH   8  11
ENDBRANCH   4   7
BRANCH   1  21
ATOM     21  C3  <0> d          -1.023  -0.278   0.131  0.00  0.00     0.068 C 
ATOM     22  C7  <0> d          -1.570   0.345  -1.127  0.00  0.00     0.237 C 
ATOM     23  N1  <0> d          -1.473  -0.277  -2.311  0.00  0.00    -0.297 N 
ATOM     24  O2  <0> d          -2.107   1.431  -1.067  0.00  0.00    -0.272 OA
ATOM     25  C6  <0> d          -0.902  -1.482  -2.450  0.00  0.00     0.224 C 
ATOM     26  H10 <0> d          -1.831   0.163  -3.099  0.00  0.00     0.171 HD
ATOM     27  C5  <0> d          -0.317  -2.211  -1.269  0.00  0.00     0.105 C 
ATOM     28  O1  <0> d          -0.856  -1.995  -3.547  0.00  0.00    -0.273 OA
ATOM     29  C4  <0> d          -1.076  -1.804  -0.001  0.00  0.00     0.033 C 
BRANCH  21  30
ATOM     30  C2  <0> d           0.426   0.168   0.335  0.00  0.00     0.020 C 
ATOM     31  C1  <0> d           0.983  -0.473   1.607  0.00  0.00     0.006 C 
ENDBRANCH  21  30
ENDBRANCH   1  21
TORSDOF 6
