REMARK  3 active torsions:
REMARK  status: ('A' for Active; 'I' for Inactive)
REMARK    1  A    between atoms: C2_2  and  S1_3 
REMARK    2  A    between atoms: S1_3  and  C3_6 
REMARK    3  A    between atoms: C7_14  and  C8_15 
ROOT
ATOM      1  C3  <0> d           0.480  -2.148  -1.062  0.00  0.00     0.242 A 
ATOM      2  N1  <0> d          -0.579  -2.642  -1.626  0.00  0.00    -0.178 NA
ATOM      3  S2  <0> d          -0.377  -4.301  -1.503  0.00  0.00     0.053 SA
ATOM      4  C4  <0> d           1.066  -4.337  -0.668  0.00  0.00     0.202 A 
ATOM      5  N2  <0> d           1.754  -5.356  -0.206  0.00  0.00    -0.182 NA
ATOM      6  C5  <0> d           2.875  -5.131   0.504  0.00  0.00     0.283 C 
ATOM      7  O3  <0> d           3.604  -6.054   0.832  0.00  0.00    -0.265 OA
ATOM      8  C6  <0> d           3.203  -3.736   0.880  0.00  0.00     0.079 C 
ATOM      9  C7  <0> d           3.980  -3.441   1.985  0.00  0.00     0.035 C 
ATOM     10  C17 <0> d           2.651  -2.669   0.000  0.00  0.00     0.125 C 
ATOM     11  N4  <0> d           3.261  -1.536  -0.226  0.00  0.00    -0.384 N 
ATOM     12  N5  <0> d           1.406  -3.004  -0.569  0.00  0.00    -0.247 N 
ATOM     13  H15 <0> d           4.069  -1.314   0.263  0.00  0.00     0.157 HD
ATOM     14  H16 <0> d           2.906  -0.916  -0.882  0.00  0.00     0.157 HD
ENDROOT
BRANCH   9  15
ATOM     15  C8  <0> d           4.485  -4.485   2.793  0.00  0.00    -0.000 A 
ATOM     16  C11 <0> d           5.882  -4.667   3.237  0.00  0.00     0.003 A 
ATOM     17  C10 <0> d           5.888  -5.835   4.015  0.00  0.00     0.043 A 
ATOM     18  C12 <0> d           7.059  -3.953   3.038  0.00  0.00     0.014 A 
ATOM     19  N3  <0> d           4.600  -6.332   4.037  0.00  0.00    -0.358 N 
ATOM     20  C15 <0> d           7.081  -6.268   4.585  0.00  0.00     0.030 A 
ATOM     21  C9  <0> d           3.773  -5.545   3.321  0.00  0.00     0.017 A 
ATOM     22  H1  <0> d           4.328  -7.138   4.502  0.00  0.00     0.166 HD
ATOM     23  C16 <0> d           2.298  -5.783   3.127  0.00  0.00     0.069 C 
ATOM     24  C14 <0> d           8.242  -5.556   4.372  0.00  0.00     0.002 A 
ATOM     25  C13 <0> d           8.233  -4.401   3.606  0.00  0.00     0.001 A 
ENDBRANCH   9  15
BRANCH   1  26
ATOM     26  S1  <0> d           0.711  -0.405  -0.948  0.00  0.00     0.209 S 
ATOM     27  O1  <0> d           1.490  -0.219   0.226  0.00  0.00    -0.220 OA
ATOM     28  O2  <0> d          -0.597   0.141  -1.044  0.00  0.00    -0.220 OA
BRANCH  26  29
ATOM     29  C2  <0> d           1.680   0.034  -2.417  0.00  0.00     0.144 C 
ATOM     30  C1  <0> d           2.079   1.509  -2.343  0.00  0.00     0.021 C 
ENDBRANCH  26  29
ENDBRANCH   1  26
TORSDOF 3
