REMARK  3 active torsions:
REMARK  status: ('A' for Active; 'I' for Inactive)
REMARK    1  A    between atoms: C3_3  and  C7_11 
REMARK    2  A    between atoms: C7_11  and  N3_13 
REMARK    3  A    between atoms: N3_13  and  C9_14 
ROOT
ATOM      1  C7  <0> d          -2.481   0.094  -0.079  0.00  0.00     0.222 C 
ATOM      2  C8  <0> d          -3.183   0.066   1.280  0.00  0.00     0.045 C 
ENDROOT
BRANCH   1   3
ATOM      3  C3  <0> d          -1.210  -0.714  -0.004  0.00  0.00     0.064 A 
ATOM      4  C2  <0> d           0.004  -0.114  -0.151  0.00  0.00     0.046 A 
ATOM      5  C1  <0> d           0.088   1.371  -0.392  0.00  0.00     0.071 C 
ATOM      6  N2  <0> d           1.119  -0.846  -0.087  0.00  0.00    -0.240 NA
ATOM      7  C5  <0> d           1.079  -2.134   0.125  0.00  0.00     0.103 A 
ATOM      8  N1  <0> d          -0.089  -2.787   0.279  0.00  0.00    -0.311 N 
ATOM      9  C6  <0> d           2.370  -2.909   0.194  0.00  0.00     0.091 C 
ATOM     10  C4  <0> d          -1.254  -2.105   0.219  0.00  0.00     0.257 A 
ATOM     11  H1  <0> d          -0.095  -3.744   0.431  0.00  0.00     0.170 HD
ATOM     12  O1  <0> d          -2.320  -2.681   0.355  0.00  0.00    -0.267 OA
ENDBRANCH   1   3
BRANCH   1  13
ATOM     13  N3  <0> d          -3.367  -0.481  -1.100  0.00  0.00    -0.062 N 
ATOM     14  H13 <0> d          -2.868  -0.558  -1.974  0.00  0.00     0.278 HD
ATOM     15  H20 <0> d          -3.671  -1.397  -0.804  0.00  0.00     0.278 HD
BRANCH  13  16
ATOM     16  C9  <0> d          -4.537   0.389  -1.279  0.00  0.00     0.201 C 
ATOM     17  C12 <0> d          -4.088   1.758  -1.866  0.00  0.00     0.173 C 
ATOM     18  S1  <0> d          -5.686   2.374  -2.545  0.00  0.00     0.146 S 
ATOM     19  C11 <0> d          -6.583   0.776  -2.709  0.00  0.00     0.142 C 
ATOM     20  O2  <0> d          -5.461   2.912  -3.841  0.00  0.00    -0.228 OA
ATOM     21  O3  <0> d          -6.333   3.168  -1.560  0.00  0.00    -0.228 OA
ATOM     22  C10 <0> d          -5.519  -0.258  -2.270  0.00  0.00     0.049 C 
ENDBRANCH  13  16
ENDBRANCH   1  13
TORSDOF 3
