REMARK  6 active torsions:
REMARK  status: ('A' for Active; 'I' for Inactive)
REMARK    1  A    between atoms: C6_6  and  N1_8 
REMARK       I    between atoms: N1_8  and  C8_9 
REMARK    2  A    between atoms: C8_9  and  C9_11 
REMARK    3  A    between atoms: C9_11  and  S1_12 
REMARK    4  A    between atoms: S1_12  and  C10_13 
REMARK    5  A    between atoms: C11_16  and  C12_19 
REMARK    6  A    between atoms: N4_17  and  N5_18 
ROOT
ATOM      1  C10 <0> d          -0.021   1.758   0.043  0.00  0.00     0.210 A 
ATOM      2  N2  <0> d           1.024   2.553   0.044  0.00  0.00    -0.121 NA
ATOM      3  N3  <0> d           0.640   3.779   0.064  0.00  0.00    -0.129 NA
ATOM      4  C11 <0> d          -0.661   3.840   0.077  0.00  0.00     0.181 A 
ATOM      5  N4  <0> d          -1.129   2.555   0.058  0.00  0.00    -0.218 N 
ENDROOT
BRANCH   1   6
ATOM      6  S1  <0> d           0.003  -0.004   0.019  0.00  0.00    -0.079 SA
BRANCH   6   7
ATOM      7  C9  <0> d           1.789  -0.294  -0.001  0.00  0.00     0.185 C 
BRANCH   7   8
ATOM      8  C8  <0> d           2.057  -1.777  -0.023  0.00  0.00     0.231 C 
ATOM      9  N1  <0> d           3.325  -2.232  -0.040  0.00  0.00    -0.326 N 
ATOM     10  H8  <0> d           4.162  -1.525  -0.130  0.00  0.00     0.169 HD
ATOM     11  O1  <0> d           1.131  -2.560  -0.025  0.00  0.00    -0.272 OA
BRANCH   9  12
ATOM     12  C6  <0> d           3.577  -3.606   0.056  0.00  0.00     0.041 A 
ATOM     13  C5  <0> d           4.755  -4.134  -0.454  0.00  0.00    -0.035 A 
ATOM     14  C4  <0> d           5.000  -5.490  -0.357  0.00  0.00     0.009 A 
ATOM     15  C20 <0> d           5.766  -3.230  -1.110  0.00  0.00     0.050 C 
ATOM     16  C3  <0> d           4.074  -6.321   0.246  0.00  0.00     0.007 A 
ATOM     17  C2  <0> d           2.899  -5.797   0.754  0.00  0.00    -0.060 A 
ATOM     18  C1  <0> d           1.892  -6.706   1.410  0.00  0.00     0.048 C 
ATOM     19  C7  <0> d           2.650  -4.442   0.666  0.00  0.00     0.037 A 
ENDBRANCH   9  12
ENDBRANCH   7   8
ENDBRANCH   6   7
ENDBRANCH   1   6
BRANCH   5  20
ATOM     20  N5  <0> d          -2.434   2.153   0.057  0.00  0.00    -0.335 N 
ATOM     21  H11 <0> d          -3.241   2.901   0.070  0.00  0.00     0.177 HD
ATOM     22  H12 <0> d          -2.679   1.081   0.043  0.00  0.00     0.177 HD
ENDBRANCH   5  20
BRANCH   4  23
ATOM     23  C12 <0> d          -1.496   5.095   0.101  0.00  0.00     0.226 C 
ATOM     24  O3  <0> d          -0.954   6.017   1.052  0.00  0.00    -0.333 OA
ATOM     25  C19 <0> d          -1.405   7.300   0.986  0.00  0.00     0.103 A 
ATOM     26  C14 <0> d          -2.055   7.768  -0.150  0.00  0.00     0.102 A 
ATOM     27  C18 <0> d          -1.208   8.147   2.067  0.00  0.00     0.040 A 
ATOM     28  O2  <0> d          -2.262   6.952  -1.220  0.00  0.00    -0.345 OA
ATOM     29  C15 <0> d          -2.500   9.080  -0.198  0.00  0.00     0.039 A 
ATOM     30  C13 <0> d          -1.472   5.759  -1.282  0.00  0.00     0.216 C 
ATOM     31  C16 <0> d          -2.299   9.920   0.881  0.00  0.00     0.003 A 
ATOM     32  C17 <0> d          -1.654   9.454   2.012  0.00  0.00     0.003 A 
ENDBRANCH   4  23
TORSDOF 6
