REMARK  7 active torsions:
REMARK  status: ('A' for Active; 'I' for Inactive)
REMARK    1  A    between atoms: C2_2  and  C3_3 
REMARK    2  A    between atoms: C3_3  and  C5_5 
REMARK    3  A    between atoms: C5_5  and  C6_6 
REMARK    4  A    between atoms: C5_5  and  N3_22 
REMARK    5  A    between atoms: C7_8  and  C9_11 
REMARK       I    between atoms: C9_11  and  N2_13 
REMARK    6  A    between atoms: N2_13  and  C10_14 
REMARK    7  A    between atoms: C10_14  and  C11_15 
ROOT
ATOM      1  C6  <0> d          -2.829  -2.579  -0.111  0.00  0.00     0.176 A 
ATOM      2  N1  <0> d          -3.402  -3.180   0.889  0.00  0.00    -0.219 NA
ATOM      3  C7  <0> d          -4.673  -3.503   0.527  0.00  0.00     0.149 A 
ATOM      4  C8  <0> d          -4.849  -3.067  -0.750  0.00  0.00     0.181 A 
ATOM      5  O1  <0> d          -3.697  -2.491  -1.129  0.00  0.00    -0.303 OA
ENDROOT
BRANCH   3   6
ATOM      6  C9  <0> d          -5.672  -4.196   1.362  0.00  0.00     0.272 C 
ATOM      7  O2  <0> d          -6.781  -4.426   0.917  0.00  0.00    -0.266 OA
ATOM      8  N2  <0> d          -5.357  -4.573   2.616  0.00  0.00    -0.351 N 
ATOM      9  H12 <0> d          -4.473  -4.389   2.971  0.00  0.00     0.163 HD
BRANCH   8  10
ATOM     10  C10 <0> d          -6.350  -5.261   3.446  0.00  0.00     0.161 C 
BRANCH  10  11
ATOM     11  C11 <0> d          -5.751  -5.571   4.793  0.00  0.00    -0.040 A 
ATOM     12  C16 <0> d          -5.862  -4.658   5.825  0.00  0.00     0.010 A 
ATOM     13  C15 <0> d          -5.317  -4.944   7.063  0.00  0.00     0.019 A 
ATOM     14  C14 <0> d          -4.651  -6.140   7.266  0.00  0.00     0.011 A 
ATOM     15  C13 <0> d          -4.536  -7.051   6.231  0.00  0.00     0.019 A 
ATOM     16 Br1  <0> d          -3.899  -6.529   8.957  0.00  0.00    -0.051 Br
ATOM     17  C12 <0> d          -5.085  -6.766   4.995  0.00  0.00     0.010 A 
ENDBRANCH  10  11
ENDBRANCH   8  10
ENDBRANCH   3   6
BRANCH   1  18
ATOM     18  C5  <0> d          -1.416  -2.058  -0.121  0.00  0.00     0.263 C 
BRANCH  18  19
ATOM     19  C3  <0> d          -1.433  -0.534   0.013  0.00  0.00     0.020 C 
ATOM     20  C4  <0> d          -2.110  -0.145   1.329  0.00  0.00     0.012 C 
BRANCH  19  21
ATOM     21  C2  <0> d           0.002  -0.004   0.002  0.00  0.00     0.002 C 
ATOM     22  C1  <0> d          -0.019   1.526   0.010  0.00  0.00     0.005 C 
ENDBRANCH  19  21
ENDBRANCH  18  19
BRANCH  18  23
ATOM     23  N3  <0> d          -0.766  -2.431  -1.385  0.00  0.00    -0.067 N 
ATOM     24  H19 <0> d           0.181  -2.081  -1.392  0.00  0.00     0.275 HD
ATOM     25  H20 <0> d          -0.754  -3.436  -1.473  0.00  0.00     0.275 HD
ATOM     26  H21 <0> d          -1.278  -2.031  -2.157  0.00  0.00     0.275 HD
ENDBRANCH  18  23
ENDBRANCH   1  18
TORSDOF 7
