REMARK  3 active torsions:
REMARK  status: ('A' for Active; 'I' for Inactive)
REMARK    1  A    between atoms: C5_6  and  N3_10 
REMARK    2  A    between atoms: N3_10  and  C7_11 
REMARK    3  A    between atoms: C10_14  and  O1_17 
ROOT
ATOM      1  N3  <0> d          -2.386  -0.477   0.022  0.00  0.00    -0.369 N 
ATOM      2  H4  <0> d          -2.570   0.475   0.030  0.00  0.00     0.161 HD
ENDROOT
BRANCH   1   3
ATOM      3  C5  <0> d          -1.078  -0.928   0.007  0.00  0.00     0.138 A 
ATOM      4  C4  <0> d           0.002  -0.004   0.002  0.00  0.00     0.046 A 
ATOM      5  C1  <0> d          -0.018   1.448   0.010  0.00  0.00     0.025 A 
ATOM      6  C3  <0> d           1.291  -0.580  -0.013  0.00  0.00     0.112 A 
ATOM      7  C2  <0> d           1.144   2.119   0.003  0.00  0.00     0.053 A 
ATOM      8  S1  <0> d           2.371   0.826  -0.016  0.00  0.00    -0.081 SA
ATOM      9  N2  <0> d           1.460  -1.888  -0.022  0.00  0.00    -0.234 NA
ATOM     10  C6  <0> d           0.417  -2.695  -0.017  0.00  0.00     0.236 A 
ATOM     11  N1  <0> d          -0.818  -2.226  -0.003  0.00  0.00    -0.224 NA
ENDBRANCH   1   3
BRANCH   1  12
ATOM     12  C7  <0> d          -3.492  -1.437   0.027  0.00  0.00     0.083 C 
ATOM     13  C12 <0> d          -4.728  -0.788   0.653  0.00  0.00     0.028 C 
ATOM     14  C11 <0> d          -5.126   0.444  -0.164  0.00  0.00     0.034 C 
ATOM     15  C10 <0> d          -5.442   0.023  -1.600  0.00  0.00     0.118 C 
ATOM     16  C9  <0> d          -4.206  -0.626  -2.226  0.00  0.00     0.034 C 
ATOM     17  C8  <0> d          -3.809  -1.858  -1.409  0.00  0.00     0.028 C 
BRANCH  15  18
ATOM     18  O1  <0> d          -5.813   1.173  -2.362  0.00  0.00    -0.396 OA
ATOM     19  H15 <0> d          -6.591   1.636  -2.023  0.00  0.00     0.210 HD
ENDBRANCH  15  18
ENDBRANCH   1  12
TORSDOF 3
