REMARK  7 active torsions:
REMARK  status: ('A' for Active; 'I' for Inactive)
REMARK    1  A    between atoms: C3_3  and  C9_12 
REMARK    2  A    between atoms: C4_5  and  C5_7 
REMARK    3  A    between atoms: C9_12  and  O2_14 
REMARK    4  A    between atoms: O2_14  and  C10_15 
REMARK    5  A    between atoms: C10_15  and  C11_16 
REMARK       I    between atoms: C11_16  and  N2_18 
REMARK    6  A    between atoms: N2_18  and  C12_19 
REMARK    7  A    between atoms: C13_20  and  C19_27 
REMARK       I    between atoms: C19_27  and  N3_29 
ROOT
ATOM      1  C11 <0> d          -8.256   2.682   0.059  0.00  0.00     0.246 C 
ATOM      2  O3  <0> d          -7.894   1.524   0.051  0.00  0.00    -0.271 OA
ATOM      3  N2  <0> d          -9.571   2.976   0.067  0.00  0.00    -0.319 N 
ATOM      4  H9  <0> d          -9.861   3.902   0.073  0.00  0.00     0.169 HD
ENDROOT
BRANCH   1   5
ATOM      5  C10 <0> d          -7.235   3.790   0.059  0.00  0.00     0.282 C 
BRANCH   5   6
ATOM      6  O2  <0> d          -5.921   3.228   0.050  0.00  0.00    -0.308 OA
BRANCH   6   7
ATOM      7  C9  <0> d          -4.885   4.093   0.049  0.00  0.00     0.302 C 
ATOM      8  O1  <0> d          -5.093   5.292   0.055  0.00  0.00    -0.259 OA
BRANCH   7   9
ATOM      9  C3  <0> d          -3.513   3.589   0.039  0.00  0.00     0.106 A 
ATOM     10  C2  <0> d          -2.310   4.287   0.036  0.00  0.00     0.055 A 
ATOM     11  C1  <0> d          -2.303   5.794   0.044  0.00  0.00     0.072 C 
ATOM     12  N1  <0> d          -1.190   3.623   0.033  0.00  0.00    -0.244 NA
ATOM     13  C4  <0> d          -1.169   2.290   0.020  0.00  0.00     0.116 A 
ATOM     14  S1  <0> d          -2.914   1.903   0.028  0.00  0.00    -0.061 SA
BRANCH  13  15
ATOM     15  C5  <0> d          -0.017   1.380   0.010  0.00  0.00     0.040 A 
ATOM     16  S2  <0> d           1.726   1.770  -0.005  0.00  0.00    -0.099 SA
ATOM     17  C8  <0> d           2.359   0.101  -0.020  0.00  0.00     0.050 A 
ATOM     18  C7  <0> d           1.220  -0.641  -0.013  0.00  0.00     0.008 A 
ATOM     19  C6  <0> d           0.002  -0.004   0.002  0.00  0.00     0.022 A 
ENDBRANCH  13  15
ENDBRANCH   7   9
ENDBRANCH   6   7
ENDBRANCH   5   6
ENDBRANCH   1   5
BRANCH   3  20
ATOM     20  C12 <0> d         -10.510   1.956   0.067  0.00  0.00     0.093 A 
ATOM     21  S3  <0> d         -10.241   0.246   0.058  0.00  0.00    -0.075 SA
ATOM     22  C15 <0> d         -11.927  -0.312   0.063  0.00  0.00    -0.008 A 
ATOM     23  C14 <0> d         -12.661   0.815   0.072  0.00  0.00    -0.026 A 
ATOM     24  C16 <0> d         -12.788  -1.547   0.059  0.00  0.00     0.047 C 
ATOM     25  C13 <0> d         -11.891   2.058   0.080  0.00  0.00     0.072 A 
ATOM     26  C18 <0> d         -14.141   0.429   0.080  0.00  0.00     0.041 C 
ATOM     27  C17 <0> d         -14.184  -1.045  -0.370  0.00  0.00     0.010 C 
BRANCH  25  28
ATOM     28  C19 <0> d         -12.556   3.364   0.097  0.00  0.00     0.252 C 
ATOM     29  O4  <0> d         -12.842   3.915  -0.950  0.00  0.00    -0.268 OA
ATOM     30  N3  <0> d         -12.851   3.955   1.271  0.00  0.00    -0.366 N 
ATOM     31  H16 <0> d         -12.623   3.516   2.106  0.00  0.00     0.159 HD
ATOM     32  H17 <0> d         -13.292   4.819   1.282  0.00  0.00     0.159 HD
ENDBRANCH  25  28
ENDBRANCH   3  20
TORSDOF 7
