REMARK  7 active torsions:
REMARK  status: ('A' for Active; 'I' for Inactive)
REMARK    1  A    between atoms: C2_2  and  C3_3 
REMARK    2  A    between atoms: C8_8  and  N1_9 
REMARK       I    between atoms: N1_9  and  C9_10 
REMARK    3  A    between atoms: C9_10  and  C10_12 
REMARK    4  A    between atoms: C10_12  and  N2_13 
REMARK    5  A    between atoms: N2_13  and  C12_15 
REMARK    6  A    between atoms: C12_15  and  C13_16 
REMARK       I    between atoms: C13_16  and  N3_18 
REMARK    7  A    between atoms: N3_18  and  C14_19 
ROOT
ATOM      1  N2  <0> d           6.366  -0.516   0.937  0.00  0.00    -0.058 N 
ATOM      2  C11 <0> d           6.527  -1.950   0.664  0.00  0.00     0.270 C 
ATOM      3  H30 <0> d           6.695   0.017   0.146  0.00  0.00     0.280 HD
ENDROOT
BRANCH   1   4
ATOM      4  C10 <0> d           4.947  -0.219   1.171  0.00  0.00     0.337 C 
BRANCH   4   5
ATOM      5  C9  <0> d           4.165  -0.474  -0.091  0.00  0.00     0.248 C 
ATOM      6  N1  <0> d           2.833  -0.268  -0.113  0.00  0.00    -0.325 N 
ATOM      7  H11 <0> d           2.388   0.106   0.663  0.00  0.00     0.169 HD
ATOM      8  O1  <0> d           4.734  -0.865  -1.088  0.00  0.00    -0.271 OA
BRANCH   6   9
ATOM      9  C8  <0> d           2.093  -0.594  -1.255  0.00  0.00     0.041 A 
ATOM     10  C3  <0> d           0.800  -1.084  -1.129  0.00  0.00    -0.032 A 
ATOM     11  C4  <0> d           0.070  -1.399  -2.258  0.00  0.00     0.009 A 
ATOM     12  C5  <0> d           0.627  -1.234  -3.513  0.00  0.00     0.001 A 
ATOM     13  C6  <0> d           1.917  -0.751  -3.641  0.00  0.00     0.002 A 
ATOM     14  C7  <0> d           2.652  -0.433  -2.516  0.00  0.00     0.030 A 
BRANCH  10  15
ATOM     15  C2  <0> d           0.191  -1.265   0.238  0.00  0.00     0.036 C 
ATOM     16  C1  <0> d          -0.422   0.058   0.702  0.00  0.00     0.010 C 
ENDBRANCH  10  15
ENDBRANCH   6   9
ENDBRANCH   4   5
ENDBRANCH   1   4
BRANCH   1  17
ATOM     17  C12 <0> d           7.145  -0.154   2.129  0.00  0.00     0.337 C 
BRANCH  17  18
ATOM     18  C13 <0> d           8.613  -0.343   1.845  0.00  0.00     0.244 C 
ATOM     19  O2  <0> d           8.975  -0.740   0.758  0.00  0.00    -0.272 OA
ATOM     20  N3  <0> d           9.524  -0.070   2.800  0.00  0.00    -0.351 N 
ATOM     21  H19 <0> d           9.235   0.247   3.670  0.00  0.00     0.163 HD
BRANCH  20  22
ATOM     22  C14 <0> d          10.951  -0.254   2.525  0.00  0.00     0.118 C 
ATOM     23  C19 <0> d          11.322  -1.694   2.765  0.00  0.00    -0.029 A 
ATOM     24  C18 <0> d          12.482  -2.065   3.406  0.00  0.00    -0.050 A 
ATOM     25  C20 <0> d          10.446  -2.672   2.311  0.00  0.00     0.010 A 
ATOM     26  C17 <0> d          13.474  -1.060   3.932  0.00  0.00     0.039 C 
ATOM     27  C23 <0> d          12.768  -3.411   3.589  0.00  0.00     0.007 A 
ATOM     28  C16 <0> d          13.246   0.307   3.288  0.00  0.00     0.007 C 
ATOM     29  C15 <0> d          11.762   0.667   3.434  0.00  0.00     0.030 C 
ATOM     30  C22 <0> d          11.898  -4.380   3.138  0.00  0.00     0.001 A 
ATOM     31  C21 <0> d          10.731  -4.009   2.496  0.00  0.00     0.001 A 
ENDBRANCH  20  22
ENDBRANCH  17  18
ENDBRANCH   1  17
TORSDOF 7
