REMARK  5 active torsions:
REMARK  status: ('A' for Active; 'I' for Inactive)
REMARK    1  A    between atoms: C3_3  and  S1_9 
REMARK    2  A    between atoms: S1_9  and  N3_12 
REMARK    3  A    between atoms: N3_12  and  C6_13 
REMARK    4  A    between atoms: C6_13  and  C7_14 
REMARK    5  A    between atoms: C6_13  and  C13_20 
ROOT
ATOM      1  C6  <0> d          -1.067  -0.264  -2.897  0.00  0.00     0.194 C 
ENDROOT
BRANCH   1   2
ATOM      2  N3  <0> d          -0.091  -1.172  -3.506  0.00  0.00    -0.299 N 
ATOM      3  H8  <0> d          -0.240  -2.260  -3.446  0.00  0.00     0.173 HD
BRANCH   2   4
ATOM      4  S1  <0> d           1.351  -0.583  -4.066  0.00  0.00     0.265 S 
ATOM      5  O1  <0> d           1.904   0.201  -3.017  0.00  0.00    -0.200 OA
ATOM      6  O2  <0> d           2.043  -1.682  -4.641  0.00  0.00    -0.200 OA
BRANCH   4   7
ATOM      7  C3  <0> d           0.985   0.528  -5.384  0.00  0.00     0.145 A 
ATOM      8  C2  <0> d           0.763   0.175  -6.719  0.00  0.00     0.077 A 
ATOM      9  C1  <0> d           0.798  -1.222  -7.282  0.00  0.00     0.074 C 
ATOM     10  N2  <0> d           0.518   1.268  -7.395  0.00  0.00    -0.175 NA
ATOM     11  N1  <0> d           0.585   2.354  -6.513  0.00  0.00    -0.261 N 
ATOM     12  C4  <0> d           0.873   1.874  -5.285  0.00  0.00     0.147 A 
ATOM     13  C5  <0> d           0.380   3.762  -6.862  0.00  0.00     0.181 C 
ATOM     14 Cl1  <0> d           1.064   2.813  -3.837  0.00  0.00    -0.061 Cl
ENDBRANCH   4   7
ENDBRANCH   2   4
ENDBRANCH   1   2
BRANCH   1  15
ATOM     15  C7  <0> d          -2.356  -0.316  -3.676  0.00  0.00    -0.028 A 
ATOM     16  C12 <0> d          -3.068   0.845  -3.913  0.00  0.00     0.010 A 
ATOM     17  C11 <0> d          -4.250   0.797  -4.627  0.00  0.00     0.001 A 
ATOM     18  C10 <0> d          -4.721  -0.412  -5.105  0.00  0.00     0.000 A 
ATOM     19  C9  <0> d          -4.009  -1.573  -4.869  0.00  0.00     0.001 A 
ATOM     20  C8  <0> d          -2.824  -1.524  -4.158  0.00  0.00     0.010 A 
ENDBRANCH   1  15
BRANCH   1  21
ATOM     21  C13 <0> d          -1.323  -0.684  -1.473  0.00  0.00     0.111 A 
ATOM     22  N5  <0> d          -1.300   0.130  -0.396  0.00  0.00    -0.348 N 
ATOM     23  C15 <0> d          -1.589  -0.639   0.699  0.00  0.00     0.108 A 
ATOM     24  C16 <0> d          -1.024   1.569  -0.399  0.00  0.00     0.157 C 
ATOM     25  C14 <0> d          -1.772  -1.897   0.255  0.00  0.00     0.106 A 
ATOM     26  N4  <0> d          -1.600  -1.896  -1.075  0.00  0.00    -0.352 N 
ATOM     27  H19 <0> d          -1.659  -2.715  -1.808  0.00  0.00     0.166 HD
ENDBRANCH   1  21
TORSDOF 5
