REMARK  3 active torsions:
REMARK  status: ('A' for Active; 'I' for Inactive)
REMARK    1  A    between atoms: C8_8  and  C10_11 
REMARK       I    between atoms: C10_11  and  N1_13 
REMARK    2  A    between atoms: N1_13  and  C11_14 
REMARK    3  A    between atoms: C14_17  and  C17_20 
ROOT
ATOM      1  C11 <0> d           7.258   3.859   0.045  0.00  0.00     0.034 A 
ATOM      2  C12 <0> d           7.197   5.123  -0.529  0.00  0.00     0.030 A 
ATOM      3  C13 <0> d           8.357   5.773  -0.894  0.00  0.00     0.016 A 
ATOM      4  C14 <0> d           9.591   5.156  -0.697  0.00  0.00    -0.006 A 
ATOM      5  C15 <0> d           9.650   3.886  -0.126  0.00  0.00     0.016 A 
ATOM      6  C16 <0> d           8.487   3.242   0.243  0.00  0.00     0.030 A 
ENDROOT
BRANCH   1   7
ATOM      7  N1  <0> d           6.080   3.205   0.419  0.00  0.00    -0.327 N 
ATOM      8  C10 <0> d           5.028   3.916   0.872  0.00  0.00     0.228 C 
ATOM      9  O2  <0> d           5.134   5.112   1.045  0.00  0.00    -0.273 OA
ATOM     10  H10 <0> d           6.020   2.239   0.353  0.00  0.00     0.169 HD
BRANCH   8  11
ATOM     11  C8  <0> d           3.721   3.225   1.162  0.00  0.00     0.107 C 
ATOM     12  C7  <0> d           2.696   4.248   1.660  0.00  0.00     0.057 C 
ATOM     13  C5  <0> d           1.322   3.628   1.669  0.00  0.00    -0.024 A 
ATOM     14  C4  <0> d           1.044   2.482   0.945  0.00  0.00     0.075 A 
ATOM     15  C6  <0> d           0.325   4.228   2.420  0.00  0.00     0.010 A 
ATOM     16  C3  <0> d          -0.238   1.943   0.974  0.00  0.00     0.037 A 
ATOM     17  O1  <0> d           1.995   1.855   0.204  0.00  0.00    -0.350 OA
ATOM     18  C2  <0> d          -1.229   2.548   1.719  0.00  0.00     0.003 A 
ATOM     19  C1  <0> d          -0.946   3.689   2.448  0.00  0.00     0.001 A 
ATOM     20  C9  <0> d           3.177   2.586  -0.122  0.00  0.00     0.190 C 
ENDBRANCH   8  11
ENDBRANCH   1   7
BRANCH   4  21
ATOM     21  C17 <0> d          10.841   5.850  -1.095  0.00  0.00     0.085 A 
ATOM     22  N3  <0> d          12.086   5.366  -0.960  0.00  0.00    -0.229 NA
ATOM     23  C23 <0> d          12.950   6.258  -1.421  0.00  0.00     0.134 A 
ATOM     24  N2  <0> d          12.247   7.348  -1.867  0.00  0.00    -0.315 N 
ATOM     25  C22 <0> d          14.357   6.252  -1.513  0.00  0.00     0.051 A 
ATOM     26  C18 <0> d          10.921   7.085  -1.665  0.00  0.00     0.130 A 
ATOM     27  C19 <0> d          12.901   8.423  -2.397  0.00  0.00     0.098 A 
ATOM     28  C20 <0> d          14.247   8.431  -2.491  0.00  0.00     0.018 A 
ATOM     29  C21 <0> d          14.996   7.330  -2.043  0.00  0.00     0.005 A 
ENDBRANCH   4  21
TORSDOF 3
