REMARK  7 active torsions:
REMARK  status: ('A' for Active; 'I' for Inactive)
REMARK    1  A    between atoms: N2_4  and  C4_6 
REMARK    2  A    between atoms: C7_9  and  C18_25 
REMARK    3  A    between atoms: C9_11  and  N3_12 
REMARK       I    between atoms: N3_12  and  C10_13 
REMARK    4  A    between atoms: C10_13  and  C11_15 
REMARK    5  A    between atoms: C11_15  and  C12_16 
REMARK    6  A    between atoms: C12_16  and  N4_17 
REMARK       I    between atoms: N4_17  and  C13_18 
REMARK    7  A    between atoms: C13_18  and  C14_20 
ROOT
ATOM      1  C4  <0> d           8.331   2.038   0.743  0.00  0.00     0.084 A 
ATOM      2  C5  <0> d           9.535   1.355   0.835  0.00  0.00     0.035 A 
ATOM      3  C6  <0> d           9.678   0.121   0.231  0.00  0.00     0.019 A 
ATOM      4  C7  <0> d           8.622  -0.439  -0.466  0.00  0.00     0.050 A 
ATOM      5  C8  <0> d           7.417   0.231  -0.558  0.00  0.00     0.048 A 
ATOM      6  C9  <0> d           7.267   1.474   0.041  0.00  0.00     0.064 A 
ENDROOT
BRANCH   6   7
ATOM      7  N3  <0> d           6.048   2.157  -0.055  0.00  0.00    -0.325 N 
ATOM      8  C10 <0> d           4.889   1.470  -0.052  0.00  0.00     0.223 C 
ATOM      9  O1  <0> d           4.902   0.257  -0.049  0.00  0.00    -0.273 OA
ATOM     10  H7  <0> d           6.039   3.124  -0.124  0.00  0.00     0.169 HD
BRANCH   8  11
ATOM     11  C11 <0> d           3.575   2.209  -0.053  0.00  0.00     0.123 C 
BRANCH  11  12
ATOM     12  C12 <0> d           2.424   1.202  -0.049  0.00  0.00     0.132 C 
BRANCH  12  13
ATOM     13  N4  <0> d           1.147   1.920  -0.050  0.00  0.00    -0.356 N 
ATOM     14  C13 <0> d          -0.013   1.233  -0.046  0.00  0.00     0.252 C 
ATOM     15  O2  <0> d           0.001   0.017  -0.043  0.00  0.00    -0.268 OA
ATOM     16  H12 <0> d           1.136   2.890  -0.052  0.00  0.00     0.162 HD
BRANCH  14  17
ATOM     17  C14 <0> d          -1.296   1.955  -0.053  0.00  0.00     0.038 A 
ATOM     18  C17 <0> d          -1.346   3.334  -0.058  0.00  0.00     0.066 A 
ATOM     19  S1  <0> d          -3.045   3.668  -0.065  0.00  0.00    -0.113 SA
ATOM     20  C16 <0> d          -3.674   2.002  -0.062  0.00  0.00     0.050 A 
ATOM     21  C15 <0> d          -2.554   1.253  -0.062  0.00  0.00     0.024 A 
ENDBRANCH  14  17
ENDBRANCH  12  13
ENDBRANCH  11  12
ENDBRANCH   8  11
ENDBRANCH   6   7
BRANCH   1  22
ATOM     22  N2  <0> d           8.184   3.291   1.355  0.00  0.00    -0.243 N 
ATOM     23  N1  <0> d           7.003   4.040   1.427  0.00  0.00    -0.180 NA
ATOM     24  C2  <0> d           7.259   5.147   2.076  0.00  0.00     0.140 A 
ATOM     25  C1  <0> d           8.613   5.144   2.431  0.00  0.00     0.040 A 
ATOM     26  C3  <0> d           9.159   3.992   1.976  0.00  0.00     0.120 A 
ENDBRANCH   1  22
BRANCH   4  27
ATOM     27  C18 <0> d           8.784  -1.786  -1.123  0.00  0.00     0.417 C 
ATOM     28  F1  <0> d          10.078  -2.265  -0.889  0.00  0.00    -0.166 F 
ATOM     29  F2  <0> d           7.852  -2.681  -0.587  0.00  0.00    -0.166 F 
ATOM     30  F3  <0> d           8.574  -1.661  -2.500  0.00  0.00    -0.166 F 
ENDBRANCH   4  27
TORSDOF 7
