REMARK  7 active torsions:
REMARK  status: ('A' for Active; 'I' for Inactive)
REMARK    1  A    between atoms: C2_2  and  C3_3 
REMARK    2  A    between atoms: C3_3  and  C4_4 
REMARK    3  A    between atoms: C3_3  and  N1_18 
REMARK    4  A    between atoms: C4_4  and  C5_5 
REMARK    5  A    between atoms: C4_4  and  O1_11 
REMARK    6  A    between atoms: O1_11  and  C9_12 
REMARK    7  A    between atoms: C9_12  and  C10_13 
ROOT
ATOM      1  C4  <0> d           0.547  -2.032  -1.614  0.00  0.00     0.192 C 
ENDROOT
BRANCH   1   2
ATOM      2  C3  <0> d           0.558  -0.574  -1.150  0.00  0.00     0.217 C 
BRANCH   2   3
ATOM      3  C2  <0> d          -0.089  -0.474   0.233  0.00  0.00     0.031 C 
ATOM      4  C1  <0> d          -0.191   0.996   0.643  0.00  0.00     0.007 C 
ENDBRANCH   2   3
BRANCH   2   5
ATOM      5  N1  <0> d           1.945  -0.094  -1.077  0.00  0.00    -0.072 N 
ATOM      6  H15 <0> d           2.401  -0.248  -1.964  0.00  0.00     0.274 HD
ATOM      7  H16 <0> d           1.948   0.892  -0.864  0.00  0.00     0.274 HD
ATOM      8  H17 <0> d           2.437  -0.596  -0.354  0.00  0.00     0.274 HD
ENDBRANCH   2   5
ENDBRANCH   1   2
BRANCH   1   9
ATOM      9  C5  <0> d          -0.875  -2.482  -1.825  0.00  0.00     0.015 A 
ATOM     10  S1  <0> d          -2.077  -3.013  -0.616  0.00  0.00    -0.085 SA
ATOM     11  C8  <0> d          -3.431  -3.337  -1.732  0.00  0.00     0.051 A 
ATOM     12  C7  <0> d          -2.883  -3.032  -2.935  0.00  0.00     0.028 A 
ATOM     13 Br1  <0> d          -5.176  -3.955  -1.341  0.00  0.00    -0.043 Br
ATOM     14  C6  <0> d          -1.573  -2.593  -2.981  0.00  0.00     0.019 A 
ENDBRANCH   1   9
BRANCH   1  15
ATOM     15  O1  <0> d           1.164  -2.853  -0.620  0.00  0.00    -0.372 OA
BRANCH  15  16
ATOM     16  C9  <0> d           1.764  -4.042  -1.139  0.00  0.00     0.233 C 
BRANCH  16  17
ATOM     17  C10 <0> d           2.463  -4.778  -0.025  0.00  0.00     0.076 A 
ATOM     18  O2  <0> d           3.743  -4.610   0.346  0.00  0.00    -0.325 OA
ATOM     19  C13 <0> d           4.022  -5.429   1.373  0.00  0.00     0.142 A 
ATOM     20  C12 <0> d           2.918  -6.140   1.663  0.00  0.00     0.027 A 
ATOM     21  C11 <0> d           1.913  -5.721   0.761  0.00  0.00     0.037 A 
ENDBRANCH  16  17
ENDBRANCH  15  16
ENDBRANCH   1  15
TORSDOF 7
