REMARK  6 active torsions:
REMARK  status: ('A' for Active; 'I' for Inactive)
REMARK    1  A    between atoms: C5_6  and  C6_7 
REMARK    2  A    between atoms: C6_7  and  O3_9 
REMARK    3  A    between atoms: O3_9  and  C7_10 
REMARK    4  A    between atoms: C19_23  and  N2_24 
REMARK    5  A    between atoms: N2_24  and  N3_25 
REMARK    6  A    between atoms: N3_25  and  C20_26 
ROOT
ATOM      1  C1  <0> d          -0.303   1.509   0.033  0.00  0.00     0.052 C 
ATOM      2  C2  <0> d          -0.175   0.007   0.014  0.00  0.00    -0.007 A 
ATOM      3  C3  <0> d          -0.136  -0.818  -1.116  0.00  0.00     0.029 A 
ATOM      4  C4  <0> d          -0.014  -2.115  -0.676  0.00  0.00     0.067 A 
ATOM      5  O1  <0> d           0.024  -2.096   0.654  0.00  0.00    -0.307 OA
ATOM      6  C5  <0> d          -0.068  -0.822   1.097  0.00  0.00     0.158 A 
ATOM      7  C16 <0> d           0.056  -3.295  -1.612  0.00  0.00     0.066 C 
ATOM      8  C17 <0> d          -0.530  -2.902  -2.970  0.00  0.00     0.013 C 
ATOM      9  C18 <0> d           0.139  -1.630  -3.500  0.00  0.00     0.062 C 
ATOM     10  C19 <0> d          -0.201  -0.485  -2.557  0.00  0.00     0.068 C 
ENDROOT
BRANCH   6  11
ATOM     11  C6  <0> d          -0.057  -0.400   2.500  0.00  0.00     0.323 C 
ATOM     12  O2  <0> d          -0.148   0.780   2.781  0.00  0.00    -0.257 OA
BRANCH  11  13
ATOM     13  O3  <0> d           0.055  -1.320   3.480  0.00  0.00    -0.271 OA
BRANCH  13  14
ATOM     14  C7  <0> d           0.166  -0.878   4.760  0.00  0.00     0.109 A 
ATOM     15  C12 <0> d          -0.990  -0.581   5.510  0.00  0.00     0.100 A 
ATOM     16  C11 <0> d          -0.846  -0.128   6.845  0.00  0.00    -0.004 A 
ATOM     17  N1  <0> d          -2.210  -0.725   4.985  0.00  0.00    -0.257 NA
ATOM     18  C10 <0> d           0.438   0.028   7.391  0.00  0.00     0.014 A 
ATOM     19  C15 <0> d          -2.001   0.163   7.595  0.00  0.00     0.015 A 
ATOM     20  C9  <0> d           1.534  -0.263   6.635  0.00  0.00     0.004 A 
ATOM     21  C8  <0> d           1.399  -0.715   5.325  0.00  0.00     0.040 A 
ATOM     22  C14 <0> d          -3.217   0.005   6.993  0.00  0.00     0.020 A 
ATOM     23  C13 <0> d          -3.288  -0.451   5.678  0.00  0.00     0.117 A 
ENDBRANCH  13  14
ENDBRANCH  11  13
ENDBRANCH   6  11
BRANCH  10  24
ATOM     24  N2  <0> d          -0.524   0.696  -2.985  0.00  0.00    -0.176 NA
BRANCH  24  25
ATOM     25  N3  <0> d          -0.570   0.955  -4.361  0.00  0.00    -0.253 N 
ATOM     26  H16 <0> d          -0.360   0.251  -4.994  0.00  0.00     0.191 HD
BRANCH  25  27
ATOM     27  C20 <0> d          -0.906   2.182  -4.805  0.00  0.00     0.185 C 
ATOM     28  S1  <0> d          -0.962   2.499  -6.486  0.00  0.00    -0.040 SA
ATOM     29  N4  <0> d          -1.198   3.161  -3.925  0.00  0.00    -0.375 N 
ATOM     30  H17 <0> d          -1.167   2.982  -2.972  0.00  0.00     0.158 HD
ATOM     31  H18 <0> d          -1.440   4.044  -4.245  0.00  0.00     0.158 HD
ENDBRANCH  25  27
ENDBRANCH  24  25
ENDBRANCH  10  24
TORSDOF 6
