REMARK  4 active torsions:
REMARK  status: ('A' for Active; 'I' for Inactive)
REMARK    1  A    between atoms: C5_5  and  N1_9 
REMARK    2  A    between atoms: C14_18  and  S2_19 
REMARK    3  A    between atoms: S2_19  and  C15_20 
REMARK    4  A    between atoms: C15_20  and  C17_22 
REMARK       I    between atoms: C17_22  and  N3_24 
REMARK       I    between atoms: N3_24  and  C18_25 
REMARK       I    between atoms: C18_25  and  N4_27 
ROOT
ATOM      1  N1  <0> d          -0.957   3.662   0.031  0.00  0.00    -0.256 N 
ATOM      2  C9  <0> d          -1.027   2.505  -0.652  0.00  0.00     0.268 A 
ATOM      3  O1  <0> d          -2.044   2.203  -1.254  0.00  0.00    -0.267 OA
ATOM      4  C10 <0> d           0.105   1.631  -0.659  0.00  0.00     0.076 A 
ATOM      5  C11 <0> d           0.246   0.334  -1.325  0.00  0.00    -0.026 A 
ATOM      6  C12 <0> d           1.427  -0.301  -1.184  0.00  0.00    -0.008 A 
ATOM      7  S1  <0> d           2.410   0.773  -0.172  0.00  0.00    -0.073 SA
ATOM      8  C13 <0> d           1.227   2.076   0.060  0.00  0.00     0.117 A 
ATOM      9  N2  <0> d           1.236   3.233   0.711  0.00  0.00    -0.216 NA
ATOM     10  C14 <0> d           0.177   4.018   0.706  0.00  0.00     0.178 A 
ATOM     11  C19 <0> d           1.819  -1.627  -1.761  0.00  0.00     0.047 C 
ATOM     12  C20 <0> d           0.547  -2.343  -2.238  0.00  0.00     0.005 C 
ATOM     13  C21 <0> d          -0.290  -1.360  -3.061  0.00  0.00     0.005 C 
ATOM     14  C22 <0> d          -0.881  -0.287  -2.145  0.00  0.00     0.041 C 
ENDROOT
BRANCH  10  15
ATOM     15  S2  <0> d           0.224   5.547   1.581  0.00  0.00    -0.077 SA
BRANCH  15  16
ATOM     16  C15 <0> d           1.906   5.477   2.247  0.00  0.00     0.143 C 
ATOM     17  C16 <0> d           2.014   4.316   3.238  0.00  0.00     0.031 C 
BRANCH  16  18
ATOM     18  C17 <0> d           2.221   6.771   2.951  0.00  0.00     0.239 C 
ATOM     19  O2  <0> d           1.324   7.451   3.400  0.00  0.00    -0.272 OA
ATOM     20  N3  <0> d           3.502   7.172   3.083  0.00  0.00    -0.279 N 
ATOM     21  C18 <0> d           3.784   8.329   3.713  0.00  0.00     0.320 C 
ATOM     22  H14 <0> d           4.316   6.554   2.675  0.00  0.00     0.173 HD
ATOM     23  O3  <0> d           2.884   9.011   4.163  0.00  0.00    -0.247 OA
ATOM     24  N4  <0> d           5.064   8.730   3.845  0.00  0.00    -0.352 N 
ATOM     25  H15 <0> d           5.294   9.674   4.359  0.00  0.00     0.160 HD
ATOM     26  H16 <0> d           5.878   8.112   3.437  0.00  0.00     0.160 HD
ENDBRANCH  16  18
ENDBRANCH  15  16
ENDBRANCH  10  15
BRANCH   1  27
ATOM     27  C5  <0> d          -2.064   4.520   0.046  0.00  0.00     0.045 A 
ATOM     28  C4  <0> d          -3.030   4.392   1.035  0.00  0.00     0.031 A 
ATOM     29  C3  <0> d          -4.117   5.244   1.051  0.00  0.00     0.009 A 
ATOM     30  C2  <0> d          -4.251   6.215   0.076  0.00  0.00    -0.056 A 
ATOM     31  C1  <0> d          -5.442   7.138   0.092  0.00  0.00     0.049 C 
ATOM     32  C7  <0> d          -3.294   6.341  -0.914  0.00  0.00    -0.054 A 
ATOM     33  C6  <0> d          -2.201   5.496  -0.932  0.00  0.00     0.037 A 
ATOM     34  C8  <0> d          -3.443   7.401  -1.975  0.00  0.00     0.049 C 
ENDBRANCH   1  27
TORSDOF 4
