REMARK  6 active torsions:
REMARK  status: ('A' for Active; 'I' for Inactive)
REMARK    1  A    between atoms: N1_2  and  C3_4 
REMARK    2  A    between atoms: C5_6  and  C8_10 
REMARK    3  A    between atoms: C8_10  and  N3_11 
REMARK       I    between atoms: N3_11  and  C9_12 
REMARK       I    between atoms: C9_12  and  N4_14 
REMARK    4  A    between atoms: N4_14  and  C10_15 
REMARK    5  A    between atoms: C10_15  and  C11_16 
REMARK    6  A    between atoms: C11_16  and  O2_26 
ROOT
ATOM      1  N3  <0> d          -1.387  -4.759  -2.860  0.00  0.00    -0.339 N 
ATOM      2  C9  <0> d          -1.606  -6.082  -2.720  0.00  0.00     0.316 C 
ATOM      3  O1  <0> d          -0.666  -6.846  -2.616  0.00  0.00    -0.247 OA
ATOM      4  N4  <0> d          -2.866  -6.557  -2.695  0.00  0.00    -0.340 N 
ATOM      5  H12 <0> d          -2.136  -4.150  -2.943  0.00  0.00     0.164 HD
ATOM      6  H13 <0> d          -3.616  -5.947  -2.778  0.00  0.00     0.164 HD
ENDROOT
BRANCH   1   7
ATOM      7  C8  <0> d          -0.016  -4.243  -2.887  0.00  0.00     0.163 C 
BRANCH   7   8
ATOM      8  C5  <0> d          -0.047  -2.745  -3.051  0.00  0.00    -0.035 A 
ATOM      9  C4  <0> d          -0.087  -1.913  -1.947  0.00  0.00     0.057 A 
ATOM     10  C3  <0> d          -0.114  -0.535  -2.139  0.00  0.00     0.102 A 
ATOM     11  N2  <0> d          -0.107  -0.025  -3.360  0.00  0.00    -0.352 N 
ATOM     12  C7  <0> d          -0.064  -0.794  -4.431  0.00  0.00     0.090 A 
ATOM     13  H27 <0> d          -0.131   0.939  -3.470  0.00  0.00     0.166 HD
ATOM     14  C6  <0> d          -0.035  -2.169  -4.315  0.00  0.00     0.026 A 
BRANCH  10  15
ATOM     15  N1  <0> d          -0.154   0.312  -1.038  0.00  0.00    -0.376 N 
ATOM     16  C1  <0> d          -0.189   1.764  -1.232  0.00  0.00     0.150 C 
ATOM     17  C2  <0> d          -0.161  -0.246   0.317  0.00  0.00     0.150 C 
ENDBRANCH  10  15
ENDBRANCH   7   8
ENDBRANCH   1   7
BRANCH   4  18
ATOM     18  C10 <0> d          -3.105  -7.995  -2.543  0.00  0.00     0.167 C 
BRANCH  18  19
ATOM     19  C11 <0> d          -4.607  -8.252  -2.413  0.00  0.00     0.101 C 
ATOM     20  C16 <0> d          -4.843  -9.725  -2.208  0.00  0.00    -0.016 A 
ATOM     21  C15 <0> d          -5.757 -10.210  -1.299  0.00  0.00    -0.049 A 
ATOM     22  C17 <0> d          -4.101 -10.612  -2.977  0.00  0.00     0.011 A 
ATOM     23  C14 <0> d          -6.591  -9.308  -0.428  0.00  0.00     0.039 C 
ATOM     24  C20 <0> d          -5.931 -11.581  -1.164  0.00  0.00     0.007 A 
ATOM     25  C13 <0> d          -6.604  -7.886  -0.986  0.00  0.00     0.008 C 
ATOM     26  C12 <0> d          -5.155  -7.451  -1.234  0.00  0.00     0.045 C 
ATOM     27  C19 <0> d          -5.194 -12.461  -1.930  0.00  0.00     0.001 A 
ATOM     28  C18 <0> d          -4.274 -11.974  -2.839  0.00  0.00     0.001 A 
BRANCH  19  29
ATOM     29  O2  <0> d          -5.262  -7.832  -3.612  0.00  0.00    -0.383 OA
ATOM     30  H26 <0> d          -4.960  -8.292  -4.407  0.00  0.00     0.211 HD
ENDBRANCH  19  29
ENDBRANCH  18  19
ENDBRANCH   4  18
TORSDOF 6
