REMARK  5 active torsions:
REMARK  status: ('A' for Active; 'I' for Inactive)
REMARK    1  A    between atoms: C6_7  and  N2_11 
REMARK       I    between atoms: N2_11  and  C9_12 
REMARK    2  A    between atoms: C9_12  and  C10_14 
REMARK       I    between atoms: C10_14  and  N3_16 
REMARK    3  A    between atoms: N3_16  and  C11_17 
REMARK    4  A    between atoms: C11_17  and  C12_18 
REMARK    5  A    between atoms: C16_23  and  N5_24 
ROOT
ATOM      1  C10 <0> d           0.104  -8.157   1.348  0.00  0.00     0.309 C 
ATOM      2  O3  <0> d          -0.004  -8.157   2.557  0.00  0.00    -0.262 OA
ATOM      3  N3  <0> d          -0.015  -9.310   0.660  0.00  0.00    -0.349 N 
ATOM      4  H8  <0> d           0.072  -9.309  -0.306  0.00  0.00     0.163 HD
ENDROOT
BRANCH   1   5
ATOM      5  C9  <0> d           0.371  -6.879   0.623  0.00  0.00     0.313 C 
ATOM      6  N2  <0> d           0.491  -5.726   1.311  0.00  0.00    -0.319 N 
ATOM      7  H7  <0> d           0.471  -5.736   2.281  0.00  0.00     0.169 HD
ATOM      8  O2  <0> d           0.480  -6.878  -0.586  0.00  0.00    -0.262 OA
BRANCH   6   9
ATOM      9  C6  <0> d           0.644  -4.517   0.627  0.00  0.00     0.037 A 
ATOM     10  C5  <0> d           0.016  -4.332  -0.603  0.00  0.00     0.032 A 
ATOM     11  C4  <0> d           0.156  -3.155  -1.282  0.00  0.00     0.037 A 
ATOM     12  C3  <0> d           0.934  -2.128  -0.744  0.00  0.00     0.093 A 
ATOM     13  N1  <0> d           1.259  -0.875  -1.165  0.00  0.00    -0.226 NA
ATOM     14  C8  <0> d           1.569  -2.310   0.494  0.00  0.00     0.108 A 
ATOM     15  C2  <0> d           2.026  -0.321  -0.275  0.00  0.00     0.142 A 
ATOM     16  C1  <0> d           2.598   1.070  -0.378  0.00  0.00     0.100 C 
ATOM     17  O1  <0> d           2.241  -1.165   0.746  0.00  0.00    -0.294 OA
ATOM     18  C7  <0> d           1.420  -3.508   1.175  0.00  0.00     0.069 A 
ENDBRANCH   6   9
ENDBRANCH   1   5
BRANCH   3  19
ATOM     19  C11 <0> d          -0.277 -10.563   1.372  0.00  0.00     0.165 C 
BRANCH  19  20
ATOM     20  C12 <0> d          -0.366 -11.694   0.380  0.00  0.00     0.004 A 
ATOM     21  C16 <0> d           0.788 -12.245  -0.166  0.00  0.00     0.111 A 
ATOM     22  N4  <0> d           0.713 -13.243  -1.033  0.00  0.00    -0.352 N 
ATOM     23  C15 <0> d          -0.447 -13.741  -1.417  0.00  0.00     0.089 A 
ATOM     24  H22 <0> d           1.531 -13.615  -1.398  0.00  0.00     0.166 HD
ATOM     25  C14 <0> d          -1.633 -13.238  -0.919  0.00  0.00     0.018 A 
ATOM     26  C13 <0> d          -1.597 -12.195  -0.003  0.00  0.00     0.014 A 
BRANCH  21  27
ATOM     27  N5  <0> d           2.032 -11.748   0.206  0.00  0.00    -0.363 N 
ATOM     28  C20 <0> d           2.705 -10.714  -0.596  0.00  0.00     0.150 C 
ATOM     29  C19 <0> d           4.136 -11.171  -0.879  0.00  0.00     0.187 C 
ATOM     30  O4  <0> d           4.768 -11.532   0.351  0.00  0.00    -0.388 OA
ATOM     31  C18 <0> d           4.150 -12.630   1.026  0.00  0.00     0.187 C 
ATOM     32  C17 <0> d           2.717 -12.244   1.410  0.00  0.00     0.150 C 
ENDBRANCH  21  27
ENDBRANCH  19  20
ENDBRANCH   3  19
TORSDOF 5
