REMARK  5 active torsions:
REMARK  status: ('A' for Active; 'I' for Inactive)
REMARK    1  A    between atoms: C3_3  and  S1_9 
REMARK    2  A    between atoms: S1_9  and  N3_12 
REMARK    3  A    between atoms: N3_12  and  C7_13 
REMARK    4  A    between atoms: C7_13  and  C8_14 
REMARK    5  A    between atoms: C8_14  and  C9_15 
REMARK       I    between atoms: C9_15  and  N4_17 
ROOT
ATOM      1  S1  <0> d          -0.009  -0.263  -2.808  0.00  0.00     0.262 S 
ATOM      2  O1  <0> d          -0.549  -1.324  -3.583  0.00  0.00    -0.200 OA
ATOM      3  O2  <0> d          -0.578   1.039  -2.797  0.00  0.00    -0.200 OA
ENDROOT
BRANCH   1   4
ATOM      4  C3  <0> d           0.008  -0.818  -1.135  0.00  0.00     0.129 A 
ATOM      5  C2  <0> d           0.002  -0.004   0.002  0.00  0.00     0.076 A 
ATOM      6  C1  <0> d          -0.018   1.503   0.010  0.00  0.00     0.074 C 
ATOM      7  N2  <0> d           0.023  -0.777   1.058  0.00  0.00    -0.176 NA
ATOM      8  N1  <0> d           0.034  -2.109   0.625  0.00  0.00    -0.277 N 
ATOM      9  C4  <0> d           0.028  -2.107  -0.725  0.00  0.00     0.051 A 
ATOM     10  C5  <0> d           0.055  -3.295   1.485  0.00  0.00     0.179 C 
ATOM     11  C6  <0> d           0.040  -3.323  -1.615  0.00  0.00     0.072 C 
ENDBRANCH   1   4
BRANCH   1  12
ATOM     12  N3  <0> d           1.569  -0.086  -3.280  0.00  0.00    -0.315 N 
ATOM     13  H10 <0> d           1.914   0.793  -3.500  0.00  0.00     0.172 HD
BRANCH  12  14
ATOM     14  C7  <0> d           2.443  -1.258  -3.367  0.00  0.00     0.141 C 
BRANCH  14  15
ATOM     15  C8  <0> d           3.698  -0.901  -4.165  0.00  0.00     0.123 C 
BRANCH  15  16
ATOM     16  C9  <0> d           4.598  -2.107  -4.254  0.00  0.00     0.218 C 
ATOM     17  O3  <0> d           4.267  -3.150  -3.731  0.00  0.00    -0.274 OA
ATOM     18  N4  <0> d           5.769  -2.026  -4.915  0.00  0.00    -0.365 N 
ATOM     19  C10 <0> d           6.644  -3.198  -5.002  0.00  0.00     0.149 C 
ATOM     20  H15 <0> d           6.034  -1.192  -5.334  0.00  0.00     0.161 HD
ENDBRANCH  15  16
ENDBRANCH  14  15
ENDBRANCH  12  14
ENDBRANCH   1  12
TORSDOF 5
