REMARK  4 active torsions:
REMARK  status: ('A' for Active; 'I' for Inactive)
REMARK    1  A    between atoms: C3_3  and  N3_15 
REMARK    2  A    between atoms: N1_6  and  C6_9 
REMARK    3  A    between atoms: N3_15  and  C12_16 
REMARK    4  A    between atoms: C12_16  and  C13_17 
ROOT
ATOM      1  C1  <0> d          -3.421   3.428  -2.746  0.00  0.00     0.072 C 
ATOM      2  C2  <0> d          -4.883   3.402  -2.383  0.00  0.00     0.060 A 
ATOM      3  C3  <0> d          -5.409   3.437  -1.083  0.00  0.00     0.160 A 
ATOM      4  C4  <0> d          -6.882   3.385  -1.236  0.00  0.00     0.298 A 
ATOM      5  O1  <0> d          -7.707   3.390  -0.343  0.00  0.00    -0.263 OA
ATOM      6  N1  <0> d          -7.128   3.334  -2.561  0.00  0.00    -0.217 N 
ATOM      7  N2  <0> d          -5.913   3.341  -3.251  0.00  0.00    -0.289 N 
ATOM      8  C5  <0> d          -5.777   3.289  -4.709  0.00  0.00     0.178 C 
ENDROOT
BRANCH   3   9
ATOM      9  N3  <0> d          -4.726   3.499   0.053  0.00  0.00    -0.198 NA
BRANCH   9  10
ATOM     10  C12 <0> d          -5.332   3.497   1.147  0.00  0.00     0.003 C 
BRANCH  10  11
ATOM     11  C13 <0> d          -5.964   3.494   2.291  0.00  0.00     0.109 A 
ATOM     12  C20 <0> d          -6.315   2.357   3.054  0.00  0.00     0.266 A 
ATOM     13  N4  <0> d          -6.956   2.759   4.167  0.00  0.00    -0.322 N 
ATOM     14  O2  <0> d          -6.077   1.200   2.753  0.00  0.00    -0.267 OA
ATOM     15  C19 <0> d          -7.045   4.142   4.171  0.00  0.00     0.047 A 
ATOM     16  H16 <0> d          -7.302   2.173   4.859  0.00  0.00     0.169 HD
ATOM     17  C14 <0> d          -6.422   4.618   2.990  0.00  0.00     0.016 A 
ATOM     18  C18 <0> d          -7.594   5.049   5.061  0.00  0.00     0.030 A 
ATOM     19  C15 <0> d          -6.374   6.004   2.737  0.00  0.00     0.015 A 
ATOM     20  C16 <0> d          -6.919   6.874   3.635  0.00  0.00     0.001 A 
ATOM     21  C17 <0> d          -7.530   6.405   4.793  0.00  0.00     0.002 A 
ENDBRANCH  10  11
ENDBRANCH   9  10
ENDBRANCH   3   9
BRANCH   6  22
ATOM     22  C6  <0> d          -8.394   3.276  -3.150  0.00  0.00     0.060 A 
ATOM     23  C11 <0> d          -8.658   2.343  -4.145  0.00  0.00     0.031 A 
ATOM     24  C10 <0> d          -9.910   2.288  -4.724  0.00  0.00     0.002 A 
ATOM     25  C9  <0> d         -10.902   3.160  -4.314  0.00  0.00     0.000 A 
ATOM     26  C8  <0> d         -10.643   4.091  -3.325  0.00  0.00     0.002 A 
ATOM     27  C7  <0> d          -9.394   4.147  -2.737  0.00  0.00     0.031 A 
ENDBRANCH   6  22
TORSDOF 4
