REMARK  6 active torsions:
REMARK  status: ('A' for Active; 'I' for Inactive)
REMARK    1  A    between atoms: C3_3  and  C6_7 
REMARK    2  A    between atoms: C7_10  and  S1_13 
REMARK    3  A    between atoms: S1_13  and  C9_14 
REMARK    4  A    between atoms: C9_14  and  C10_15 
REMARK       I    between atoms: C10_15  and  N4_17 
REMARK    5  A    between atoms: N4_17  and  C11_18 
REMARK    6  A    between atoms: C12_19  and  C15_23 
REMARK       I    between atoms: C15_23  and  N5_25 
ROOT
ATOM      1  C9  <0> d          -4.663   2.495   0.964  0.00  0.00     0.185 C 
ENDROOT
BRANCH   1   2
ATOM      2  S1  <0> d          -3.186   2.049   0.018  0.00  0.00    -0.081 SA
BRANCH   2   3
ATOM      3  C7  <0> d          -2.000   1.976   1.319  0.00  0.00     0.191 A 
ATOM      4  N2  <0> d          -2.227   2.197   2.593  0.00  0.00    -0.122 NA
ATOM      5  N1  <0> d          -1.139   2.066   3.265  0.00  0.00    -0.128 NA
ATOM      6  C6  <0> d          -0.152   1.746   2.461  0.00  0.00     0.166 A 
ATOM      7  N3  <0> d          -0.672   1.675   1.190  0.00  0.00    -0.312 N 
ATOM      8  C8  <0> d           0.046   1.350  -0.044  0.00  0.00     0.160 C 
BRANCH   6   9
ATOM      9  C3  <0> d           1.256   1.508   2.849  0.00  0.00     0.043 A 
ATOM     10  C2  <0> d           2.023   2.276   3.668  0.00  0.00     0.062 A 
ATOM     11  C1  <0> d           1.583   3.544   4.354  0.00  0.00     0.077 C 
ATOM     12  O1  <0> d           3.236   1.713   3.764  0.00  0.00    -0.326 OA
ATOM     13  C5  <0> d           3.302   0.596   3.025  0.00  0.00     0.143 A 
ATOM     14  C4  <0> d           2.116   0.396   2.425  0.00  0.00     0.042 A 
ENDBRANCH   6   9
ENDBRANCH   2   3
ENDBRANCH   1   2
BRANCH   1  15
ATOM     15  C10 <0> d          -5.840   2.617   0.030  0.00  0.00     0.232 C 
ATOM     16  O2  <0> d          -5.694   2.421  -1.158  0.00  0.00    -0.272 OA
ATOM     17  N4  <0> d          -7.054   2.943   0.515  0.00  0.00    -0.320 N 
ATOM     18  H11 <0> d          -7.171   3.100   1.466  0.00  0.00     0.169 HD
BRANCH  17  19
ATOM     19  C11 <0> d          -8.137   3.056  -0.344  0.00  0.00     0.092 A 
ATOM     20  S2  <0> d          -8.177   2.826  -2.059  0.00  0.00    -0.083 SA
ATOM     21  C14 <0> d          -9.901   3.152  -2.363  0.00  0.00     0.053 A 
ATOM     22  C13 <0> d         -10.384   3.425  -1.138  0.00  0.00     0.027 A 
ATOM     23  C12 <0> d          -9.454   3.374  -0.035  0.00  0.00     0.066 A 
BRANCH  23  24
ATOM     24  C15 <0> d          -9.877   3.647   1.342  0.00  0.00     0.252 C 
ATOM     25  O3  <0> d          -9.067   3.599   2.248  0.00  0.00    -0.268 OA
ATOM     26  N5  <0> d         -11.164   3.953   1.603  0.00  0.00    -0.366 N 
ATOM     27  H14 <0> d         -11.809   3.991   0.881  0.00  0.00     0.159 HD
ATOM     28  H15 <0> d         -11.444   4.133   2.514  0.00  0.00     0.159 HD
ENDBRANCH  23  24
ENDBRANCH  17  19
ENDBRANCH   1  15
TORSDOF 6
