REMARK  3 active torsions:
REMARK  status: ('A' for Active; 'I' for Inactive)
REMARK    1  A    between atoms: C2_2  and  N1_3 
REMARK       I    between atoms: N1_3  and  C3_4 
REMARK    2  A    between atoms: C3_4  and  C4_6 
REMARK    3  A    between atoms: N2_8  and  C6_11 
ROOT
ATOM      1  C4  <0> d          -2.971  -2.387   0.051  0.00  0.00     0.172 A 
ATOM      2  C5  <0> d          -3.382  -3.690   0.066  0.00  0.00     0.070 A 
ATOM      3  N2  <0> d          -4.732  -3.673   0.024  0.00  0.00    -0.215 N 
ATOM      4  N3  <0> d          -5.119  -2.326  -0.017  0.00  0.00    -0.060 NA
ATOM      5  N4  <0> d          -4.058  -1.598   0.006  0.00  0.00    -0.124 NA
ATOM      6  C15 <0> d          -2.500  -4.911   0.118  0.00  0.00     0.073 C 
ENDROOT
BRANCH   3   7
ATOM      7  C6  <0> d          -5.582  -4.786   0.021  0.00  0.00     0.089 A 
ATOM      8  C11 <0> d          -6.638  -4.872  -0.911  0.00  0.00     0.095 A 
ATOM      9  C10 <0> d          -7.478  -6.012  -0.896  0.00  0.00    -0.005 A 
ATOM     10  N5  <0> d          -6.849  -3.901  -1.804  0.00  0.00    -0.258 NA
ATOM     11  C9  <0> d          -7.257  -7.028   0.048  0.00  0.00     0.014 A 
ATOM     12  C14 <0> d          -8.528  -6.098  -1.831  0.00  0.00     0.015 A 
ATOM     13  C8  <0> d          -6.233  -6.915   0.939  0.00  0.00     0.003 A 
ATOM     14  C7  <0> d          -5.396  -5.803   0.931  0.00  0.00     0.034 A 
ATOM     15  C13 <0> d          -8.695  -5.065  -2.708  0.00  0.00     0.020 A 
ATOM     16  C12 <0> d          -7.829  -3.975  -2.673  0.00  0.00     0.117 A 
ENDBRANCH   3   7
BRANCH   1  17
ATOM     17  C3  <0> d          -1.570  -1.925   0.084  0.00  0.00     0.274 C 
ATOM     18  N1  <0> d          -1.295  -0.606   0.070  0.00  0.00    -0.356 N 
ATOM     19  H6  <0> d          -2.018   0.040   0.038  0.00  0.00     0.162 HD
ATOM     20  O1  <0> d          -0.664  -2.735   0.124  0.00  0.00    -0.266 OA
BRANCH  18  21
ATOM     21  C2  <0> d           0.096  -0.147   0.103  0.00  0.00     0.118 C 
ATOM     22  C1  <0> d           0.129   1.383   0.079  0.00  0.00     0.026 C 
ENDBRANCH  18  21
ENDBRANCH   1  17
TORSDOF 3
