REMARK  5 active torsions:
REMARK  status: ('A' for Active; 'I' for Inactive)
REMARK    1  A    between atoms: C3_3  and  S1_27 
REMARK    2  A    between atoms: C6_6  and  C7_7 
REMARK    3  A    between atoms: C10_10  and  C11_12 
REMARK    4  A    between atoms: N2_17  and  C15_20 
REMARK    5  A    between atoms: S1_27  and  N3_30 
ROOT
ATOM      1  C7  <0> d          -2.641  -1.883   0.005  0.00  0.00     0.086 A 
ATOM      2  C8  <0> d          -3.995  -1.617   0.013  0.00  0.00     0.041 A 
ATOM      3  C9  <0> d          -4.139  -0.232   0.020  0.00  0.00     0.040 A 
ATOM      4  C10 <0> d          -2.859   0.305   0.017  0.00  0.00     0.077 A 
ATOM      5  O1  <0> d          -1.975  -0.716   0.002  0.00  0.00    -0.310 OA
ENDROOT
BRANCH   4   6
ATOM      6  C11 <0> d          -2.539   1.671   0.022  0.00  0.00     0.060 C 
ATOM      7  C12 <0> d          -1.209   2.073   0.018  0.00  0.00     0.106 A 
ATOM      8  C14 <0> d          -0.014   1.213   0.009  0.00  0.00     0.282 A 
ATOM      9  C13 <0> d          -0.691   3.451   0.026  0.00  0.00     0.276 A 
ATOM     10  N2  <0> d           1.056   2.029   0.003  0.00  0.00    -0.217 N 
ATOM     11  O3  <0> d           0.002  -0.004   0.002  0.00  0.00    -0.265 OA
ATOM     12  N1  <0> d           0.653   3.365   0.013  0.00  0.00    -0.256 N 
ATOM     13  H8  <0> d           1.256   4.124   0.011  0.00  0.00     0.191 HD
ATOM     14  O2  <0> d          -1.351   4.474   0.037  0.00  0.00    -0.266 OA
BRANCH  10  15
ATOM     15  C15 <0> d           2.387   1.599  -0.012  0.00  0.00     0.060 A 
ATOM     16  C20 <0> d           3.419   2.528  -0.017  0.00  0.00     0.033 A 
ATOM     17  C19 <0> d           4.732   2.100  -0.031  0.00  0.00     0.026 A 
ATOM     18  C18 <0> d           5.020   0.747  -0.040  0.00  0.00     0.034 A 
ATOM     19  C17 <0> d           3.994  -0.182  -0.035  0.00  0.00     0.026 A 
ATOM     20 Cl1  <0> d           6.672   0.212  -0.057  0.00  0.00    -0.084 Cl
ATOM     21  C16 <0> d           2.679   0.241  -0.016  0.00  0.00     0.033 A 
ENDBRANCH  10  15
ENDBRANCH   4   6
BRANCH   1  22
ATOM     22  C6  <0> d          -2.027  -3.224  -0.003  0.00  0.00    -0.002 A 
ATOM     23  C1  <0> d          -2.833  -4.366   0.002  0.00  0.00     0.016 A 
ATOM     24  C2  <0> d          -2.252  -5.616  -0.013  0.00  0.00     0.026 A 
ATOM     25  C3  <0> d          -0.874  -5.743  -0.020  0.00  0.00     0.079 A 
ATOM     26  C4  <0> d          -0.069  -4.617  -0.018  0.00  0.00     0.026 A 
ATOM     27  C5  <0> d          -0.636  -3.360  -0.010  0.00  0.00     0.016 A 
BRANCH  25  28
ATOM     28  S1  <0> d          -0.141  -7.345  -0.030  0.00  0.00     0.256 S 
ATOM     29  O4  <0> d          -1.106  -8.230  -0.581  0.00  0.00    -0.201 OA
ATOM     30  O5  <0> d           1.159  -7.193  -0.586  0.00  0.00    -0.201 OA
BRANCH  28  31
ATOM     31  N3  <0> d           0.070  -7.797   1.549  0.00  0.00    -0.324 N 
ATOM     32  H13 <0> d          -0.201  -7.201   2.265  0.00  0.00     0.169 HD
ATOM     33  H14 <0> d           0.465  -8.658   1.758  0.00  0.00     0.169 HD
ENDBRANCH  28  31
ENDBRANCH  25  28
ENDBRANCH   1  22
TORSDOF 5
