REMARK  8 active torsions:
REMARK  status: ('A' for Active; 'I' for Inactive)
REMARK    1  A    between atoms: O1_2  and  C2_3 
REMARK    2  A    between atoms: C5_6  and  C8_10 
REMARK    3  A    between atoms: C7_8  and  O2_9 
REMARK    4  A    between atoms: C8_10  and  C9_11 
REMARK    5  A    between atoms: N1_14  and  C12_18 
REMARK    6  A    between atoms: C12_18  and  C13_19 
REMARK    7  A    between atoms: C13_19  and  N2_20 
REMARK    8  A    between atoms: N2_20  and  S3_21 
ROOT
ATOM      1  C9  <0> d          -6.100  -1.888   0.148  0.00  0.00     0.076 A 
ATOM      2  C10 <0> d          -7.496  -2.350   0.285  0.00  0.00     0.266 A 
ATOM      3  O3  <0> d          -7.778  -3.534   0.312  0.00  0.00    -0.266 OA
ATOM      4  N1  <0> d          -8.424  -1.412   0.376  0.00  0.00    -0.297 N 
ATOM      5  C11 <0> d          -8.107  -0.102   0.346  0.00  0.00     0.148 A 
ATOM      6  S1  <0> d          -9.155   1.248   0.449  0.00  0.00    -0.052 SA
ATOM      7  S2  <0> d          -6.330  -0.115   0.179  0.00  0.00    -0.055 SA
ENDROOT
BRANCH   1   8
ATOM      8  C8  <0> d          -4.957  -2.611   0.035  0.00  0.00     0.036 C 
BRANCH   8   9
ATOM      9  C5  <0> d          -3.653  -1.936   0.087  0.00  0.00    -0.032 A 
ATOM     10  C4  <0> d          -3.578  -0.580   0.428  0.00  0.00     0.014 A 
ATOM     11  C3  <0> d          -2.354   0.050   0.476  0.00  0.00     0.040 A 
ATOM     12  C2  <0> d          -1.193  -0.655   0.187  0.00  0.00     0.101 A 
ATOM     13  C7  <0> d          -1.261  -2.004  -0.159  0.00  0.00     0.099 A 
ATOM     14  C6  <0> d          -2.482  -2.646  -0.205  0.00  0.00     0.051 A 
BRANCH  12  15
ATOM     15  O1  <0> d           0.011  -0.028   0.236  0.00  0.00    -0.353 OA
ATOM     16  C1  <0> d           0.007   1.355   0.598  0.00  0.00     0.210 C 
ENDBRANCH  12  15
BRANCH  13  17
ATOM     17  O2  <0> d          -0.122  -2.690  -0.446  0.00  0.00    -0.358 OA
ATOM     18  H7  <0> d           0.289  -3.110   0.322  0.00  0.00     0.217 HD
ENDBRANCH  13  17
ENDBRANCH   8   9
ENDBRANCH   1   8
BRANCH   4  19
ATOM     19  C12 <0> d          -9.828  -1.806   0.513  0.00  0.00     0.154 C 
BRANCH  19  20
ATOM     20  C13 <0> d         -10.177  -1.945   1.997  0.00  0.00     0.152 C 
BRANCH  20  21
ATOM     21  N2  <0> d         -11.581  -2.339   2.134  0.00  0.00    -0.318 N 
ATOM     22  H13 <0> d         -12.183  -2.259   1.377  0.00  0.00     0.172 HD
BRANCH  21  23
ATOM     23  S3  <0> d         -12.141  -2.920   3.580  0.00  0.00     0.222 S 
ATOM     24  O4  <0> d         -13.510  -3.218   3.345  0.00  0.00    -0.206 OA
ATOM     25  O5  <0> d         -11.226  -3.947   3.936  0.00  0.00    -0.206 OA
ATOM     26  C14 <0> d         -11.993  -1.526   4.731  0.00  0.00     0.185 C 
ENDBRANCH  21  23
ENDBRANCH  20  21
ENDBRANCH  19  20
ENDBRANCH   4  19
TORSDOF 8
