REMARK  4 active torsions:
REMARK  status: ('A' for Active; 'I' for Inactive)
REMARK    1  A    between atoms: C8_9  and  C9_11 
REMARK    2  A    between atoms: C9_11  and  N3_13 
REMARK    3  A    between atoms: N3_13  and  C11_14 
REMARK    4  A    between atoms: C13_16  and  C16_21 
ROOT
ATOM      1  C11 <0> d          -1.048  -7.759   1.919  0.00  0.00     0.128 A 
ATOM      2  C12 <0> d          -1.080  -7.943   3.303  0.00  0.00     0.077 A 
ATOM      3  C13 <0> d          -1.652  -9.098   3.798  0.00  0.00     0.044 A 
ATOM      4  N4  <0> d          -2.150  -9.988   2.950  0.00  0.00    -0.238 NA
ATOM      5  C14 <0> d          -2.104  -9.785   1.649  0.00  0.00     0.124 A 
ATOM      6  N5  <0> d          -1.572  -8.695   1.134  0.00  0.00    -0.217 NA
ATOM      7  C15 <0> d          -2.682 -10.826   0.725  0.00  0.00     0.093 C 
ENDROOT
BRANCH   1   8
ATOM      8  N3  <0> d          -0.484  -6.618   1.373  0.00  0.00    -0.363 N 
ATOM      9  H11 <0> d          -0.470  -6.496   0.411  0.00  0.00     0.162 HD
BRANCH   8  10
ATOM     10  C9  <0> d           0.090  -5.594   2.249  0.00  0.00     0.149 C 
ATOM     11  C10 <0> d           1.534  -5.966   2.591  0.00  0.00     0.040 C 
BRANCH  10  12
ATOM     12  C8  <0> d           0.068  -4.261   1.546  0.00  0.00     0.127 A 
ATOM     13  N1  <0> d           0.055  -3.051   2.169  0.00  0.00    -0.341 N 
ATOM     14  C6  <0> d           0.037  -2.083   1.185  0.00  0.00     0.063 A 
ATOM     15  H27 <0> d           0.058  -2.898   3.127  0.00  0.00     0.167 HD
ATOM     16  C5  <0> d           0.040  -2.774  -0.039  0.00  0.00     0.085 A 
ATOM     17  C7  <0> d           0.023  -0.695   1.195  0.00  0.00     0.038 A 
ATOM     18  C4  <0> d           0.024  -2.052  -1.235  0.00  0.00     0.034 A 
ATOM     19  N2  <0> d           0.059  -4.099   0.255  0.00  0.00    -0.231 NA
ATOM     20  C3  <0> d           0.006  -0.687  -1.206  0.00  0.00     0.009 A 
ATOM     21  C2  <0> d           0.002  -0.004   0.002  0.00  0.00    -0.060 A 
ATOM     22  C1  <0> d          -0.018   1.503   0.010  0.00  0.00     0.048 C 
ENDBRANCH  10  12
ENDBRANCH   8  10
ENDBRANCH   1   8
BRANCH   3  23
ATOM     23  C16 <0> d          -1.711  -9.344   5.284  0.00  0.00     0.041 C 
ATOM     24  C20 <0> d          -0.397  -9.976   5.751  0.00  0.00     0.038 C 
ATOM     25  C19 <0> d          -0.432 -10.149   7.271  0.00  0.00     0.233 C 
ATOM     26  N6  <0> d          -0.603  -8.840   7.912  0.00  0.00    -0.075 N 
ATOM     27  C18 <0> d          -1.894  -8.260   7.525  0.00  0.00     0.233 C 
ATOM     28  H21 <0> d           0.142  -8.225   7.622  0.00  0.00     0.277 HD
ATOM     29  H26 <0> d          -0.572  -8.952   8.915  0.00  0.00     0.277 HD
ATOM     30  C17 <0> d          -1.915  -8.014   6.015  0.00  0.00     0.038 C 
ENDBRANCH   3  23
TORSDOF 4
