REMARK  5 active torsions:
REMARK  status: ('A' for Active; 'I' for Inactive)
REMARK    1  A    between atoms: C3_3  and  S1_8 
REMARK    2  A    between atoms: S1_8  and  N1_11 
REMARK    3  A    between atoms: C12_17  and  N4_22 
REMARK    4  A    between atoms: N4_22  and  C15_23 
REMARK    5  A    between atoms: C15_23  and  C16_24 
ROOT
ATOM      1  N1  <0> d           4.326   2.557   1.556  0.00  0.00    -0.307 N 
ATOM      2  C7  <0> d           3.871   3.749   2.285  0.00  0.00     0.138 C 
ATOM      3  C8  <0> d           5.091   4.459   2.880  0.00  0.00     0.070 C 
ATOM      4  C9  <0> d           5.886   3.469   3.735  0.00  0.00     0.217 C 
ATOM      5  C10 <0> d           6.380   2.318   2.853  0.00  0.00     0.070 C 
ATOM      6  C11 <0> d           5.171   1.581   2.259  0.00  0.00     0.138 C 
ATOM      7  C12 <0> d           7.063   4.170   4.352  0.00  0.00     0.113 C 
ATOM      8  N2  <0> d           7.107   4.534   5.577  0.00  0.00    -0.376 N 
ATOM      9  C13 <0> d           6.026   4.304   6.530  0.00  0.00     0.151 C 
ATOM     10  C14 <0> d           4.729   3.977   5.786  0.00  0.00     0.290 C 
ATOM     11  N3  <0> d           5.015   2.931   4.790  0.00  0.00     0.102 N 
ATOM     12  H17 <0> d           4.161   2.561   4.400  0.00  0.00     0.317 HD
ATOM     13  H24 <0> d           7.904   4.988   5.891  0.00  0.00     0.160 HD
ENDROOT
BRANCH   7  14
ATOM     14  N4  <0> d           8.148   4.434   3.558  0.00  0.00    -0.373 N 
ATOM     15  H18 <0> d           8.143   4.169   2.625  0.00  0.00     0.161 HD
BRANCH  14  16
ATOM     16  C15 <0> d           9.317   5.116   4.120  0.00  0.00     0.159 C 
BRANCH  16  17
ATOM     17  C16 <0> d          10.363   5.285   3.048  0.00  0.00    -0.035 A 
ATOM     18  C21 <0> d          10.368   6.420   2.260  0.00  0.00     0.051 A 
ATOM     19  C20 <0> d          11.332   6.578   1.279  0.00  0.00     0.119 A 
ATOM     20  C19 <0> d          12.285   5.594   1.080  0.00  0.00     0.084 A 
ATOM     21  F2  <0> d          11.340   7.690   0.512  0.00  0.00    -0.206 F 
ATOM     22  C18 <0> d          12.276   4.455   1.867  0.00  0.00     0.119 A 
ATOM     23  C17 <0> d          11.314   4.301   2.851  0.00  0.00     0.051 A 
ATOM     24  F3  <0> d          13.206   3.494   1.675  0.00  0.00    -0.206 F 
ENDBRANCH  16  17
ENDBRANCH  14  16
ENDBRANCH   7  14
BRANCH   1  25
ATOM     25  S1  <0> d           3.891   2.315  -0.023  0.00  0.00     0.260 S 
ATOM     26  O1  <0> d           4.872   1.456  -0.588  0.00  0.00    -0.200 OA
ATOM     27  O2  <0> d           3.597   3.595  -0.564  0.00  0.00    -0.200 OA
BRANCH  25  28
ATOM     28  C3  <0> d           2.377   1.412  -0.013  0.00  0.00     0.079 A 
ATOM     29  C2  <0> d           1.171   2.087   0.002  0.00  0.00     0.028 A 
ATOM     30  C1  <0> d          -0.017   1.380   0.010  0.00  0.00     0.044 A 
ATOM     31  C6  <0> d           0.002  -0.004   0.002  0.00  0.00     0.116 A 
ATOM     32  C5  <0> d           1.211  -0.679  -0.014  0.00  0.00     0.044 A 
ATOM     33  F1  <0> d          -1.158  -0.696   0.009  0.00  0.00    -0.206 F 
ATOM     34  C4  <0> d           2.397   0.030  -0.021  0.00  0.00     0.028 A 
ENDBRANCH  25  28
ENDBRANCH   1  25
TORSDOF 5
