REMARK  7 active torsions:
REMARK  status: ('A' for Active; 'I' for Inactive)
REMARK    1  A    between atoms: C5_5  and  C8_8 
REMARK    2  A    between atoms: C8_8  and  C9_9 
REMARK    3  A    between atoms: C8_8  and  N4_27 
REMARK    4  A    between atoms: C9_9  and  N1_10 
REMARK       I    between atoms: N1_10  and  C10_11 
REMARK    5  A    between atoms: C10_11  and  C11_13 
REMARK       I    between atoms: C11_13  and  N2_15 
REMARK    6  A    between atoms: N2_15  and  C12_16 
REMARK    7  A    between atoms: C17_21  and  C18_22 
REMARK       I    between atoms: C18_22  and  N3_24 
ROOT
ATOM      1  N1  <0> d          -1.211  -6.591   0.150  0.00  0.00    -0.351 N 
ATOM      2  C10 <0> d          -2.308  -7.361   0.288  0.00  0.00     0.309 C 
ATOM      3  O1  <0> d          -3.405  -6.846   0.368  0.00  0.00    -0.262 OA
ATOM      4  H11 <0> d          -0.335  -7.003   0.086  0.00  0.00     0.162 HD
ENDROOT
BRANCH   2   5
ATOM      5  C11 <0> d          -2.176  -8.848   0.342  0.00  0.00     0.314 C 
ATOM      6  O2  <0> d          -1.080  -9.363   0.262  0.00  0.00    -0.262 OA
ATOM      7  N2  <0> d          -3.273  -9.618   0.480  0.00  0.00    -0.318 N 
ATOM      8  H12 <0> d          -4.139  -9.206   0.629  0.00  0.00     0.169 HD
BRANCH   7   9
ATOM      9  C12 <0> d          -3.165 -11.003   0.408  0.00  0.00     0.051 A 
ATOM     10  C17 <0> d          -4.115 -11.818   1.042  0.00  0.00     0.058 A 
ATOM     11  C16 <0> d          -3.998 -13.207   0.957  0.00  0.00     0.019 A 
ATOM     12  C15 <0> d          -2.947 -13.768   0.264  0.00  0.00     0.001 A 
ATOM     13  C14 <0> d          -2.007 -12.960  -0.356  0.00  0.00     0.002 A 
ATOM     14  C13 <0> d          -2.113 -11.585  -0.287  0.00  0.00     0.030 A 
BRANCH  10  15
ATOM     15  C18 <0> d          -5.234 -11.212   1.788  0.00  0.00     0.255 C 
ATOM     16  O3  <0> d          -5.011 -10.407   2.671  0.00  0.00    -0.267 OA
ATOM     17  N3  <0> d          -6.504 -11.550   1.489  0.00  0.00    -0.357 N 
ATOM     18  C19 <0> d          -7.619 -10.874   2.159  0.00  0.00     0.152 C 
ATOM     19  C20 <0> d          -6.771 -12.592   0.495  0.00  0.00     0.152 C 
ENDBRANCH  10  15
ENDBRANCH   7   9
ENDBRANCH   2   5
BRANCH   1  20
ATOM     20  C9  <0> d          -1.341  -5.133   0.096  0.00  0.00     0.161 C 
BRANCH  20  21
ATOM     21  C8  <0> d           0.027  -4.509  -0.188  0.00  0.00     0.237 C 
BRANCH  21  22
ATOM     22  C5  <0> d           0.537  -5.000  -1.518  0.00  0.00    -0.026 A 
ATOM     23  C4  <0> d           1.469  -6.020  -1.567  0.00  0.00     0.010 A 
ATOM     24  C3  <0> d           1.936  -6.471  -2.788  0.00  0.00     0.007 A 
ATOM     25  C2  <0> d           1.470  -5.903  -3.959  0.00  0.00    -0.062 A 
ATOM     26  C1  <0> d           1.979  -6.395  -5.289  0.00  0.00     0.048 C 
ATOM     27  C7  <0> d           0.542  -4.880  -3.909  0.00  0.00     0.007 A 
ATOM     28  C6  <0> d           0.072  -4.431  -2.689  0.00  0.00     0.010 A 
ENDBRANCH  21  22
BRANCH  21  29
ATOM     29  N4  <0> d          -0.100  -3.046  -0.222  0.00  0.00    -0.069 N 
ATOM     30  C21 <0> d          -0.487  -2.557   1.108  0.00  0.00     0.270 C 
ATOM     31  C22 <0> d           1.188  -2.452  -0.606  0.00  0.00     0.270 C 
ATOM     32  H29 <0> d          -0.805  -2.785  -0.894  0.00  0.00     0.279 HD
ENDBRANCH  21  29
ENDBRANCH  20  21
ENDBRANCH   1  20
TORSDOF 7
