REMARK  5 active torsions:
REMARK  status: ('A' for Active; 'I' for Inactive)
REMARK    1  A    between atoms: C4_4  and  N3_14 
REMARK    2  A    between atoms: N1_5  and  C5_7 
REMARK       I    between atoms: N3_14  and  C9_15 
REMARK    3  A    between atoms: C9_15  and  C10_17 
REMARK    4  A    between atoms: C10_17  and  S2_18 
REMARK    5  A    between atoms: S2_18  and  C11_19 
ROOT
ATOM      1  C1  <0> d           4.896  -0.979  -0.050  0.00  0.00     0.072 C 
ATOM      2  C2  <0> d           3.399  -1.151  -0.036  0.00  0.00     0.054 A 
ATOM      3  C3  <0> d           2.457  -0.119  -0.022  0.00  0.00     0.078 A 
ATOM      4  C4  <0> d           1.219  -0.685  -0.013  0.00  0.00     0.128 A 
ATOM      5  N1  <0> d           1.384  -2.027  -0.017  0.00  0.00    -0.248 N 
ATOM      6  N2  <0> d           2.759  -2.292  -0.037  0.00  0.00    -0.175 NA
ENDROOT
BRANCH   4   7
ATOM      7  N3  <0> d           0.002  -0.004   0.002  0.00  0.00    -0.311 N 
ATOM      8  C9  <0> d          -0.016   1.344   0.009  0.00  0.00     0.232 C 
ATOM      9  O3  <0> d           1.026   1.964   0.003  0.00  0.00    -0.272 OA
ATOM     10  H12 <0> d          -0.943  -0.567   0.008  0.00  0.00     0.170 HD
BRANCH   8  11
ATOM     11  C10 <0> d          -1.331   2.079   0.020  0.00  0.00     0.177 C 
BRANCH  11  12
ATOM     12  S2  <0> d          -1.024   3.867   0.028  0.00  0.00    -0.155 SA
BRANCH  12  13
ATOM     13  C11 <0> d          -2.684   4.598   0.040  0.00  0.00     0.047 C 
ATOM     14  C15 <0> d          -2.586   6.129   0.156  0.00  0.00     0.015 C 
ATOM     15  C14 <0> d          -3.246   6.710  -1.111  0.00  0.00     0.001 C 
ATOM     16  C13 <0> d          -4.207   5.593  -1.586  0.00  0.00     0.001 C 
ATOM     17  C12 <0> d          -3.402   4.301  -1.294  0.00  0.00     0.015 C 
ENDBRANCH  12  13
ENDBRANCH  11  12
ENDBRANCH   8  11
ENDBRANCH   4   7
BRANCH   5  18
ATOM     18  C5  <0> d           0.313  -3.027  -0.005  0.00  0.00     0.127 C 
ATOM     19  C8  <0> d           0.464  -3.944   1.243  0.00  0.00     0.167 C 
ATOM     20  S1  <0> d          -0.537  -5.398   0.716  0.00  0.00     0.146 S 
ATOM     21  C7  <0> d          -0.496  -5.152  -1.106  0.00  0.00     0.142 C 
ATOM     22  O1  <0> d          -1.872  -5.231   1.175  0.00  0.00    -0.228 OA
ATOM     23  O2  <0> d           0.170  -6.588   1.038  0.00  0.00    -0.228 OA
ATOM     24  C6  <0> d           0.412  -3.909  -1.261  0.00  0.00     0.043 C 
ENDBRANCH   5  18
TORSDOF 5
