REMARK  5 active torsions:
REMARK  status: ('A' for Active; 'I' for Inactive)
REMARK    1  A    between atoms: C4_4  and  N1_11 
REMARK    2  A    between atoms: C5_5  and  O1_9 
REMARK       I    between atoms: N1_11  and  C9_12 
REMARK    3  A    between atoms: C9_12  and  C10_14 
REMARK    4  A    between atoms: C10_14  and  S1_15 
REMARK    5  A    between atoms: S1_15  and  C11_16 
ROOT
ATOM      1  N1  <0> d           5.802  -2.990  -0.069  0.00  0.00    -0.324 N 
ATOM      2  C9  <0> d           4.592  -2.917   0.520  0.00  0.00     0.232 C 
ATOM      3  O2  <0> d           4.115  -3.900   1.047  0.00  0.00    -0.272 OA
ATOM      4  H10 <0> d           6.156  -2.223  -0.547  0.00  0.00     0.169 HD
ENDROOT
BRANCH   1   5
ATOM      5  C4  <0> d           6.549  -4.173   0.008  0.00  0.00     0.069 A 
ATOM      6  C3  <0> d           5.907  -5.402   0.001  0.00  0.00     0.041 A 
ATOM      7  C2  <0> d           6.646  -6.569   0.077  0.00  0.00    -0.038 A 
ATOM      8  C1  <0> d           5.946  -7.903   0.070  0.00  0.00     0.050 C 
ATOM      9  C7  <0> d           8.026  -6.513   0.159  0.00  0.00     0.042 A 
ATOM     10  C6  <0> d           8.673  -5.290   0.166  0.00  0.00     0.063 A 
ATOM     11 Cl1  <0> d           8.948  -7.981   0.253  0.00  0.00    -0.084 Cl
ATOM     12  C5  <0> d           7.939  -4.117   0.085  0.00  0.00     0.096 A 
BRANCH  12  13
ATOM     13  O1  <0> d           8.574  -2.915   0.086  0.00  0.00    -0.354 OA
ATOM     14  C8  <0> d          10.001  -2.934   0.167  0.00  0.00     0.210 C 
ENDBRANCH  12  13
ENDBRANCH   1   5
BRANCH   2  15
ATOM     15  C10 <0> d           3.833  -1.616   0.524  0.00  0.00     0.185 C 
BRANCH  15  16
ATOM     16  S1  <0> d           2.256  -1.840   1.385  0.00  0.00    -0.081 SA
BRANCH  16  17
ATOM     17  C11 <0> d           1.597  -0.212   1.243  0.00  0.00     0.184 A 
ATOM     18  N4  <0> d           2.177   0.811   0.652  0.00  0.00    -0.215 NA
ATOM     19  C12 <0> d           1.390   1.884   0.736  0.00  0.00     0.257 A 
ATOM     20  N3  <0> d           0.299   1.566   1.380  0.00  0.00    -0.166 NA
ATOM     21  N2  <0> d           0.405   0.208   1.722  0.00  0.00    -0.254 N 
ATOM     22  H1  <0> d          -0.247  -0.323   2.205  0.00  0.00     0.191 HD
ENDBRANCH  16  17
ENDBRANCH  15  16
ENDBRANCH   2  15
TORSDOF 5
