REMARK  3 active torsions:
REMARK  status: ('A' for Active; 'I' for Inactive)
REMARK    1  A    between atoms: C2_2  and  N1_10 
REMARK    2  A    between atoms: N1_10  and  S1_11 
REMARK    3  A    between atoms: S1_11  and  N2_14 
ROOT
ATOM      1  S1  <0> d           2.583   4.333   0.000  0.00  0.00     0.342 S 
ATOM      2  O1  <0> d           3.225   4.061   1.238  0.00  0.00    -0.180 OA
ATOM      3  O2  <0> d           3.202   4.073  -1.252  0.00  0.00    -0.180 OA
ENDROOT
BRANCH   1   4
ATOM      4  N1  <0> d           1.159   3.487   0.009  0.00  0.00    -0.146 NA
BRANCH   4   5
ATOM      5  C2  <0> d           1.177   2.089   0.002  0.00  0.00     0.077 A 
ATOM      6  C1  <0> d          -0.017   1.379   0.010  0.00  0.00     0.078 A 
ATOM      7  C6  <0> d           0.002  -0.004   0.002  0.00  0.00     0.160 A 
ATOM      8  C5  <0> d           1.211  -0.681  -0.014  0.00  0.00     0.193 A 
ATOM      9  F1  <0> d          -1.159  -0.695   0.009  0.00  0.00    -0.203 F 
ATOM     10  C4  <0> d           2.403   0.026  -0.021  0.00  0.00     0.160 A 
ATOM     11  F2  <0> d           1.228  -2.032  -0.022  0.00  0.00    -0.200 F 
ATOM     12  C3  <0> d           2.387   1.409  -0.013  0.00  0.00     0.078 A 
ATOM     13  F3  <0> d           3.581  -0.635  -0.035  0.00  0.00    -0.203 F 
ENDBRANCH   4   5
ENDBRANCH   1   4
BRANCH   1  14
ATOM     14  N2  <0> d           2.196   5.943   0.012  0.00  0.00    -0.289 N 
ATOM     15  C10 <0> d           2.031   6.672   1.279  0.00  0.00     0.164 C 
ATOM     16  C9  <0> d           0.702   7.426   1.241  0.00  0.00     0.253 C 
ATOM     17  N3  <0> d           0.653   8.274   0.043  0.00  0.00    -0.072 N 
ATOM     18  C8  <0> d           0.669   7.436  -1.163  0.00  0.00     0.253 C 
ATOM     19  H7  <0> d           1.454   8.888   0.034  0.00  0.00     0.277 HD
ATOM     20  H12 <0> d          -0.191   8.826   0.057  0.00  0.00     0.277 HD
ATOM     21  C7  <0> d           2.001   6.684  -1.244  0.00  0.00     0.164 C 
ENDBRANCH   1  14
TORSDOF 3
