REMARK  4 active torsions:
REMARK  status: ('A' for Active; 'I' for Inactive)
REMARK    1  A    between atoms: C13_17  and  C14_19 
REMARK       I    between atoms: C14_19  and  N5_21 
REMARK    2  A    between atoms: N5_21  and  C15_22 
REMARK    3  A    between atoms: C15_22  and  C16_23 
REMARK    4  A    between atoms: C16_23  and  N6_27 
ROOT
ATOM      1  C1  <0> d           0.982   3.535   0.012  0.00  0.00     0.093 C 
ATOM      2  C2  <0> d           1.079   2.031   0.003  0.00  0.00     0.127 A 
ATOM      3  N1  <0> d          -0.016   1.323   0.009  0.00  0.00    -0.226 NA
ATOM      4  C3  <0> d           0.002  -0.004   0.002  0.00  0.00     0.114 A 
ATOM      5  C4  <0> d           1.200  -0.738  -0.013  0.00  0.00     0.055 A 
ATOM      6  C5  <0> d           1.081  -2.151  -0.020  0.00  0.00    -0.028 A 
ATOM      7  C6  <0> d          -0.165  -2.677  -0.012  0.00  0.00    -0.008 A 
ATOM      8  S1  <0> d          -1.244  -1.270   0.006  0.00  0.00    -0.073 SA
ATOM      9  C7  <0> d          -0.543  -4.125  -0.017  0.00  0.00     0.047 C 
ATOM     10  C8  <0> d           0.702  -4.952   0.339  0.00  0.00     0.009 C 
ATOM     11  C9  <0> d           1.878  -4.455  -0.505  0.00  0.00    -0.014 C 
ATOM     12  C10 <0> d           2.306  -3.064  -0.036  0.00  0.00     0.045 C 
ATOM     13  C11 <0> d           3.054  -5.422  -0.358  0.00  0.00     0.010 C 
ATOM     14  C12 <0> d           2.430   0.082  -0.019  0.00  0.00     0.169 A 
ATOM     15  N2  <0> d           2.307   1.444  -0.012  0.00  0.00    -0.199 N 
ATOM     16  N3  <0> d           3.615   1.951  -0.022  0.00  0.00    -0.138 NA
ATOM     17  C13 <0> d           4.431   0.913  -0.034  0.00  0.00     0.240 A 
ATOM     18  N4  <0> d           3.711  -0.215  -0.032  0.00  0.00    -0.202 NA
ENDROOT
BRANCH  17  19
ATOM     19  C14 <0> d           5.909   0.986  -0.047  0.00  0.00     0.291 C 
ATOM     20  O1  <0> d           6.568  -0.035  -0.057  0.00  0.00    -0.264 OA
ATOM     21  N5  <0> d           6.525   2.185  -0.047  0.00  0.00    -0.353 N 
ATOM     22  H14 <0> d           5.999   3.001  -0.039  0.00  0.00     0.162 HD
BRANCH  21  23
ATOM     23  C15 <0> d           7.988   2.258  -0.060  0.00  0.00     0.150 C 
BRANCH  23  24
ATOM     24  C16 <0> d           8.426   3.724  -0.057  0.00  0.00     0.253 C 
BRANCH  24  25
ATOM     25  N6  <0> d           9.903   3.780  -0.049  0.00  0.00    -0.077 N 
ATOM     26  C17 <0> d          10.436   3.271  -1.331  0.00  0.00     0.269 C 
ATOM     27  C18 <0> d          10.355   5.170   0.170  0.00  0.00     0.269 C 
ATOM     28  H25 <0> d          10.255   3.191   0.715  0.00  0.00     0.279 HD
ENDBRANCH  24  25
ENDBRANCH  23  24
ENDBRANCH  21  23
ENDBRANCH  17  19
TORSDOF 4
