REMARK  5 active torsions:
REMARK  status: ('A' for Active; 'I' for Inactive)
REMARK    1  A    between atoms: C5_5  and  O3_11 
REMARK    2  A    between atoms: C6_6  and  S1_7 
REMARK    3  A    between atoms: S1_7  and  N1_10 
REMARK    4  A    between atoms: O3_11  and  C7_12 
REMARK    5  A    between atoms: C7_12  and  C8_13 
ROOT
ATOM      1  C1  <0> d          -0.017   1.377   0.010  0.00  0.00     0.047 A 
ATOM      2  C2  <0> d           1.171   2.087   0.002  0.00  0.00     0.014 A 
ATOM      3  C3  <0> d           2.380   1.415  -0.013  0.00  0.00     0.046 A 
ATOM      4  C4  <0> d           2.404   0.033  -0.021  0.00  0.00     0.070 A 
ATOM      5  C5  <0> d           1.213  -0.680  -0.013  0.00  0.00     0.114 A 
ATOM      6  C6  <0> d           0.002  -0.004   0.002  0.00  0.00     0.115 A 
ATOM      7 Cl1  <0> d           3.921  -0.810  -0.041  0.00  0.00    -0.081 Cl
ATOM      8 Br1  <0> d           1.142   3.977   0.012  0.00  0.00    -0.051 Br
ENDROOT
BRANCH   5   9
ATOM      9  O3  <0> d           1.233  -2.040  -0.022  0.00  0.00    -0.339 OA
BRANCH   9  10
ATOM     10  C7  <0> d           1.256  -2.696   1.247  0.00  0.00     0.293 C 
BRANCH  10  11
ATOM     11  C8  <0> d           1.276  -4.211   1.038  0.00  0.00     0.408 C 
ATOM     12  F1  <0> d           2.417  -4.566   0.309  0.00  0.00    -0.169 F 
ATOM     13  F2  <0> d           1.298  -4.854   2.280  0.00  0.00    -0.169 F 
ATOM     14  F3  <0> d           0.133  -4.600   0.332  0.00  0.00    -0.169 F 
ENDBRANCH  10  11
ENDBRANCH   9  10
ENDBRANCH   5   9
BRANCH   6  15
ATOM     15  S1  <0> d          -1.511  -0.906   0.012  0.00  0.00     0.259 S 
ATOM     16  O1  <0> d          -1.391  -1.889   1.031  0.00  0.00    -0.201 OA
ATOM     17  O2  <0> d          -2.558   0.056   0.001  0.00  0.00    -0.201 OA
BRANCH  15  18
ATOM     18  N1  <0> d          -1.604  -1.724  -1.425  0.00  0.00    -0.324 N 
ATOM     19  H3  <0> d          -2.076  -2.570  -1.472  0.00  0.00     0.169 HD
ATOM     20  H4  <0> d          -1.186  -1.356  -2.220  0.00  0.00     0.169 HD
ENDBRANCH  15  18
ENDBRANCH   6  15
TORSDOF 5
