REMARK  3 active torsions:
REMARK  status: ('A' for Active; 'I' for Inactive)
REMARK    1  A    between atoms: C3_3  and  C7_9 
REMARK    2  A    between atoms: N4_19  and  C15_20 
REMARK    3  A    between atoms: C15_20  and  C16_21 
ROOT
ATOM      1  C7  <0> d          -1.940   2.178   4.372  0.00  0.00     0.225 C 
ATOM      2  N3  <0> d          -1.911   1.307   5.553  0.00  0.00    -0.364 N 
ATOM      3  C8  <0> d          -3.119   0.928   6.128  0.00  0.00     0.045 A 
ATOM      4  C9  <0> d          -3.235   0.661   7.481  0.00  0.00     0.030 A 
ATOM      5  C10 <0> d          -4.460   0.291   8.003  0.00  0.00     0.002 A 
ATOM      6  C11 <0> d          -5.572   0.185   7.182  0.00  0.00     0.001 A 
ATOM      7  C12 <0> d          -5.473   0.446   5.831  0.00  0.00     0.019 A 
ATOM      8  C13 <0> d          -4.244   0.818   5.292  0.00  0.00     0.058 A 
ATOM      9  C14 <0> d          -4.084   1.109   3.856  0.00  0.00     0.258 C 
ATOM     10  O1  <0> d          -4.953   0.797   3.064  0.00  0.00    -0.267 OA
ATOM     11  N4  <0> d          -2.959   1.719   3.428  0.00  0.00    -0.320 N 
ATOM     12  H12 <0> d          -1.068   1.002   5.924  0.00  0.00     0.162 HD
ENDROOT
BRANCH   1  13
ATOM     13  C3  <0> d          -2.255   3.588   4.800  0.00  0.00     0.034 A 
ATOM     14  C2  <0> d          -3.453   4.272   4.564  0.00  0.00     0.063 A 
ATOM     15  C1  <0> d          -4.654   3.725   3.837  0.00  0.00     0.073 C 
ATOM     16  N2  <0> d          -3.350   5.468   5.085  0.00  0.00    -0.177 NA
ATOM     17  N1  <0> d          -2.082   5.583   5.669  0.00  0.00    -0.278 N 
ATOM     18  C4  <0> d          -1.432   4.415   5.486  0.00  0.00     0.038 A 
ATOM     19  C5  <0> d          -1.556   6.762   6.362  0.00  0.00     0.179 C 
ATOM     20  C6  <0> d          -0.038   4.090   5.956  0.00  0.00     0.070 C 
ENDBRANCH   1  13
BRANCH  11  21
ATOM     21  C15 <0> d          -2.758   1.932   1.993  0.00  0.00     0.160 C 
BRANCH  21  22
ATOM     22  C16 <0> d          -1.944   0.773   1.415  0.00  0.00     0.139 C 
ATOM     23  O2  <0> d          -0.615   0.752   1.987  0.00  0.00    -0.384 OA
ATOM     24  C19 <0> d           0.185  -0.009   1.057  0.00  0.00     0.168 C 
ATOM     25  C18 <0> d          -0.286   0.450  -0.341  0.00  0.00     0.029 C 
ATOM     26  C17 <0> d          -1.719   0.976  -0.100  0.00  0.00     0.035 C 
ENDBRANCH  21  22
ENDBRANCH  11  21
TORSDOF 3
