REMARK  9 active torsions:
REMARK  status: ('A' for Active; 'I' for Inactive)
REMARK    1  A    between atoms: C2_2  and  C3_3 
REMARK    2  A    between atoms: C3_3  and  C4_4 
REMARK    3  A    between atoms: C4_4  and  C5_5 
REMARK    4  A    between atoms: C5_5  and  C6_6 
REMARK    5  A    between atoms: C5_5  and  N3_24 
REMARK    6  A    between atoms: C7_8  and  C9_11 
REMARK       I    between atoms: C9_11  and  N2_13 
REMARK    7  A    between atoms: N2_13  and  C10_14 
REMARK    8  A    between atoms: C10_14  and  C11_15 
REMARK    9  A    between atoms: C11_15  and  C12_17 
ROOT
ATOM      1  C6  <0> d           1.584  -4.021  -2.473  0.00  0.00     0.176 A 
ATOM      2  N1  <0> d           2.676  -4.674  -2.209  0.00  0.00    -0.219 NA
ATOM      3  C7  <0> d           2.404  -6.006  -2.253  0.00  0.00     0.149 A 
ATOM      4  C8  <0> d           1.084  -6.135  -2.559  0.00  0.00     0.181 A 
ATOM      5  O1  <0> d           0.589  -4.894  -2.687  0.00  0.00    -0.303 OA
ENDROOT
BRANCH   3   6
ATOM      6  C9  <0> d           3.359  -7.104  -2.015  0.00  0.00     0.272 C 
ATOM      7  O2  <0> d           2.987  -8.259  -2.085  0.00  0.00    -0.266 OA
ATOM      8  N2  <0> d           4.644  -6.827  -1.720  0.00  0.00    -0.348 N 
ATOM      9  H12 <0> d           4.941  -5.905  -1.665  0.00  0.00     0.163 HD
BRANCH   8  10
ATOM     10  C10 <0> d           5.593  -7.917  -1.484  0.00  0.00     0.206 C 
BRANCH  10  11
ATOM     11  C11 <0> d           6.952  -7.343  -1.176  0.00  0.00     0.177 C 
ATOM     12  O3  <0> d           7.112  -6.141  -1.156  0.00  0.00    -0.291 OA
BRANCH  11  13
ATOM     13  C12 <0> d           8.085  -8.240  -0.900  0.00  0.00     0.011 A 
ATOM     14  C17 <0> d           9.348  -7.711  -0.614  0.00  0.00     0.016 A 
ATOM     15  C16 <0> d          10.403  -8.557  -0.350  0.00  0.00     0.020 A 
ATOM     16  C15 <0> d          10.217  -9.930  -0.380  0.00  0.00     0.011 A 
ATOM     17  C14 <0> d           8.971 -10.462  -0.668  0.00  0.00     0.020 A 
ATOM     18 Br1  <0> d          11.673 -11.084  -0.024  0.00  0.00    -0.051 Br
ATOM     19  C13 <0> d           7.905  -9.627  -0.927  0.00  0.00     0.016 A 
ENDBRANCH  11  13
ENDBRANCH  10  11
ENDBRANCH   8  10
ENDBRANCH   3   6
BRANCH   1  20
ATOM     20  C5  <0> d           1.455  -2.521  -2.524  0.00  0.00     0.260 C 
BRANCH  20  21
ATOM     21  C4  <0> d           0.739  -2.027  -1.265  0.00  0.00     0.041 C 
BRANCH  21  22
ATOM     22  C3  <0> d           0.718  -0.497  -1.257  0.00  0.00     0.002 C 
BRANCH  22  23
ATOM     23  C2  <0> d           0.002  -0.004   0.002  0.00  0.00    -0.004 C 
ATOM     24  C1  <0> d          -0.019   1.526   0.010  0.00  0.00     0.005 C 
ENDBRANCH  22  23
ENDBRANCH  21  22
ENDBRANCH  20  21
BRANCH  20  25
ATOM     25  N3  <0> d           0.680  -2.136  -3.711  0.00  0.00    -0.068 N 
ATOM     26  H19 <0> d          -0.238  -2.551  -3.662  0.00  0.00     0.275 HD
ATOM     27  H20 <0> d           0.593  -1.131  -3.745  0.00  0.00     0.275 HD
ATOM     28  H21 <0> d           1.152  -2.462  -4.541  0.00  0.00     0.275 HD
ENDBRANCH  20  25
ENDBRANCH   1  20
TORSDOF 9
