REMARK  3 active torsions:
REMARK  status: ('A' for Active; 'I' for Inactive)
REMARK    1  A    between atoms: C2_2  and  C4_4 
REMARK    2  A    between atoms: N1_8  and  C8_11 
REMARK    3  A    between atoms: C8_11  and  C9_12 
ROOT
ATOM      1  C4  <0> d          -1.433  -0.534   0.013  0.00  0.00     0.049 A 
ATOM      2  C5  <0> d          -1.446  -2.071  -0.106  0.00  0.00     0.122 A 
ATOM      3  C6  <0> d          -2.197  -2.321  -1.396  0.00  0.00     0.227 A 
ATOM      4  O1  <0> d          -2.436  -3.411  -1.869  0.00  0.00    -0.273 OA
ATOM      5  N1  <0> d          -2.557  -1.148  -1.930  0.00  0.00    -0.287 N 
ATOM      6  C7  <0> d          -2.179  -0.076  -1.222  0.00  0.00     0.235 A 
ATOM      7  O2  <0> d          -2.400   1.077  -1.522  0.00  0.00    -0.272 OA
ATOM      8  C14 <0> d          -2.162  -0.083   1.280  0.00  0.00     0.026 C 
ENDROOT
BRANCH   5   9
ATOM      9  C8  <0> d          -3.302  -1.044  -3.188  0.00  0.00     0.141 C 
BRANCH   9  10
ATOM     10  C9  <0> d          -4.803  -1.055  -2.893  0.00  0.00     0.030 C 
ATOM     11  C13 <0> d          -5.580  -0.824  -4.191  0.00  0.00     0.238 C 
ATOM     12  N2  <0> d          -7.021  -0.838  -3.912  0.00  0.00    -0.075 N 
ATOM     13  C12 <0> d          -7.420  -2.158  -3.411  0.00  0.00     0.232 C 
ATOM     14  H19 <0> d          -7.529  -0.633  -4.759  0.00  0.00     0.277 HD
ATOM     15  H25 <0> d          -7.234  -0.137  -3.217  0.00  0.00     0.277 HD
ATOM     16  C11 <0> d          -6.714  -2.439  -2.083  0.00  0.00     0.028 C 
ATOM     17  C10 <0> d          -5.198  -2.411  -2.301  0.00  0.00     0.009 C 
ENDBRANCH   9  10
ENDBRANCH   5   9
BRANCH   1  18
ATOM     18  C2  <0> d           0.002  -0.004   0.002  0.00  0.00    -0.005 C 
ATOM     19  C1  <0> d          -0.019   1.526   0.010  0.00  0.00     0.011 C 
ATOM     20  C3  <0> d           0.742  -0.511   1.242  0.00  0.00     0.011 C 
ENDBRANCH   1  18
TORSDOF 3
