REMARK  5 active torsions:
REMARK  status: ('A' for Active; 'I' for Inactive)
REMARK    1  A    between atoms: C7_7  and  N1_8 
REMARK       I    between atoms: N1_8  and  C8_9 
REMARK    2  A    between atoms: C8_9  and  C9_11 
REMARK    3  A    between atoms: C9_11  and  N2_12 
REMARK    4  A    between atoms: C13_17  and  N6_21 
REMARK    5  A    between atoms: N7_24  and  C19_27 
ROOT
ATOM      1  N2  <0> d          -0.246  -0.872   6.018  0.00  0.00    -0.243 N 
ATOM      2  C10 <0> d          -1.386  -1.425   6.521  0.00  0.00     0.163 A 
ATOM      3  C11 <0> d          -0.988  -2.285   7.563  0.00  0.00     0.076 A 
ATOM      4  C12 <0> d           0.419  -2.212   7.646  0.00  0.00     0.158 A 
ATOM      5  N3  <0> d           0.844  -1.386   6.732  0.00  0.00    -0.182 NA
ATOM      6  C13 <0> d          -1.986  -2.992   8.262  0.00  0.00     0.142 A 
ATOM      7  N4  <0> d          -3.253  -2.814   7.905  0.00  0.00    -0.224 NA
ATOM      8  C14 <0> d          -3.578  -1.995   6.920  0.00  0.00     0.237 A 
ATOM      9  N5  <0> d          -2.683  -1.315   6.239  0.00  0.00    -0.222 NA
ENDROOT
BRANCH   1  10
ATOM     10  C9  <0> d          -0.173   0.090   4.915  0.00  0.00     0.256 C 
BRANCH  10  11
ATOM     11  C8  <0> d          -0.044  -0.652   3.609  0.00  0.00     0.242 C 
ATOM     12  N1  <0> d           0.040   0.032   2.451  0.00  0.00    -0.325 N 
ATOM     13  H8  <0> d           0.082   1.001   2.462  0.00  0.00     0.169 HD
ATOM     14  O1  <0> d          -0.017  -1.865   3.601  0.00  0.00    -0.271 OA
BRANCH  12  15
ATOM     15  C7  <0> d           0.067  -0.656   1.233  0.00  0.00     0.040 A 
ATOM     16  C2  <0> d          -0.545  -0.111   0.112  0.00  0.00    -0.035 A 
ATOM     17  C1  <0> d          -1.240   1.224   0.206  0.00  0.00     0.050 C 
ATOM     18  C3  <0> d          -0.512  -0.789  -1.091  0.00  0.00     0.009 A 
ATOM     19  C4  <0> d           0.125  -2.013  -1.178  0.00  0.00     0.001 A 
ATOM     20  C5  <0> d           0.731  -2.562  -0.062  0.00  0.00     0.002 A 
ATOM     21  C6  <0> d           0.702  -1.888   1.143  0.00  0.00     0.030 A 
ENDBRANCH  12  15
ENDBRANCH  10  11
ENDBRANCH   1  10
BRANCH   6  22
ATOM     22  N6  <0> d          -1.655  -3.850   9.292  0.00  0.00    -0.362 N 
ATOM     23  C18 <0> d          -1.272  -5.241   9.013  0.00  0.00     0.144 C 
ATOM     24  C17 <0> d          -2.178  -6.174   9.818  0.00  0.00     0.143 C 
ATOM     25  N7  <0> d          -2.208  -5.714  11.213  0.00  0.00    -0.378 N 
ATOM     26  C16 <0> d          -2.596  -4.324  11.492  0.00  0.00     0.143 C 
ATOM     27  C15 <0> d          -1.685  -3.390  10.688  0.00  0.00     0.144 C 
BRANCH  25  28
ATOM     28  C19 <0> d          -1.873  -6.582  12.255  0.00  0.00     0.030 A 
ATOM     29  C24 <0> d          -1.623  -7.922  11.992  0.00  0.00     0.029 A 
ATOM     30  C23 <0> d          -1.287  -8.776  13.024  0.00  0.00     0.002 A 
ATOM     31  C22 <0> d          -1.211  -8.300  14.320  0.00  0.00     0.000 A 
ATOM     32  C21 <0> d          -1.465  -6.968  14.587  0.00  0.00     0.002 A 
ATOM     33  C20 <0> d          -1.796  -6.107  13.558  0.00  0.00     0.029 A 
ENDBRANCH  25  28
ENDBRANCH   6  22
TORSDOF 5
