REMARK  6 active torsions:
REMARK  status: ('A' for Active; 'I' for Inactive)
REMARK    1  A    between atoms: C2_2  and  N1_4 
REMARK    2  A    between atoms: C5_10  and  S1_11 
REMARK    3  A    between atoms: S1_11  and  C6_12 
REMARK    4  A    between atoms: C6_12  and  C7_13 
REMARK    5  A    between atoms: C6_12  and  C8_15 
REMARK    6  A    between atoms: C7_13  and  N4_14 
ROOT
ATOM      1  C6  <0> d           3.978  -2.923  -0.526  0.00  0.00     0.120 C 
ENDROOT
BRANCH   1   2
ATOM      2  S1  <0> d           2.764  -1.846   0.283  0.00  0.00    -0.078 SA
BRANCH   2   3
ATOM      3  C5  <0> d           1.890  -1.106  -1.056  0.00  0.00     0.193 A 
ATOM      4  N1  <0> d           0.803  -0.269  -0.941  0.00  0.00    -0.272 N 
ATOM      5  C4  <0> d           0.416   0.097  -2.179  0.00  0.00     0.345 A 
ATOM      6  O1  <0> d          -0.511   0.837  -2.454  0.00  0.00    -0.245 OA
ATOM      7  N2  <0> d           1.244  -0.505  -3.058  0.00  0.00    -0.226 N 
ATOM      8  H1  <0> d           1.209  -0.427  -4.025  0.00  0.00     0.194 HD
ATOM      9  N3  <0> d           2.163  -1.262  -2.319  0.00  0.00    -0.145 NA
BRANCH   4  10
ATOM     10  C2  <0> d           0.177   0.155   0.314  0.00  0.00     0.088 C 
ATOM     11  C1  <0> d           0.243   1.680   0.426  0.00  0.00     0.032 C 
ATOM     12  C3  <0> d          -1.286  -0.294   0.332  0.00  0.00     0.032 C 
ENDBRANCH   4  10
ENDBRANCH   2   3
ENDBRANCH   1   2
BRANCH   1  13
ATOM     13  C7  <0> d           5.020  -2.065  -1.247  0.00  0.00     0.250 C 
BRANCH  13  14
ATOM     14  N4  <0> d           5.924  -2.933  -2.013  0.00  0.00    -0.078 N 
ATOM     15  H12 <0> d           6.557  -2.365  -2.555  0.00  0.00     0.274 HD
ATOM     16  H13 <0> d           6.452  -3.513  -1.378  0.00  0.00     0.274 HD
ATOM     17  H16 <0> d           5.384  -3.519  -2.632  0.00  0.00     0.274 HD
ENDBRANCH  13  14
ENDBRANCH   1  13
BRANCH   1  18
ATOM     18  C8  <0> d           4.661  -3.778   0.509  0.00  0.00    -0.000 A 
ATOM     19  S2  <0> d           5.632  -3.274   1.920  0.00  0.00    -0.086 SA
ATOM     20  C11 <0> d           6.019  -4.898   2.553  0.00  0.00     0.051 A 
ATOM     21  C10 <0> d           5.398  -5.704   1.656  0.00  0.00     0.028 A 
ATOM     22 Br1  <0> d           7.036  -5.372   4.075  0.00  0.00    -0.043 Br
ATOM     23  C9  <0> d           4.702  -5.129   0.609  0.00  0.00     0.017 A 
ENDBRANCH   1  18
TORSDOF 6
