REMARK  3 active torsions:
REMARK  status: ('A' for Active; 'I' for Inactive)
REMARK    1  A    between atoms: C2_2  and  N1_3 
REMARK    2  A    between atoms: C6_7  and  C12_14 
REMARK    3  A    between atoms: C14_17  and  N3_19 
ROOT
ATOM      1  N1  <0> d           5.321   1.286   3.502  0.00  0.00    -0.318 N 
ATOM      2  C3  <0> d           3.952   1.427   3.248  0.00  0.00     0.043 A 
ATOM      3  C4  <0> d           3.308   0.542   2.392  0.00  0.00     0.031 A 
ATOM      4  C5  <0> d           1.958   0.678   2.146  0.00  0.00     0.016 A 
ATOM      5  C6  <0> d           1.241   1.711   2.749  0.00  0.00    -0.006 A 
ATOM      6  C7  <0> d           1.889   2.597   3.608  0.00  0.00     0.023 A 
ATOM      7  C8  <0> d           3.238   2.454   3.855  0.00  0.00    -0.030 A 
ATOM      8  C9  <0> d           3.942   3.410   4.782  0.00  0.00     0.050 C 
ATOM      9  C10 <0> d           5.043   2.668   5.542  0.00  0.00     0.108 C 
ATOM     10  C11 <0> d           5.878   1.868   4.579  0.00  0.00     0.224 C 
ATOM     11  O1  <0> d           7.069   1.746   4.777  0.00  0.00    -0.273 OA
ENDROOT
BRANCH   5  12
ATOM     12  C12 <0> d          -0.210   1.862   2.482  0.00  0.00     0.082 A 
ATOM     13  N2  <0> d          -1.030   2.283   3.442  0.00  0.00    -0.223 NA
ATOM     14  C14 <0> d          -2.324   2.422   3.221  0.00  0.00     0.165 A 
ATOM     15  S1  <0> d          -2.450   1.934   1.506  0.00  0.00    -0.055 SA
ATOM     16  C13 <0> d          -0.718   1.572   1.248  0.00  0.00     0.012 A 
ATOM     17  C15 <0> d          -0.013   1.086   0.008  0.00  0.00     0.059 C 
BRANCH  14  18
ATOM     18  N3  <0> d          -3.321   2.842   4.087  0.00  0.00    -0.378 N 
ATOM     19  H13 <0> d          -3.100   3.082   5.001  0.00  0.00     0.158 HD
ATOM     20  H14 <0> d          -4.239   2.897   3.780  0.00  0.00     0.158 HD
ENDBRANCH  14  18
ENDBRANCH   5  12
BRANCH   1  21
ATOM     21  C2  <0> d           6.152   0.498   2.589  0.00  0.00     0.128 C 
ATOM     22  C1  <0> d           6.708   1.408   1.492  0.00  0.00     0.027 C 
ENDBRANCH   1  21
TORSDOF 3
