REMARK  5 active torsions:
REMARK  status: ('A' for Active; 'I' for Inactive)
REMARK    1  A    between atoms: C2_2  and  C3_3 
REMARK    2  A    between atoms: C3_3  and  C5_5 
REMARK    3  A    between atoms: C3_3  and  N2_8 
REMARK    4  A    between atoms: N2_8  and  S2_9 
REMARK    5  A    between atoms: S2_9  and  C6_12 
ROOT
ATOM      1  N2  <0> d           0.629  -2.041  -0.905  0.00  0.00    -0.299 N 
ATOM      2  H11 <0> d           0.187  -2.599  -0.246  0.00  0.00     0.173 HD
ENDROOT
BRANCH   1   3
ATOM      3  C3  <0> d           0.220  -0.645  -1.077  0.00  0.00     0.089 C 
ATOM      4  C4  <0> d           1.446   0.264  -0.963  0.00  0.00     0.047 C 
BRANCH   3   5
ATOM      5  C2  <0> d          -0.792  -0.273   0.008  0.00  0.00     0.034 C 
ATOM      6  C1  <0> d          -1.220   1.185  -0.172  0.00  0.00     0.008 C 
ENDBRANCH   3   5
BRANCH   3   7
ATOM      7  C5  <0> d          -0.411  -0.470  -2.434  0.00  0.00     0.100 C 
ATOM      8  S1  <0> d           0.153   0.637  -3.441  0.00  0.00    -0.063 SA
ATOM      9  N1  <0> d          -1.450  -1.246  -2.799  0.00  0.00    -0.391 N 
ATOM     10  H9  <0> d          -1.792  -1.918  -2.188  0.00  0.00     0.156 HD
ATOM     11  H10 <0> d          -1.856  -1.134  -3.673  0.00  0.00     0.156 HD
ENDBRANCH   3   7
ENDBRANCH   1   3
BRANCH   1  12
ATOM     12  S2  <0> d           1.848  -2.667  -1.835  0.00  0.00     0.262 S 
ATOM     13  O1  <0> d           2.918  -1.732  -1.785  0.00  0.00    -0.200 OA
ATOM     14  O2  <0> d           2.003  -4.024  -1.441  0.00  0.00    -0.200 OA
BRANCH  12  15
ATOM     15  C6  <0> d           1.275  -2.688  -3.500  0.00  0.00     0.115 A 
ATOM     16  C8  <0> d           1.531  -1.751  -4.442  0.00  0.00     0.138 A 
ATOM     17  N4  <0> d           0.916  -2.135  -5.581  0.00  0.00    -0.284 N 
ATOM     18  N3  <0> d           0.253  -3.342  -5.328  0.00  0.00    -0.184 NA
ATOM     19  C9  <0> d           0.934  -1.412  -6.856  0.00  0.00     0.179 C 
ATOM     20  C7  <0> d           0.469  -3.673  -4.081  0.00  0.00     0.165 A 
ENDBRANCH  12  15
ENDBRANCH   1  12
TORSDOF 5
