REMARK  7 active torsions:
REMARK  status: ('A' for Active; 'I' for Inactive)
REMARK    1  A    between atoms: C7_11  and  C8_13 
REMARK    2  A    between atoms: C8_13  and  N3_14 
REMARK    3  A    between atoms: N3_14  and  C9_15 
REMARK    4  A    between atoms: N3_14  and  C16_22 
REMARK    5  A    between atoms: C9_15  and  C10_16 
REMARK    6  A    between atoms: C16_22  and  C17_23 
REMARK    7  A    between atoms: C17_23  and  O2_25 
ROOT
ATOM      1  C8  <0> d           0.078  -3.633   4.309  0.00  0.00     0.313 C 
ENDROOT
BRANCH   1   2
ATOM      2  C7  <0> d          -0.076  -2.810   3.056  0.00  0.00     0.134 A 
ATOM      3  N1  <0> d          -0.045  -1.455   3.140  0.00  0.00    -0.309 N 
ATOM      4  C6  <0> d          -0.179  -0.683   2.045  0.00  0.00     0.260 A 
ATOM      5  H1  <0> d           0.076  -1.035   4.006  0.00  0.00     0.170 HD
ATOM      6  C5  <0> d          -0.357  -1.312   0.770  0.00  0.00     0.075 A 
ATOM      7  O1  <0> d          -0.150   0.532   2.138  0.00  0.00    -0.267 OA
ATOM      8  C2  <0> d          -0.522  -0.708  -0.539  0.00  0.00    -0.031 A 
ATOM      9  C4  <0> d          -0.380  -2.718   0.784  0.00  0.00     0.116 A 
ATOM     10  C1  <0> d          -0.521   0.791  -0.693  0.00  0.00     0.050 C 
ATOM     11  C3  <0> d          -0.671  -1.501  -1.612  0.00  0.00    -0.012 A 
ATOM     12  S1  <0> d          -0.605  -3.144  -0.924  0.00  0.00    -0.074 SA
ATOM     13  C19 <0> d          -0.851  -1.099  -3.053  0.00  0.00     0.057 C 
ATOM     14  N2  <0> d          -0.246  -3.413   1.910  0.00  0.00    -0.225 NA
ENDBRANCH   1   2
BRANCH   1  15
ATOM     15  N3  <0> d           0.012  -5.060   3.969  0.00  0.00    -0.058 N 
ATOM     16  H24 <0> d          -0.843  -5.247   3.467  0.00  0.00     0.280 HD
BRANCH  15  17
ATOM     17  C9  <0> d           0.042  -5.859   5.201  0.00  0.00     0.274 C 
BRANCH  17  18
ATOM     18  C10 <0> d          -1.208  -5.596   6.001  0.00  0.00    -0.033 A 
ATOM     19  C15 <0> d          -2.370  -6.287   5.715  0.00  0.00     0.009 A 
ATOM     20  C14 <0> d          -3.515  -6.049   6.452  0.00  0.00     0.001 A 
ATOM     21  C13 <0> d          -3.501  -5.112   7.468  0.00  0.00     0.000 A 
ATOM     22  C12 <0> d          -2.340  -4.416   7.750  0.00  0.00     0.001 A 
ATOM     23  C11 <0> d          -1.193  -4.658   7.017  0.00  0.00     0.009 A 
ENDBRANCH  17  18
ENDBRANCH  15  17
BRANCH  15  24
ATOM     24  C16 <0> d           1.162  -5.416   3.127  0.00  0.00     0.266 C 
BRANCH  24  25
ATOM     25  C17 <0> d           1.018  -6.864   2.653  0.00  0.00     0.140 C 
ATOM     26  C18 <0> d           2.229  -7.244   1.800  0.00  0.00     0.041 C 
BRANCH  25  27
ATOM     27  O2  <0> d          -0.173  -6.995   1.875  0.00  0.00    -0.394 OA
ATOM     28  H20 <0> d          -0.329  -7.889   1.541  0.00  0.00     0.210 HD
ENDBRANCH  25  27
ENDBRANCH  24  25
ENDBRANCH  15  24
ENDBRANCH   1  15
TORSDOF 7
