REMARK  5 active torsions:
REMARK  status: ('A' for Active; 'I' for Inactive)
REMARK    1  A    between atoms: C5_5  and  S1_9 
REMARK    2  A    between atoms: S1_9  and  C9_10 
REMARK    3  A    between atoms: C9_10  and  C10_11 
REMARK       I    between atoms: C10_11  and  N1_13 
REMARK    4  A    between atoms: C14_17  and  S2_23 
REMARK    5  A    between atoms: S2_23  and  N2_26 
ROOT
ATOM      1  C10 <0> d           0.002  -0.004   0.002  0.00  0.00     0.234 C 
ATOM      2  O1  <0> d          -1.040  -0.625   0.008  0.00  0.00    -0.272 OA
ATOM      3  N1  <0> d          -0.016   1.344   0.009  0.00  0.00    -0.312 N 
ATOM      4  C11 <0> d           1.119   2.161   0.003  0.00  0.00     0.044 A 
ATOM      5  C12 <0> d           2.468   1.802  -0.011  0.00  0.00     0.032 A 
ATOM      6  C13 <0> d           3.446   2.773  -0.016  0.00  0.00     0.027 A 
ATOM      7  C14 <0> d           3.097   4.111  -0.006  0.00  0.00     0.080 A 
ATOM      8  C15 <0> d           1.764   4.475   0.008  0.00  0.00     0.034 A 
ATOM      9  C16 <0> d           0.780   3.504   0.013  0.00  0.00    -0.028 A 
ATOM     10  C17 <0> d          -0.728   3.621   0.027  0.00  0.00     0.066 A 
ATOM     11  C18 <0> d          -1.228   2.167   0.019  0.00  0.00     0.093 A 
ATOM     12  C19 <0> d          -2.051   1.885   1.277  0.00  0.00     0.033 C 
ENDROOT
BRANCH   1  13
ATOM     13  C9  <0> d           1.317  -0.740  -0.014  0.00  0.00     0.182 C 
BRANCH  13  14
ATOM     14  S1  <0> d           1.010  -2.527  -0.021  0.00  0.00    -0.120 SA
BRANCH  14  15
ATOM     15  C5  <0> d           2.623  -3.237  -0.039  0.00  0.00     0.006 A 
ATOM     16  C4  <0> d           3.745  -2.417  -0.051  0.00  0.00     0.019 A 
ATOM     17  C3  <0> d           5.007  -2.976  -0.059  0.00  0.00     0.008 A 
ATOM     18  C2  <0> d           5.155  -4.351  -0.068  0.00  0.00    -0.061 A 
ATOM     19  C1  <0> d           6.535  -4.958  -0.084  0.00  0.00     0.048 C 
ATOM     20  C7  <0> d           4.041  -5.171  -0.062  0.00  0.00     0.014 A 
ATOM     21  C6  <0> d           2.776  -4.618  -0.048  0.00  0.00    -0.045 A 
ATOM     22  C8  <0> d           1.562  -5.512  -0.042  0.00  0.00     0.049 C 
ENDBRANCH  14  15
ENDBRANCH  13  14
ENDBRANCH   1  13
BRANCH   7  23
ATOM     23  S2  <0> d           4.350   5.350  -0.012  0.00  0.00     0.256 S 
ATOM     24  O2  <0> d           3.769   6.519   0.550  0.00  0.00    -0.201 OA
ATOM     25  O3  <0> d           5.520   4.747   0.525  0.00  0.00    -0.201 OA
BRANCH  23  26
ATOM     26  N2  <0> d           4.684   5.702  -1.595  0.00  0.00    -0.324 N 
ATOM     27  H21 <0> d           4.209   5.242  -2.305  0.00  0.00     0.169 HD
ATOM     28  H22 <0> d           5.355   6.368  -1.813  0.00  0.00     0.169 HD
ENDBRANCH  23  26
ENDBRANCH   7  23
TORSDOF 5
