REMARK  4 active torsions:
REMARK  status: ('A' for Active; 'I' for Inactive)
REMARK    1  A    between atoms: C4_4  and  N2_21 
REMARK    2  A    between atoms: C7_7  and  C10_11 
REMARK    3  A    between atoms: C10_11  and  S1_12 
REMARK    4  A    between atoms: S1_12  and  C11_14 
ROOT
ATOM      1  C1  <0> d          -0.017   1.388   0.010  0.00  0.00     0.020 A 
ATOM      2  C2  <0> d           1.159   2.086   0.002  0.00  0.00     0.017 A 
ATOM      3  C3  <0> d           2.361   1.359  -0.013  0.00  0.00     0.019 A 
ATOM      4  C4  <0> d           3.613   2.011  -0.021  0.00  0.00     0.038 A 
ATOM      5  C5  <0> d           4.768   1.257  -0.036  0.00  0.00     0.030 A 
ATOM      6  C6  <0> d           4.706  -0.133  -0.043  0.00  0.00     0.012 A 
ATOM      7  C7  <0> d           3.511  -0.786  -0.036  0.00  0.00    -0.017 A 
ATOM      8  C8  <0> d           2.310  -0.056  -0.020  0.00  0.00     0.076 A 
ATOM      9  N1  <0> d           1.127  -0.679  -0.012  0.00  0.00    -0.260 NA
ATOM     10  C9  <0> d           0.002  -0.004   0.002  0.00  0.00     0.117 A 
ENDROOT
BRANCH   7  11
ATOM     11  C10 <0> d           3.477  -2.292  -0.045  0.00  0.00     0.155 C 
BRANCH  11  12
ATOM     12  S1  <0> d           3.479  -2.908   1.662  0.00  0.00     0.054 S 
ATOM     13  O1  <0> d           2.237  -2.595   2.279  0.00  0.00    -0.252 OA
BRANCH  12  14
ATOM     14  C11 <0> d           3.437  -4.660   1.483  0.00  0.00     0.031 A 
ATOM     15  C16 <0> d           4.617  -5.375   1.402  0.00  0.00     0.022 A 
ATOM     16  C15 <0> d           4.585  -6.750   1.267  0.00  0.00     0.020 A 
ATOM     17  C14 <0> d           3.371  -7.410   1.202  0.00  0.00     0.011 A 
ATOM     18  C13 <0> d           2.190  -6.694   1.278  0.00  0.00     0.020 A 
ATOM     19 Br1  <0> d           3.327  -9.291   1.011  0.00  0.00    -0.051 Br
ATOM     20  C12 <0> d           2.224  -5.319   1.419  0.00  0.00     0.022 A 
ENDBRANCH  12  14
ENDBRANCH  11  12
ENDBRANCH   7  11
BRANCH   4  21
ATOM     21  N2  <0> d           3.682   3.401  -0.015  0.00  0.00    -0.398 N 
ATOM     22  H12 <0> d           2.866   3.927  -0.004  0.00  0.00     0.156 HD
ATOM     23  H13 <0> d           4.544   3.844  -0.020  0.00  0.00     0.156 HD
ENDBRANCH   4  21
TORSDOF 4
