REMARK  4 active torsions:
REMARK  status: ('A' for Active; 'I' for Inactive)
REMARK    1  A    between atoms: C2_2  and  C3_3 
REMARK    2  A    between atoms: N1_8  and  C7_9 
REMARK    3  A    between atoms: C7_9  and  C12_15 
REMARK    4  A    between atoms: C12_15  and  N3_16 
ROOT
ATOM      1  C7  <0> d           2.213   1.713  -0.632  0.00  0.00     0.211 C 
ATOM      2  C8  <0> d           3.404   2.589  -0.181  0.00  0.00     0.075 C 
ATOM      3  C9  <0> d           2.752   3.568   0.827  0.00  0.00     0.274 C 
ATOM      4  N2  <0> d           1.756   2.718   1.530  0.00  0.00     0.086 N 
ATOM      5  C10 <0> d           1.169   1.843   0.492  0.00  0.00     0.315 C 
ATOM      6  C11 <0> d           0.722   3.540   2.172  0.00  0.00     0.310 C 
ENDROOT
BRANCH   1   7
ATOM      7  N1  <0> d           2.636   0.313  -0.776  0.00  0.00     0.110 N 
ATOM      8  C3  <0> d           1.586  -0.491  -1.417  0.00  0.00     0.247 C 
ATOM      9  C4  <0> d           2.042  -1.951  -1.494  0.00  0.00     0.203 C 
ATOM     10  O1  <0> d           3.284  -2.020  -2.200  0.00  0.00    -0.387 OA
ATOM     11  C5  <0> d           4.330  -1.249  -1.602  0.00  0.00     0.198 C 
ATOM     12  C6  <0> d           3.897   0.217  -1.527  0.00  0.00     0.300 C 
BRANCH   8  13
ATOM     13  C2  <0> d           0.299  -0.401  -0.595  0.00  0.00     0.033 C 
ATOM     14  C1  <0> d           0.512  -1.080   0.760  0.00  0.00     0.007 C 
ENDBRANCH   8  13
ENDBRANCH   1   7
BRANCH   1  15
ATOM     15  C12 <0> d           1.640   2.232  -1.952  0.00  0.00     0.273 C 
BRANCH  15  16
ATOM     16  N3  <0> d           0.247   1.784  -2.091  0.00  0.00    -0.077 N 
ATOM     17  H24 <0> d          -0.177   2.245  -2.881  0.00  0.00     0.274 HD
ATOM     18  H25 <0> d           0.228   0.785  -2.234  0.00  0.00     0.274 HD
ATOM     19  H26 <0> d          -0.265   2.013  -1.252  0.00  0.00     0.274 HD
ENDBRANCH  15  16
ENDBRANCH   1  15
TORSDOF 4
