REMARK  9 active torsions:
REMARK  status: ('A' for Active; 'I' for Inactive)
REMARK    1  A    between atoms: C2_2  and  N1_3 
REMARK    2  A    between atoms: N1_3  and  C3_4 
REMARK    3  A    between atoms: N1_3  and  C5_6 
REMARK    4  A    between atoms: C5_6  and  C6_7 
REMARK    5  A    between atoms: C10_11  and  C12_13 
REMARK    6  A    between atoms: C12_13  and  N2_14 
REMARK       I    between atoms: N2_14  and  C13_15 
REMARK       I    between atoms: C13_15  and  N3_17 
REMARK    7  A    between atoms: N3_17  and  C14_18 
REMARK    8  A    between atoms: C14_18  and  C16_20 
REMARK    9  A    between atoms: C16_20  and  N4_21 
ROOT
ATOM      1  N2  <0> d          -4.269  -0.915  -4.523  0.00  0.00    -0.339 N 
ATOM      2  C13 <0> d          -4.913  -0.625  -5.671  0.00  0.00     0.316 C 
ATOM      3  O1  <0> d          -5.101  -1.495  -6.499  0.00  0.00    -0.247 OA
ATOM      4  N3  <0> d          -5.349   0.629  -5.901  0.00  0.00    -0.337 N 
ATOM      5  H20 <0> d          -4.120  -0.220  -3.862  0.00  0.00     0.164 HD
ATOM      6  H21 <0> d          -5.199   1.324  -5.241  0.00  0.00     0.164 HD
ENDROOT
BRANCH   1   7
ATOM      7  C12 <0> d          -3.796  -2.278  -4.273  0.00  0.00     0.162 C 
BRANCH   7   8
ATOM      8  C10 <0> d          -3.115  -2.335  -2.930  0.00  0.00    -0.040 A 
ATOM      9  C9  <0> d          -3.847  -2.629  -1.795  0.00  0.00     0.009 A 
ATOM     10  C8  <0> d          -3.222  -2.681  -0.563  0.00  0.00     0.001 A 
ATOM     11  C7  <0> d          -1.865  -2.440  -0.466  0.00  0.00     0.009 A 
ATOM     12  C6  <0> d          -1.132  -2.147  -1.601  0.00  0.00    -0.032 A 
ATOM     13  C11 <0> d          -1.757  -2.090  -2.832  0.00  0.00     0.017 A 
BRANCH  12  14
ATOM     14  C5  <0> d           0.348  -1.884  -1.495  0.00  0.00     0.273 C 
BRANCH  14  15
ATOM     15  N1  <0> d           0.576  -0.451  -1.269  0.00  0.00    -0.068 N 
ATOM     16  H30 <0> d           0.124   0.081  -1.998  0.00  0.00     0.280 HD
BRANCH  15  17
ATOM     17  C2  <0> d           0.019  -0.066   0.035  0.00  0.00     0.231 C 
ATOM     18  C1  <0> d           0.132   1.450   0.210  0.00  0.00     0.034 C 
ENDBRANCH  15  17
BRANCH  15  19
ATOM     19  C3  <0> d           2.019  -0.176  -1.285  0.00  0.00     0.231 C 
ATOM     20  C4  <0> d           2.573  -0.440  -2.687  0.00  0.00     0.034 C 
ENDBRANCH  15  19
ENDBRANCH  14  15
ENDBRANCH  12  14
ENDBRANCH   7   8
ENDBRANCH   1   7
BRANCH   4  21
ATOM     21  C14 <0> d          -6.049   0.944  -7.149  0.00  0.00     0.100 C 
ATOM     22  C15 <0> d          -7.535   0.613  -6.998  0.00  0.00     0.034 C 
BRANCH  21  23
ATOM     23  C16 <0> d          -5.888   2.433  -7.462  0.00  0.00     0.153 C 
BRANCH  23  24
ATOM     24  N4  <0> d          -4.477   2.727  -7.725  0.00  0.00    -0.350 N 
ATOM     25  C19 <0> d          -3.859   2.682  -8.924  0.00  0.00     0.182 A 
ATOM     26  N5  <0> d          -2.606   3.009  -8.762  0.00  0.00    -0.361 N 
ATOM     27  C18 <0> d          -2.380   3.264  -7.465  0.00  0.00     0.106 A 
ATOM     28  H31 <0> d          -1.942   3.057  -9.467  0.00  0.00     0.166 HD
ATOM     29  C17 <0> d          -3.538   3.093  -6.799  0.00  0.00     0.108 A 
ENDBRANCH  23  24
ENDBRANCH  21  23
ENDBRANCH   4  21
TORSDOF 9
