REMARK  5 active torsions:
REMARK  status: ('A' for Active; 'I' for Inactive)
REMARK    1  A    between atoms: C2_2  and  C3_3 
REMARK    2  A    between atoms: N2_9  and  C7_10 
REMARK    3  A    between atoms: C7_10  and  C8_11 
REMARK    4  A    between atoms: N3_18  and  C17_22 
REMARK    5  A    between atoms: C17_22  and  C18_23 
ROOT
ATOM      1  C8  <0> d          -2.881   1.308  -3.107  0.00  0.00    -0.032 A 
ATOM      2  C9  <0> d          -2.002   1.679  -4.108  0.00  0.00     0.011 A 
ATOM      3  C10 <0> d          -2.470   2.302  -5.249  0.00  0.00     0.038 A 
ATOM      4  C11 <0> d          -3.829   2.549  -5.387  0.00  0.00     0.076 A 
ATOM      5  C12 <0> d          -4.705   2.163  -4.392  0.00  0.00     0.001 A 
ATOM      6  C13 <0> d          -4.237   1.546  -3.249  0.00  0.00     0.020 A 
ATOM      7  C14 <0> d          -6.193   2.394  -4.574  0.00  0.00     0.276 C 
ATOM      8  N3  <0> d          -6.456   3.837  -4.525  0.00  0.00    -0.061 N 
ATOM      9  C15 <0> d          -6.255   4.455  -5.831  0.00  0.00     0.262 C 
ATOM     10  C16 <0> d          -4.811   4.504  -6.274  0.00  0.00     0.203 C 
ATOM     11  O2  <0> d          -4.300   3.183  -6.496  0.00  0.00    -0.349 OA
ATOM     12  H31 <0> d          -5.832   4.264  -3.857  0.00  0.00     0.280 HD
ENDROOT
BRANCH   1  13
ATOM     13  C7  <0> d          -2.363   0.636  -1.861  0.00  0.00     0.274 C 
BRANCH  13  14
ATOM     14  N2  <0> d          -2.349  -0.819  -2.059  0.00  0.00    -0.053 N 
ATOM     15  C3  <0> d          -1.704  -1.466  -0.909  0.00  0.00     0.279 C 
ATOM     16  C4  <0> d          -1.866  -2.956  -0.999  0.00  0.00     0.248 C 
ATOM     17  O1  <0> d          -1.134  -3.662  -0.339  0.00  0.00    -0.271 OA
ATOM     18  N1  <0> d          -2.787  -3.537  -1.777  0.00  0.00    -0.358 N 
ATOM     19  C5  <0> d          -3.695  -2.771  -2.628  0.00  0.00     0.150 C 
ATOM     20  H8  <0> d          -2.854  -4.505  -1.777  0.00  0.00     0.162 HD
ATOM     21  C6  <0> d          -3.730  -1.312  -2.170  0.00  0.00     0.256 C 
ATOM     22  H30 <0> d          -1.840  -1.043  -2.901  0.00  0.00     0.281 HD
BRANCH  15  23
ATOM     23  C2  <0> d          -0.214  -1.117  -0.902  0.00  0.00     0.038 C 
ATOM     24  C1  <0> d           0.424  -1.578  -2.214  0.00  0.00     0.007 C 
ENDBRANCH  15  23
ENDBRANCH  13  14
ENDBRANCH   1  13
BRANCH   8  25
ATOM     25  C17 <0> d          -7.843   4.058  -4.095  0.00  0.00     0.285 C 
BRANCH  25  26
ATOM     26  C18 <0> d          -8.790   3.263  -4.997  0.00  0.00     0.255 A 
ATOM     27  N5  <0> d          -8.538   3.589  -6.407  0.00  0.00    -0.264 NA
ATOM     28  C20 <0> d          -8.183   2.494  -6.993  0.00  0.00     0.044 A 
ATOM     29  C19 <0> d          -8.178   1.388  -6.023  0.00  0.00     0.139 A 
ATOM     30  C21 <0> d          -7.827   2.369  -8.453  0.00  0.00     0.071 C 
ATOM     31  N4  <0> d          -8.529   1.824  -4.861  0.00  0.00    -0.271 NA
ENDBRANCH  25  26
ENDBRANCH   8  25
TORSDOF 5
