REMARK  4 active torsions:
REMARK  status: ('A' for Active; 'I' for Inactive)
REMARK    1  A    between atoms: C6_6  and  C8_8 
REMARK       I    between atoms: C8_8  and  N1_10 
REMARK    2  A    between atoms: C10_12  and  C17_20 
REMARK       I    between atoms: C17_20  and  N3_22 
REMARK    3  A    between atoms: N3_22  and  C18_23 
REMARK    4  A    between atoms: C18_23  and  C20_25 
ROOT
ATOM      1  C8  <0> d           0.150  -2.899   2.743  0.00  0.00     0.253 C 
ATOM      2  O1  <0> d           0.284  -2.395   3.841  0.00  0.00    -0.267 OA
ATOM      3  N1  <0> d           0.031  -4.237   2.625  0.00  0.00    -0.346 N 
ATOM      4  C9  <0> d          -0.008  -5.039   1.380  0.00  0.00     0.141 C 
ATOM      5  C10 <0> d           0.819  -6.304   1.705  0.00  0.00     0.106 C 
ATOM      6  C11 <0> d           0.758  -6.429   3.236  0.00  0.00    -0.007 C 
ATOM      7  C12 <0> d          -0.085  -5.237   3.712  0.00  0.00     0.136 C 
ATOM      8  C13 <0> d           2.161  -6.345   3.829  0.00  0.00     0.039 C 
ATOM      9  C14 <0> d           2.081  -6.529   5.347  0.00  0.00     0.233 C 
ATOM     10  N2  <0> d           1.476  -7.832   5.652  0.00  0.00    -0.075 N 
ATOM     11  C15 <0> d           0.094  -7.870   5.160  0.00  0.00     0.233 C 
ATOM     12  C16 <0> d           0.090  -7.742   3.634  0.00  0.00     0.039 C 
ATOM     13  H19 <0> d           2.011  -8.562   5.207  0.00  0.00     0.277 HD
ATOM     14  H34 <0> d           1.480  -7.977   6.651  0.00  0.00     0.277 HD
ENDROOT
BRANCH   5  15
ATOM     15  C17 <0> d           2.244  -6.132   1.246  0.00  0.00     0.224 C 
ATOM     16  O2  <0> d           2.744  -5.027   1.224  0.00  0.00    -0.273 OA
ATOM     17  N3  <0> d           2.961  -7.205   0.860  0.00  0.00    -0.349 N 
ATOM     18  H24 <0> d           2.561  -8.088   0.878  0.00  0.00     0.163 HD
BRANCH  17  19
ATOM     19  C18 <0> d           4.347  -7.038   0.414  0.00  0.00     0.150 C 
ATOM     20  C19 <0> d           4.364  -6.676  -1.073  0.00  0.00     0.040 C 
BRANCH  19  21
ATOM     21  C20 <0> d           5.102  -8.325   0.626  0.00  0.00     0.127 A 
ATOM     22  N4  <0> d           4.560  -9.507   0.677  0.00  0.00    -0.231 NA
ATOM     23  C21 <0> d           5.523 -10.442   0.880  0.00  0.00     0.085 A 
ATOM     24  C22 <0> d           5.504 -11.833   1.012  0.00  0.00     0.034 A 
ATOM     25  C26 <0> d           6.748  -9.758   0.956  0.00  0.00     0.063 A 
ATOM     26  C23 <0> d           6.671 -12.514   1.213  0.00  0.00     0.009 A 
ATOM     27  C24 <0> d           7.881 -11.839   1.288  0.00  0.00    -0.060 A 
ATOM     28  C25 <0> d           7.924 -10.467   1.161  0.00  0.00     0.038 A 
ATOM     29  C27 <0> d           9.156 -12.611   1.510  0.00  0.00     0.048 C 
ATOM     30  N5  <0> d           6.449  -8.421   0.786  0.00  0.00    -0.341 N 
ATOM     31  H3  <0> d           7.082  -7.686   0.783  0.00  0.00     0.167 HD
ENDBRANCH  19  21
ENDBRANCH  17  19
ENDBRANCH   5  15
BRANCH   1  32
ATOM     32  C6  <0> d           0.119  -2.045   1.536  0.00  0.00     0.032 A 
ATOM     33  C5  <0> d           0.665  -0.762   1.572  0.00  0.00     0.017 A 
ATOM     34  C4  <0> d           0.633   0.030   0.442  0.00  0.00     0.002 A 
ATOM     35  C3  <0> d           0.062  -0.447  -0.724  0.00  0.00     0.007 A 
ATOM     36  C2  <0> d          -0.481  -1.719  -0.766  0.00  0.00    -0.061 A 
ATOM     37  C1  <0> d          -1.102  -2.229  -2.041  0.00  0.00     0.048 C 
ATOM     38  C7  <0> d          -0.461  -2.518   0.357  0.00  0.00     0.023 A 
ENDBRANCH   1  32
TORSDOF 4
