REMARK  4 active torsions:
REMARK  status: ('A' for Active; 'I' for Inactive)
REMARK    1  A    between atoms: C2_2  and  O1_3 
REMARK    2  A    between atoms: O1_3  and  C3_4 
REMARK    3  A    between atoms: N1_7  and  C8_10 
REMARK    4  A    between atoms: C16_19  and  O3_20 
ROOT
ATOM      1  C8  <0> d           0.938  -5.679  -3.216  0.00  0.00     0.245 C 
ATOM      2  C9  <0> d          -0.285  -6.136  -4.022  0.00  0.00     0.212 C 
ATOM      3  O2  <0> d          -0.236  -7.558  -4.147  0.00  0.00    -0.348 OA
ATOM      4  C10 <0> d           0.929  -8.119  -4.561  0.00  0.00     0.077 A 
ATOM      5  C11 <0> d           0.905  -9.426  -5.037  0.00  0.00     0.037 A 
ATOM      6  C12 <0> d           2.069 -10.033  -5.462  0.00  0.00     0.003 A 
ATOM      7  C13 <0> d           3.265  -9.340  -5.415  0.00  0.00     0.001 A 
ATOM      8  C14 <0> d           3.293  -8.042  -4.946  0.00  0.00     0.012 A 
ATOM      9  C15 <0> d           2.127  -7.427  -4.520  0.00  0.00     0.006 A 
ATOM     10  C16 <0> d           2.196  -6.005  -4.023  0.00  0.00     0.187 C 
ENDROOT
BRANCH   1  11
ATOM     11  N1  <0> d           0.862  -4.231  -2.979  0.00  0.00    -0.062 N 
ATOM     12  C5  <0> d          -0.354  -3.925  -2.216  0.00  0.00     0.238 C 
ATOM     13  C4  <0> d          -0.479  -2.410  -2.036  0.00  0.00     0.059 C 
ATOM     14  C3  <0> d           0.746  -1.888  -1.280  0.00  0.00     0.124 C 
ATOM     15  C7  <0> d           2.012  -2.279  -2.047  0.00  0.00     0.059 C 
ATOM     16  C6  <0> d           2.045  -3.798  -2.226  0.00  0.00     0.238 C 
ATOM     17  H24 <0> d           0.833  -3.749  -3.865  0.00  0.00     0.280 HD
BRANCH  14  18
ATOM     18  O1  <0> d           0.671  -0.465  -1.174  0.00  0.00    -0.386 OA
BRANCH  18  19
ATOM     19  C2  <0> d           0.002  -0.004   0.002  0.00  0.00     0.163 C 
ATOM     20  C1  <0> d          -0.019   1.526   0.010  0.00  0.00     0.033 C 
ENDBRANCH  18  19
ENDBRANCH  14  18
ENDBRANCH   1  11
BRANCH  10  21
ATOM     21  O3  <0> d           2.289  -5.116  -5.138  0.00  0.00    -0.389 OA
ATOM     22  H23 <0> d           3.065  -5.265  -5.696  0.00  0.00     0.210 HD
ENDBRANCH  10  21
TORSDOF 4
