REMARK  6 active torsions:
REMARK  status: ('A' for Active; 'I' for Inactive)
REMARK    1  A    between atoms: S1_2  and  N1_5 
REMARK    2  A    between atoms: N1_5  and  C2_6 
REMARK    3  A    between atoms: C2_6  and  C3_7 
REMARK    4  A    between atoms: C3_7  and  C4_8 
REMARK    5  A    between atoms: C4_8  and  N2_9 
REMARK    6  A    between atoms: C5_10  and  C6_11 
ROOT
ATOM      1  C6  <0> d           6.649  -1.814  -5.444  0.00  0.00     0.048 A 
ATOM      2  C7  <0> d           5.847  -2.704  -6.170  0.00  0.00     0.032 A 
ATOM      3  C8  <0> d           6.432  -3.405  -7.232  0.00  0.00    -0.008 A 
ATOM      4  C9  <0> d           5.688  -4.315  -8.006  0.00  0.00     0.014 A 
ATOM      5  C10 <0> d           6.294  -4.975  -9.030  0.00  0.00     0.001 A 
ATOM      6  C11 <0> d           7.637  -4.772  -9.333  0.00  0.00     0.002 A 
ATOM      7  C12 <0> d           8.408  -3.905  -8.621  0.00  0.00     0.030 A 
ATOM      8  C13 <0> d           7.844  -3.189  -7.550  0.00  0.00     0.045 A 
ATOM      9  N3  <0> d           8.578  -2.332  -6.836  0.00  0.00    -0.322 N 
ATOM     10  C14 <0> d           8.060  -1.646  -5.827  0.00  0.00     0.257 A 
ATOM     11  O3  <0> d           8.765  -0.867  -5.201  0.00  0.00    -0.267 OA
ATOM     12  H18 <0> d           9.512  -2.204  -7.064  0.00  0.00     0.169 HD
ENDROOT
BRANCH   1  13
ATOM     13  C5  <0> d           6.112  -1.088  -4.371  0.00  0.00     0.100 C 
ATOM     14  N2  <0> d           4.828  -1.247  -4.031  0.00  0.00    -0.398 N 
ATOM     15  H11 <0> d           4.268  -1.865  -4.526  0.00  0.00     0.158 HD
BRANCH  14  16
ATOM     16  C4  <0> d           4.268  -0.488  -2.910  0.00  0.00     0.120 C 
BRANCH  16  17
ATOM     17  C3  <0> d           2.792  -0.854  -2.733  0.00  0.00     0.040 C 
BRANCH  17  18
ATOM     18  C2  <0> d           2.207  -0.061  -1.563  0.00  0.00     0.133 C 
BRANCH  18  19
ATOM     19  N1  <0> d           0.795  -0.411  -1.394  0.00  0.00    -0.320 N 
ATOM     20  H4  <0> d           0.324  -0.881  -2.099  0.00  0.00     0.172 HD
BRANCH  19  21
ATOM     21  S1  <0> d           0.002  -0.004   0.002  0.00  0.00     0.222 S 
ATOM     22  C1  <0> d          -0.022   1.810   0.012  0.00  0.00     0.185 C 
ATOM     23  O1  <0> d           0.835  -0.488   1.046  0.00  0.00    -0.206 OA
ATOM     24  O2  <0> d          -1.315  -0.510  -0.168  0.00  0.00    -0.206 OA
ENDBRANCH  19  21
ENDBRANCH  18  19
ENDBRANCH  17  18
ENDBRANCH  16  17
ENDBRANCH  14  16
ENDBRANCH   1  13
TORSDOF 6
