REMARK  4 active torsions:
REMARK  status: ('A' for Active; 'I' for Inactive)
REMARK    1  A    between atoms: N3_9  and  C7_12 
REMARK    2  A    between atoms: C7_12  and  C8_13 
REMARK       I    between atoms: C8_13  and  N5_15 
REMARK    3  A    between atoms: N5_15  and  C9_16 
REMARK    4  A    between atoms: C12_19  and  S1_23 
ROOT
ATOM      1  C8  <0> d          -1.380  -4.236  -4.340  0.00  0.00     0.240 C 
ATOM      2  O2  <0> d          -2.307  -3.701  -3.769  0.00  0.00    -0.271 OA
ATOM      3  N5  <0> d          -1.618  -5.170  -5.282  0.00  0.00    -0.326 N 
ATOM      4  H8  <0> d          -0.881  -5.550  -5.785  0.00  0.00     0.169 HD
ENDROOT
BRANCH   1   5
ATOM      5  C7  <0> d           0.037  -3.857  -3.996  0.00  0.00     0.236 C 
BRANCH   5   6
ATOM      6  N3  <0> d           0.028  -2.829  -2.951  0.00  0.00    -0.299 N 
ATOM      7  C5  <0> d           0.048  -3.193  -1.648  0.00  0.00     0.264 A 
ATOM      8  C3  <0> d           0.037  -2.125  -0.648  0.00  0.00     0.099 A 
ATOM      9  O1  <0> d           0.073  -4.366  -1.319  0.00  0.00    -0.267 OA
ATOM     10  C2  <0> d           0.007  -0.797  -1.100  0.00  0.00     0.164 A 
ATOM     11  C4  <0> d           0.051  -2.088   0.759  0.00  0.00     0.160 A 
ATOM     12  N1  <0> d           0.004  -0.010   0.008  0.00  0.00    -0.256 N 
ATOM     13  N4  <0> d          -0.010  -0.555  -2.420  0.00  0.00    -0.224 NA
ATOM     14  C1  <0> d          -0.024   1.454   0.020  0.00  0.00     0.182 C 
ATOM     15  N2  <0> d           0.036  -0.839   1.136  0.00  0.00    -0.182 NA
ATOM     16  C6  <0> d          -0.000  -1.517  -3.295  0.00  0.00     0.215 A 
ENDBRANCH   5   6
ENDBRANCH   1   5
BRANCH   3  17
ATOM     17  C9  <0> d          -2.928  -5.593  -5.533  0.00  0.00     0.040 A 
ATOM     18  C14 <0> d          -3.979  -4.690  -5.442  0.00  0.00     0.073 A 
ATOM     19  C13 <0> d          -5.273  -5.108  -5.697  0.00  0.00     0.143 A 
ATOM     20  C12 <0> d          -5.522  -6.428  -6.032  0.00  0.00     0.135 A 
ATOM     21  F1  <0> d          -6.295  -4.228  -5.614  0.00  0.00    -0.204 F 
ATOM     22  C11 <0> d          -4.476  -7.332  -6.117  0.00  0.00     0.143 A 
ATOM     23  C10 <0> d          -3.179  -6.916  -5.869  0.00  0.00     0.073 A 
ATOM     24  F2  <0> d          -4.721  -8.619  -6.444  0.00  0.00    -0.204 F 
BRANCH  20  25
ATOM     25  S1  <0> d          -7.171  -6.960  -6.349  0.00  0.00     0.177 S 
ATOM     26  O3  <0> d          -7.852  -5.790  -6.782  0.00  0.00    -0.223 OA
ATOM     27  O4  <0> d          -7.032  -8.078  -7.215  0.00  0.00    -0.223 OA
ATOM     28  C15 <0> d          -7.808  -7.493  -4.737  0.00  0.00     0.167 C 
ENDBRANCH  20  25
ENDBRANCH   3  17
TORSDOF 4
