REMARK  5 active torsions:
REMARK  status: ('A' for Active; 'I' for Inactive)
REMARK    1  A    between atoms: N1_8  and  C9_13 
REMARK    2  A    between atoms: C8_11  and  N2_12 
REMARK    3  A    between atoms: C9_13  and  C10_14 
REMARK    4  A    between atoms: C10_14  and  C11_15 
REMARK    5  A    between atoms: C11_15  and  C12_16 
ROOT
ATOM      1  C12 <0> d           4.737  -4.298  -2.949  0.00  0.00     0.124 C 
ATOM      2  C13 <0> d           5.117  -5.720  -2.960  0.00  0.00     0.059 C 
ATOM      3  N3  <0> d           5.411  -6.817  -2.968  0.00  0.00    -0.197 NA
ENDROOT
BRANCH   1   4
ATOM      4  C11 <0> d           4.619  -3.812  -1.503  0.00  0.00     0.016 C 
BRANCH   4   5
ATOM      5  C10 <0> d           4.223  -2.335  -1.492  0.00  0.00     0.021 C 
BRANCH   5   6
ATOM      6  C9  <0> d           4.105  -1.849  -0.046  0.00  0.00     0.132 C 
BRANCH   6   7
ATOM      7  N1  <0> d           3.726  -0.434  -0.036  0.00  0.00    -0.315 N 
ATOM      8  C4  <0> d           2.405   0.018  -0.021  0.00  0.00     0.047 A 
ATOM      9  C3  <0> d           2.373   1.407  -0.013  0.00  0.00     0.011 A 
ATOM     10  C5  <0> d           1.203  -0.685  -0.013  0.00  0.00     0.049 A 
ATOM     11  C2  <0> d           1.175   2.084   0.002  0.00  0.00     0.013 A 
ATOM     12  C8  <0> d           3.813   1.866  -0.024  0.00  0.00     0.344 A 
ATOM     13  C1  <0> d          -0.017   1.379   0.010  0.00  0.00     0.020 A 
ATOM     14  C6  <0> d           0.002  -0.004   0.002  0.00  0.00     0.013 A 
ATOM     15 Br1  <0> d          -1.625  -0.967   0.013  0.00  0.00    -0.051 Br
ATOM     16  C7  <0> d           4.609   0.578  -0.039  0.00  0.00     0.262 A 
ATOM     17  O1  <0> d           5.818   0.479  -0.051  0.00  0.00    -0.270 OA
BRANCH  12  18
ATOM     18  N2  <0> d           4.114   2.644   1.185  0.00  0.00     0.096 N 
ATOM     19  H5  <0> d           5.075   2.954   1.185  0.00  0.00     0.314 HD
ATOM     20  H6  <0> d           3.482   3.424   1.279  0.00  0.00     0.314 HD
ENDBRANCH  12  18
ENDBRANCH   6   7
ENDBRANCH   5   6
ENDBRANCH   4   5
ENDBRANCH   1   4
TORSDOF 5
