REMARK  3 active torsions:
REMARK  status: ('A' for Active; 'I' for Inactive)
REMARK    1  A    between atoms: C9_10  and  C11_13 
REMARK    2  A    between atoms: C10_11  and  N1_12 
REMARK    3  A    between atoms: C11_13  and  N2_14 
ROOT
ATOM      1  C1  <0> d          -0.736   1.511   0.468  0.00  0.00     0.048 C 
ATOM      2  C2  <0> d          -0.587   0.015   0.373  0.00  0.00    -0.059 A 
ATOM      3  C3  <0> d          -0.568  -0.602  -0.865  0.00  0.00     0.014 A 
ATOM      4  C4  <0> d          -0.433  -1.974  -0.951  0.00  0.00    -0.050 A 
ATOM      5  C5  <0> d          -0.316  -2.738   0.199  0.00  0.00     0.014 A 
ATOM      6  C6  <0> d          -0.332  -2.124   1.438  0.00  0.00     0.078 A 
ATOM      7  C7  <0> d          -0.464  -0.741   1.521  0.00  0.00     0.044 A 
ATOM      8  O1  <0> d          -0.209  -2.833   2.590  0.00  0.00    -0.350 OA
ATOM      9  C8  <0> d          -0.438  -4.242   2.535  0.00  0.00     0.184 C 
ATOM     10  C9  <0> d           0.374  -4.818   1.367  0.00  0.00     0.073 C 
ATOM     11  C10 <0> d          -0.176  -4.233   0.064  0.00  0.00     0.261 C 
ATOM     12  C18 <0> d          -0.414  -2.642  -2.301  0.00  0.00     0.049 C 
ENDROOT
BRANCH  10  13
ATOM     13  C11 <0> d           0.237  -6.342   1.348  0.00  0.00     0.244 C 
BRANCH  13  14
ATOM     14  N2  <0> d           0.865  -6.905   2.550  0.00  0.00    -0.070 N 
ATOM     15  C16 <0> d           2.312  -6.667   2.503  0.00  0.00     0.235 C 
ATOM     16  C15 <0> d           2.960  -7.180   3.791  0.00  0.00     0.032 C 
ATOM     17  C14 <0> d           2.693  -8.682   3.927  0.00  0.00    -0.015 C 
ATOM     18  C13 <0> d           1.181  -8.925   3.901  0.00  0.00     0.032 C 
ATOM     19  C17 <0> d           3.270  -9.186   5.252  0.00  0.00     0.010 C 
ATOM     20  C12 <0> d           0.599  -8.348   2.609  0.00  0.00     0.235 C 
ATOM     21  H29 <0> d           0.479  -6.461   3.370  0.00  0.00     0.279 HD
ENDBRANCH  13  14
ENDBRANCH  10  13
BRANCH  11  22
ATOM     22  N1  <0> d          -1.491  -4.823  -0.220  0.00  0.00     0.087 N 
ATOM     23  H10 <0> d          -1.875  -4.456  -1.077  0.00  0.00     0.313 HD
ATOM     24  H11 <0> d          -1.437  -5.830  -0.251  0.00  0.00     0.313 HD
ENDBRANCH  11  22
TORSDOF 3
