REMARK  2 active torsions:
REMARK  status: ('A' for Active; 'I' for Inactive)
REMARK    1  A    between atoms: C7_9  and  C11_16 
REMARK    2  A    between atoms: C9_11  and  N1_13 
ROOT
ATOM      1  C1  <0> d          -2.466   0.946   0.019  0.00  0.00     0.077 C 
ATOM      2  C2  <0> d          -1.184   1.738   0.017  0.00  0.00     0.056 A 
ATOM      3  C3  <0> d          -0.013   1.076   0.008  0.00  0.00     0.070 A 
ATOM      4  C4  <0> d           1.199   1.804   0.000  0.00  0.00     0.093 A 
ATOM      5  C5  <0> d           1.132   3.182   0.008  0.00  0.00     0.065 A 
ATOM      6  C6  <0> d          -0.124   3.799   0.023  0.00  0.00     0.298 A 
ATOM      7  O1  <0> d          -0.195   5.017   0.029  0.00  0.00    -0.259 OA
ATOM      8  O2  <0> d          -1.250   3.072   0.029  0.00  0.00    -0.280 OA
ATOM      9  C7  <0> d           2.386   4.011   0.000  0.00  0.00     0.112 C 
ATOM     10  C8  <0> d           3.570   3.163   0.377  0.00  0.00     0.086 C 
ATOM     11  C9  <0> d           3.503   1.811   0.349  0.00  0.00     0.159 C 
ATOM     12  O3  <0> d           2.382   1.161  -0.013  0.00  0.00    -0.292 OA
ATOM     13  C10 <0> d           4.791   3.797   0.773  0.00  0.00     0.100 C 
ATOM     14  N2  <0> d           5.759   4.300   1.087  0.00  0.00    -0.191 NA
ENDROOT
BRANCH   9  15
ATOM     15  C11 <0> d           2.599   4.582  -1.378  0.00  0.00    -0.002 A 
ATOM     16  C16 <0> d           2.625   5.953  -1.562  0.00  0.00     0.162 A 
ATOM     17  C15 <0> d           2.827   6.477  -2.830  0.00  0.00     0.155 A 
ATOM     18  F1  <0> d           2.460   6.781  -0.507  0.00  0.00    -0.202 F 
ATOM     19  C14 <0> d           2.990   5.628  -3.910  0.00  0.00     0.045 A 
ATOM     20  F2  <0> d           2.858   7.816  -3.012  0.00  0.00    -0.203 F 
ATOM     21  C13 <0> d           2.958   4.258  -3.724  0.00  0.00     0.004 A 
ATOM     22  C12 <0> d           2.763   3.736  -2.459  0.00  0.00     0.011 A 
ENDBRANCH   9  15
BRANCH  11  23
ATOM     23  N1  <0> d           4.611   1.082   0.701  0.00  0.00    -0.379 N 
ATOM     24  H6  <0> d           4.579   0.113   0.687  0.00  0.00     0.158 HD
ATOM     25  H7  <0> d           5.427   1.536   0.965  0.00  0.00     0.158 HD
ENDBRANCH  11  23
TORSDOF 2
