REMARK  4 active torsions:
REMARK  status: ('A' for Active; 'I' for Inactive)
REMARK    1  A    between atoms: O1_2  and  C2_3 
REMARK    2  A    between atoms: C5_6  and  O4_28 
REMARK    3  A    between atoms: C6_7  and  C8_9 
REMARK    4  A    between atoms: C12_13  and  C15_17 
ROOT
ATOM      1  C8  <0> d           1.387  -4.132   2.207  0.00  0.00     0.203 C 
ATOM      2  C9  <0> d          -0.017  -4.695   2.243  0.00  0.00     0.041 C 
ATOM      3  C10 <0> d          -0.577  -5.297   1.172  0.00  0.00     0.040 C 
ATOM      4  C11 <0> d          -1.987  -5.834   1.232  0.00  0.00     0.070 C 
ATOM      5  C12 <0> d          -2.300  -6.299   2.656  0.00  0.00     0.056 C 
ATOM      6  C13 <0> d          -2.121  -5.108   3.603  0.00  0.00     0.095 C 
ATOM      7  C14 <0> d          -0.726  -4.568   3.451  0.00  0.00     0.160 C 
ATOM      8  O2  <0> d          -0.200  -4.009   4.393  0.00  0.00    -0.293 OA
ATOM      9  N1  <0> d           0.106  -5.452  -0.011  0.00  0.00    -0.191 N 
ATOM     10  C19 <0> d           1.476  -5.245  -0.004  0.00  0.00     0.725 A 
ATOM     11  N2  <0> d           2.091  -4.630   1.033  0.00  0.00    -0.084 N 
ATOM     12  N3  <0> d           3.449  -4.595   0.719  0.00  0.00    -0.149 NA
ATOM     13  C20 <0> d           3.580  -5.165  -0.454  0.00  0.00     0.275 A 
ATOM     14  N4  <0> d           2.385  -5.556  -0.887  0.00  0.00    -0.054 NA
ATOM     15  H16 <0> d          -0.357  -5.700  -0.826  0.00  0.00     0.184 HD
ENDROOT
BRANCH   1  16
ATOM     16  C6  <0> d           1.321  -2.628   2.151  0.00  0.00     0.008 A 
ATOM     17  C5  <0> d           1.897  -1.870   3.159  0.00  0.00     0.077 A 
ATOM     18  C4  <0> d           1.837  -0.485   3.107  0.00  0.00     0.040 A 
ATOM     19  C3  <0> d           1.202   0.139   2.051  0.00  0.00     0.039 A 
ATOM     20  C2  <0> d           0.626  -0.619   1.042  0.00  0.00     0.069 A 
ATOM     21  C7  <0> d           0.682  -2.003   1.097  0.00  0.00     0.049 A 
BRANCH  17  22
ATOM     22  O4  <0> d           2.522  -2.485   4.199  0.00  0.00    -0.355 OA
ATOM     23  C21 <0> d           3.094  -1.642   5.202  0.00  0.00     0.210 C 
ENDBRANCH  17  22
BRANCH  20  24
ATOM     24  O1  <0> d           0.002  -0.004   0.002  0.00  0.00    -0.356 OA
ATOM     25  C1  <0> d          -0.017   1.425   0.010  0.00  0.00     0.210 C 
ENDBRANCH  20  24
ENDBRANCH   1  16
BRANCH   5  26
ATOM     26  C15 <0> d          -3.720  -6.797   2.727  0.00  0.00     0.057 A 
ATOM     27  O3  <0> d          -4.820  -6.076   2.455  0.00  0.00    -0.327 OA
ATOM     28  C18 <0> d          -5.910  -6.842   2.620  0.00  0.00     0.142 A 
ATOM     29  C17 <0> d          -5.514  -8.067   3.010  0.00  0.00     0.027 A 
ATOM     30  C16 <0> d          -4.102  -8.038   3.079  0.00  0.00     0.035 A 
ENDBRANCH   5  26
TORSDOF 4
