REMARK  9 active torsions:
REMARK  status: ('A' for Active; 'I' for Inactive)
REMARK    1  A    between atoms: C2_2  and  C3_3 
REMARK    2  A    between atoms: C3_3  and  N1_4 
REMARK    3  A    between atoms: C7_8  and  C8_9 
REMARK       I    between atoms: C8_9  and  N2_11 
REMARK    4  A    between atoms: N2_11  and  C9_12 
REMARK    5  A    between atoms: N2_11  and  C11_15 
REMARK    6  A    between atoms: C9_12  and  C10_13 
REMARK    7  A    between atoms: C10_13  and  O2_14 
REMARK    8  A    between atoms: C11_15  and  C12_16 
REMARK    9  A    between atoms: C12_16  and  O3_17 
ROOT
ATOM      1  C8  <0> d          -1.264  -2.287   3.061  0.00  0.00     0.270 C 
ATOM      2  O1  <0> d          -1.187  -3.108   3.956  0.00  0.00    -0.266 OA
ATOM      3  N2  <0> d          -0.876  -1.015   3.278  0.00  0.00    -0.343 N 
ENDROOT
BRANCH   1   4
ATOM      4  C7  <0> d          -1.779  -2.683   1.746  0.00  0.00     0.104 A 
ATOM      5  N1  <0> d          -1.977  -3.971   1.303  0.00  0.00    -0.351 N 
ATOM      6  C4  <0> d          -2.468  -3.925   0.040  0.00  0.00     0.110 A 
ATOM      7  C5  <0> d          -2.584  -2.629  -0.338  0.00  0.00     0.028 A 
ATOM      8  C6  <0> d          -2.150  -1.831   0.726  0.00  0.00     0.056 A 
ATOM      9 Br1  <0> d          -3.219  -2.009  -2.008  0.00  0.00    -0.050 Br
BRANCH   5  10
ATOM     10  C3  <0> d          -1.709  -5.189   2.072  0.00  0.00     0.128 C 
BRANCH  10  11
ATOM     11  C2  <0> d          -2.921  -5.518   2.946  0.00  0.00     0.016 C 
ATOM     12  C1  <0> d          -2.595  -6.717   3.839  0.00  0.00     0.006 C 
ENDBRANCH  10  11
ENDBRANCH   5  10
ENDBRANCH   1   4
BRANCH   3  13
ATOM     13  C9  <0> d          -0.308  -0.633   4.573  0.00  0.00     0.152 C 
BRANCH  13  14
ATOM     14  C10 <0> d           1.210  -0.821   4.539  0.00  0.00     0.184 C 
BRANCH  14  15
ATOM     15  O2  <0> d           1.781   0.086   3.594  0.00  0.00    -0.399 OA
ATOM     16  H14 <0> d           2.744   0.023   3.520  0.00  0.00     0.209 HD
ENDBRANCH  14  15
ENDBRANCH  13  14
ENDBRANCH   3  13
BRANCH   3  17
ATOM     17  C11 <0> d          -1.022  -0.014   2.218  0.00  0.00     0.152 C 
BRANCH  17  18
ATOM     18  C12 <0> d          -2.451   0.533   2.226  0.00  0.00     0.184 C 
BRANCH  18  19
ATOM     19  O3  <0> d          -2.679   1.253   3.439  0.00  0.00    -0.399 OA
ATOM     20  H19 <0> d          -3.567   1.628   3.512  0.00  0.00     0.209 HD
ENDBRANCH  18  19
ENDBRANCH  17  18
ENDBRANCH   3  17
TORSDOF 9
