REMARK  6 active torsions:
REMARK  status: ('A' for Active; 'I' for Inactive)
REMARK    1  A    between atoms: C2_2  and  C23_30 
REMARK    2  A    between atoms: C5_5  and  C6_7 
REMARK    3  A    between atoms: C8_9  and  O2_16 
REMARK    4  A    between atoms: C9_10  and  O1_14 
REMARK    5  A    between atoms: N2_20  and  C16_23 
REMARK    6  A    between atoms: C16_23  and  C17_24 
ROOT
ATOM      1  C1  <0> d          -0.037   1.530  -0.006  0.00  0.00     0.059 C 
ATOM      2  C2  <0> d          -0.015   0.000  -0.004  0.00  0.00     0.222 C 
ATOM      3  C3  <0> d           0.780  -0.528  -1.216  0.00  0.00     0.140 A 
ATOM      4  C4  <0> d           2.217  -0.764  -0.678  0.00  0.00     0.129 A 
ATOM      5  C5  <0> d           2.159  -0.341   0.805  0.00  0.00     0.234 C 
ATOM      6  N1  <0> d           0.724  -0.505   1.181  0.00  0.00    -0.046 N 
ATOM      7  C14 <0> d           2.385  -2.263  -0.776  0.00  0.00     0.234 A 
ATOM      8  O3  <0> d           3.378  -2.880  -0.454  0.00  0.00    -0.272 OA
ATOM      9  N2  <0> d           1.267  -2.804  -1.274  0.00  0.00    -0.283 N 
ATOM     10  C15 <0> d           0.290  -1.915  -1.567  0.00  0.00     0.234 A 
ATOM     11  O4  <0> d          -0.799  -2.176  -2.031  0.00  0.00    -0.272 OA
ATOM     12  H7  <0> d           0.511   0.053   1.994  0.00  0.00     0.279 HD
ATOM     13  H23 <0> d           0.502  -1.475   1.348  0.00  0.00     0.279 HD
ENDROOT
BRANCH   5  14
ATOM     14  C6  <0> d           3.016  -1.252   1.645  0.00  0.00    -0.023 A 
ATOM     15  C11 <0> d           2.502  -2.449   2.108  0.00  0.00     0.031 A 
ATOM     16  C10 <0> d           3.287  -3.291   2.875  0.00  0.00     0.047 A 
ATOM     17  C9  <0> d           4.588  -2.930   3.189  0.00  0.00     0.118 A 
ATOM     18 Br1  <0> d           2.583  -4.931   3.501  0.00  0.00    -0.048 Br
ATOM     19  C8  <0> d           5.103  -1.723   2.727  0.00  0.00     0.103 A 
ATOM     20  C7  <0> d           4.313  -0.887   1.955  0.00  0.00     0.049 A 
BRANCH  17  21
ATOM     21  O1  <0> d           5.360  -3.755   3.947  0.00  0.00    -0.352 OA
ATOM     22  C12 <0> d           5.313  -3.567   5.363  0.00  0.00     0.210 C 
ENDBRANCH  17  21
BRANCH  19  23
ATOM     23  O2  <0> d           6.379  -1.365   3.032  0.00  0.00    -0.353 OA
ATOM     24  C13 <0> d           6.840  -0.112   2.523  0.00  0.00     0.210 C 
ENDBRANCH  19  23
ENDBRANCH   5  14
BRANCH   2  25
ATOM     25  C23 <0> d          -1.420  -0.544  -0.017  0.00  0.00     0.211 C 
ATOM     26  O5  <0> d          -2.166  -0.284  -0.946  0.00  0.00    -0.646 OA
ATOM     27  O6  <0> d          -1.811  -1.245   0.900  0.00  0.00    -0.646 OA
ENDBRANCH   2  25
BRANCH   9  28
ATOM     28  C16 <0> d           1.113  -4.244  -1.493  0.00  0.00     0.173 C 
BRANCH  28  29
ATOM     29  C17 <0> d           1.676  -4.610  -2.842  0.00  0.00    -0.040 A 
ATOM     30  C22 <0> d           2.976  -5.071  -2.946  0.00  0.00     0.009 A 
ATOM     31  C21 <0> d           3.491  -5.411  -4.183  0.00  0.00     0.001 A 
ATOM     32  C20 <0> d           2.711  -5.282  -5.316  0.00  0.00     0.000 A 
ATOM     33  C19 <0> d           1.413  -4.816  -5.213  0.00  0.00     0.001 A 
ATOM     34  C18 <0> d           0.896  -4.481  -3.976  0.00  0.00     0.009 A 
ENDBRANCH  28  29
ENDBRANCH   9  28
TORSDOF 6
