REMARK  6 active torsions:
REMARK  status: ('A' for Active; 'I' for Inactive)
REMARK    1  A    between atoms: C2_2  and  C3_3 
REMARK    2  A    between atoms: C3_3  and  C4_4 
REMARK    3  A    between atoms: C7_10  and  C9_15 
REMARK    4  A    between atoms: C11_17  and  S1_24 
REMARK    5  A    between atoms: C14_20  and  O2_21 
REMARK    6  A    between atoms: O2_21  and  C15_22 
ROOT
ATOM      1  C4  <0> d          -2.292   7.033   6.465  0.00  0.00     0.128 A 
ATOM      2  N1  <0> d          -1.774   8.230   6.611  0.00  0.00    -0.236 NA
ATOM      3  C5  <0> d          -0.873   8.452   5.653  0.00  0.00     0.067 A 
ATOM      4  C6  <0> d          -0.828   7.329   4.864  0.00  0.00     0.152 A 
ATOM      5  N2  <0> d          -1.740   6.436   5.399  0.00  0.00    -0.210 N 
ATOM      6  N3  <0> d          -1.907   5.189   4.789  0.00  0.00    -0.146 NA
ATOM      7  C7  <0> d          -1.221   4.859   3.732  0.00  0.00     0.164 A 
ATOM      8  N4  <0> d          -0.294   5.705   3.158  0.00  0.00    -0.304 N 
ATOM      9  H1  <0> d           0.270   5.382   2.270  0.00  0.00     0.171 HD
ATOM     10  C8  <0> d          -0.071   6.933   3.678  0.00  0.00     0.278 A 
ATOM     11  O1  <0> d           0.742   7.687   3.174  0.00  0.00    -0.265 OA
ATOM     12  C17 <0> d          -0.056   9.705   5.469  0.00  0.00     0.073 C 
ENDROOT
BRANCH   7  13
ATOM     13  C9  <0> d          -1.439   3.528   3.130  0.00  0.00     0.046 A 
ATOM     14  C14 <0> d          -2.368   2.644   3.692  0.00  0.00     0.083 A 
ATOM     15  C13 <0> d          -2.565   1.398   3.120  0.00  0.00     0.039 A 
ATOM     16  C12 <0> d          -1.847   1.029   1.998  0.00  0.00     0.029 A 
ATOM     17  C11 <0> d          -0.927   1.900   1.439  0.00  0.00     0.081 A 
ATOM     18  C10 <0> d          -0.715   3.142   2.000  0.00  0.00     0.044 A 
BRANCH  14  19
ATOM     19  O2  <0> d          -3.074   3.008   4.794  0.00  0.00    -0.351 OA
BRANCH  19  20
ATOM     20  C15 <0> d          -4.004   2.055   5.311  0.00  0.00     0.171 C 
ATOM     21  C16 <0> d          -4.699   2.638   6.543  0.00  0.00     0.034 C 
ENDBRANCH  19  20
ENDBRANCH  14  19
BRANCH  17  22
ATOM     22  S1  <0> d          -0.017   1.417   0.010  0.00  0.00     0.137 S 
ATOM     23  O3  <0> d           0.002  -0.004   0.002  0.00  0.00    -0.591 OA
ATOM     24  O4  <0> d           1.172   2.195   0.003  0.00  0.00    -0.591 OA
ATOM     25  O5  <0> d          -0.826   1.847  -1.205  0.00  0.00    -0.591 OA
ENDBRANCH  17  22
ENDBRANCH   7  13
BRANCH   1  26
ATOM     26  C3  <0> d          -3.343   6.424   7.357  0.00  0.00     0.080 C 
BRANCH  26  27
ATOM     27  C2  <0> d          -2.666   5.668   8.502  0.00  0.00     0.003 C 
ATOM     28  C1  <0> d          -3.734   5.051   9.407  0.00  0.00     0.005 C 
ENDBRANCH  26  27
ENDBRANCH   1  26
TORSDOF 6
