REMARK  4 active torsions:
REMARK  status: ('A' for Active; 'I' for Inactive)
REMARK    1  A    between atoms: N1_5  and  C5_7 
REMARK    2  A    between atoms: C6_9  and  N5_22 
REMARK    3  A    between atoms: N5_22  and  C16_23 
REMARK    4  A    between atoms: C16_23  and  C17_24 
ROOT
ATOM      1  C5  <0> d           0.269  -3.253   1.452  0.00  0.00     0.752 A 
ATOM      2  N3  <0> d           0.260  -3.098   2.769  0.00  0.00    -0.042 NA
ATOM      3  C6  <0> d           0.069  -4.113   3.595  0.00  0.00     0.157 A 
ATOM      4  C7  <0> d          -0.134  -5.416   3.060  0.00  0.00     0.054 A 
ATOM      5  C8  <0> d          -0.361  -6.673   3.769  0.00  0.00    -0.023 A 
ATOM      6  C9  <0> d          -0.526  -7.783   3.017  0.00  0.00     0.016 A 
ATOM      7  S1  <0> d          -0.393  -7.228   1.341  0.00  0.00    -0.071 SA
ATOM      8  C10 <0> d          -0.113  -5.504   1.653  0.00  0.00     0.132 A 
ATOM      9  N4  <0> d           0.080  -4.440   0.898  0.00  0.00    -0.052 NA
ATOM     10  C11 <0> d          -0.767  -9.170   3.526  0.00  0.00     0.215 C 
ATOM     11  O1  <0> d          -0.478  -9.182   4.933  0.00  0.00    -0.376 OA
ATOM     12  C12 <0> d          -1.093  -8.108   5.649  0.00  0.00     0.058 C 
ATOM     13  C13 <0> d          -0.418  -6.780   5.292  0.00  0.00     0.078 C 
ATOM     14  C14 <0> d          -2.577  -8.037   5.283  0.00  0.00     0.046 C 
ATOM     15  C15 <0> d          -0.956  -8.357   7.153  0.00  0.00     0.046 C 
ENDROOT
BRANCH   1  16
ATOM     16  N1  <0> d           0.477  -2.142   0.634  0.00  0.00    -0.064 N 
ATOM     17  C4  <0> d           0.508  -2.142  -0.725  0.00  0.00     0.052 A 
ATOM     18  C3  <0> d           0.734  -0.871  -1.129  0.00  0.00     0.056 A 
ATOM     19  C18 <0> d           0.323  -3.340  -1.619  0.00  0.00     0.071 C 
ATOM     20  C2  <0> d           0.845  -0.068   0.013  0.00  0.00     0.054 A 
ATOM     21  C1  <0> d           1.098   1.418   0.025  0.00  0.00     0.072 C 
ATOM     22  N2  <0> d           0.697  -0.828   1.067  0.00  0.00    -0.158 NA
ENDBRANCH   1  16
BRANCH   3  23
ATOM     23  N5  <0> d           0.067  -3.910   4.963  0.00  0.00    -0.363 N 
ATOM     24  H15 <0> d           0.007  -4.668   5.566  0.00  0.00     0.161 HD
BRANCH  23  25
ATOM     25  C16 <0> d           0.155  -2.551   5.502  0.00  0.00     0.234 C 
BRANCH  25  26
ATOM     26  C17 <0> d           0.133  -2.605   7.008  0.00  0.00     0.191 C 
ATOM     27  O2  <0> d           0.052  -3.680   7.578  0.00  0.00    -0.647 OA
ATOM     28  O3  <0> d           0.197  -1.575   7.656  0.00  0.00    -0.647 OA
ENDBRANCH  25  26
ENDBRANCH  23  25
ENDBRANCH   3  23
TORSDOF 4
