REMARK  2 active torsions:
REMARK  status: ('A' for Active; 'I' for Inactive)
REMARK    1  A    between atoms: C2_2  and  N1_3 
REMARK    2  A    between atoms: N1_3  and  C3_4 
ROOT
ATOM      1  C3  <0> d          -1.456  -1.978   0.072  0.00  0.00     0.224 C 
ATOM      2  C4  <0> d          -2.915  -2.378   0.200  0.00  0.00     0.058 C 
ATOM      3  C5  <0> d          -3.008  -3.906   0.330  0.00  0.00     0.112 C 
ATOM      4  S1  <0> d          -2.590  -4.602  -1.297  0.00  0.00     0.183 S 
ATOM      5  O1  <0> d          -3.596  -4.275  -2.246  0.00  0.00    -0.222 OA
ATOM      6  O2  <0> d          -2.131  -5.940  -1.157  0.00  0.00    -0.222 OA
ATOM      7  C6  <0> d          -1.171  -3.680  -1.802  0.00  0.00     0.109 A 
ATOM      8  C7  <0> d          -0.775  -2.544  -1.138  0.00  0.00     0.035 A 
ATOM      9  C8  <0> d           0.346  -1.853  -1.604  0.00  0.00     0.126 A 
ATOM     10  C9  <0> d           1.050  -2.301  -2.703  0.00  0.00     0.046 A 
ATOM     11  C10 <0> d           0.647  -3.449  -3.358  0.00  0.00     0.047 A 
ATOM     12  C11 <0> d          -0.457  -4.134  -2.904  0.00  0.00     0.138 A 
ATOM     13  F1  <0> d          -0.855  -5.256  -3.543  0.00  0.00    -0.204 F 
ATOM     14  F2  <0> d           0.747  -0.730  -0.969  0.00  0.00    -0.205 F 
ATOM     15  C12 <0> d          -4.430  -4.311   0.724  0.00  0.00     0.026 C 
ENDROOT
BRANCH   1  16
ATOM     16  N1  <0> d          -1.376  -0.512   0.012  0.00  0.00    -0.067 N 
ATOM     17  H8  <0> d          -0.414  -0.224   0.113  0.00  0.00     0.277 HD
ATOM     18  H16 <0> d          -1.926  -0.115   0.759  0.00  0.00     0.277 HD
BRANCH  16  19
ATOM     19  C2  <0> d          -1.895  -0.046  -1.280  0.00  0.00     0.228 C 
ATOM     20  C1  <0> d          -1.932   1.483  -1.293  0.00  0.00     0.034 C 
ENDBRANCH  16  19
ENDBRANCH   1  16
TORSDOF 2
