REMARK  4 active torsions:
REMARK  status: ('A' for Active; 'I' for Inactive)
REMARK    1  A    between atoms: C3_3  and  C5_6 
REMARK       I    between atoms: C5_6  and  N1_8 
REMARK    2  A    between atoms: N1_8  and  C6_9 
REMARK    3  A    between atoms: N2_11  and  C7_12 
REMARK    4  A    between atoms: C13_19  and  C14_21 
ROOT
ATOM      1  C7  <0> d           7.200   2.333  -0.107  0.00  0.00     0.036 A 
ATOM      2  C8  <0> d           7.555   0.988  -0.198  0.00  0.00     0.032 A 
ATOM      3  C9  <0> d           8.882   0.620  -0.267  0.00  0.00     0.042 A 
ATOM      4  C10 <0> d           9.873   1.589  -0.246  0.00  0.00     0.106 A 
ATOM      5  C11 <0> d           9.523   2.946  -0.154  0.00  0.00     0.095 A 
ATOM      6  C12 <0> d           8.177   3.312  -0.090  0.00  0.00     0.064 A 
ATOM      7  N3  <0> d          10.685   3.649  -0.154  0.00  0.00    -0.221 NA
ATOM      8  C13 <0> d          11.685   2.809  -0.238  0.00  0.00     0.180 A 
ATOM      9  O2  <0> d          11.223   1.546  -0.296  0.00  0.00    -0.289 OA
ENDROOT
BRANCH   1  10
ATOM     10  N2  <0> d           5.849   2.694  -0.038  0.00  0.00    -0.333 N 
ATOM     11  C6  <0> d           5.453   3.662   0.813  0.00  0.00     0.179 C 
ATOM     12  S2  <0> d           6.574   4.350   1.908  0.00  0.00    -0.040 SA
ATOM     13  H5  <0> d           5.111   2.188  -0.678  0.00  0.00     0.168 HD
BRANCH  11  14
ATOM     14  N1  <0> d           4.174   4.087   0.800  0.00  0.00    -0.299 N 
ATOM     15  C5  <0> d           3.778   5.055   1.651  0.00  0.00     0.264 C 
ATOM     16  O1  <0> d           4.575   5.544   2.430  0.00  0.00    -0.267 OA
ATOM     17  H4  <0> d           3.454   3.645   0.097  0.00  0.00     0.171 HD
BRANCH  15  18
ATOM     18  C3  <0> d           2.388   5.517   1.638  0.00  0.00     0.072 A 
ATOM     19  C2  <0> d           1.783   6.490   2.420  0.00  0.00     0.025 A 
ATOM     20  C1  <0> d           0.449   6.726   2.202  0.00  0.00     0.009 A 
ATOM     21  C4  <0> d          -0.202   6.018   1.242  0.00  0.00     0.050 A 
ATOM     22  S1  <0> d           1.033   4.978   0.611  0.00  0.00    -0.097 SA
ENDBRANCH  15  18
ENDBRANCH  11  14
ENDBRANCH   1  10
BRANCH   8  23
ATOM     23  C14 <0> d          13.113   3.191  -0.266  0.00  0.00     0.017 A 
ATOM     24  C19 <0> d          14.100   2.208  -0.358  0.00  0.00     0.017 A 
ATOM     25  C18 <0> d          15.430   2.571  -0.383  0.00  0.00     0.020 A 
ATOM     26  C17 <0> d          15.788   3.907  -0.317  0.00  0.00     0.011 A 
ATOM     27  C16 <0> d          14.813   4.886  -0.225  0.00  0.00     0.020 A 
ATOM     28 Br1  <0> d          17.614   4.396  -0.352  0.00  0.00    -0.051 Br
ATOM     29  C15 <0> d          13.479   4.537  -0.205  0.00  0.00     0.017 A 
ENDBRANCH   8  23
TORSDOF 4
