REMARK  6 active torsions:
REMARK  status: ('A' for Active; 'I' for Inactive)
REMARK    1  A    between atoms: C11_11  and  C12_13 
REMARK    2  A    between atoms: C12_13  and  C13_14 
REMARK    3  A    between atoms: C16_17  and  O1_20 
REMARK    4  A    between atoms: N2_23  and  C21_26 
REMARK    5  A    between atoms: C21_26  and  C22_27 
REMARK    6  A    between atoms: C22_27  and  O4_28 
ROOT
ATOM      1  C1  <0> d          -0.018   1.503   0.010  0.00  0.00     0.048 C 
ATOM      2  C2  <0> d           0.002  -0.004   0.002  0.00  0.00    -0.061 A 
ATOM      3  C3  <0> d           0.006  -0.691  -1.199  0.00  0.00     0.015 A 
ATOM      4  C4  <0> d           0.026  -2.070  -1.212  0.00  0.00    -0.034 A 
ATOM      5  C5  <0> d           0.043  -2.782  -0.015  0.00  0.00     0.050 A 
ATOM      6  C6  <0> d           0.038  -2.081   1.187  0.00  0.00     0.018 A 
ATOM      7  C7  <0> d           0.023  -0.704   1.195  0.00  0.00     0.019 A 
ATOM      8  C8  <0> d           0.059  -3.122   2.270  0.00  0.00     0.279 A 
ATOM      9  C9  <0> d           1.285  -2.962   3.178  0.00  0.00     0.147 A 
ATOM     10  C10 <0> d           0.754  -2.190   4.418  0.00  0.00     0.128 A 
ATOM     11  C11 <0> d          -0.738  -1.934   4.117  0.00  0.00     0.240 C 
ATOM     12  N1  <0> d          -1.116  -3.009   3.152  0.00  0.00     0.114 N 
ATOM     13  C19 <0> d           0.888  -3.194   5.539  0.00  0.00     0.233 A 
ATOM     14  O2  <0> d           0.572  -3.001   6.694  0.00  0.00    -0.272 OA
ATOM     15  N2  <0> d           1.410  -4.329   5.059  0.00  0.00    -0.286 N 
ATOM     16  C20 <0> d           1.683  -4.311   3.735  0.00  0.00     0.235 A 
ATOM     17  O3  <0> d           2.165  -5.219   3.092  0.00  0.00    -0.272 OA
ATOM     18  C24 <0> d           0.078  -4.440   1.545  0.00  0.00     0.267 A 
ATOM     19  O5  <0> d           0.101  -5.543   2.049  0.00  0.00    -0.270 OA
ATOM     20  N3  <0> d           0.065  -4.157   0.228  0.00  0.00    -0.324 N 
ATOM     21  C25 <0> d           0.029  -2.808  -2.526  0.00  0.00     0.050 C 
ATOM     22  H9  <0> d          -1.938  -2.746   2.628  0.00  0.00     0.318 HD
ATOM     23  H24 <0> d           0.070  -4.831  -0.470  0.00  0.00     0.169 HD
ENDROOT
BRANCH  11  24
ATOM     24  C12 <0> d          -1.569  -2.068   5.395  0.00  0.00     0.075 C 
BRANCH  24  25
ATOM     25  C13 <0> d          -3.000  -1.696   5.105  0.00  0.00    -0.056 A 
ATOM     26  C18 <0> d          -3.896  -2.666   4.697  0.00  0.00     0.010 A 
ATOM     27  C17 <0> d          -5.210  -2.328   4.436  0.00  0.00     0.037 A 
ATOM     28  C16 <0> d          -5.627  -1.012   4.574  0.00  0.00     0.065 A 
ATOM     29  C15 <0> d          -4.724  -0.040   4.979  0.00  0.00     0.037 A 
ATOM     30  C14 <0> d          -3.413  -0.383   5.243  0.00  0.00     0.010 A 
BRANCH  28  31
ATOM     31  O1  <0> d          -6.918  -0.677   4.313  0.00  0.00    -0.361 OA
ATOM     32  H16 <0> d          -7.081  -0.424   3.394  0.00  0.00     0.217 HD
ENDBRANCH  28  31
ENDBRANCH  24  25
ENDBRANCH  11  24
BRANCH  15  33
ATOM     33  C21 <0> d           1.671  -5.499   5.902  0.00  0.00     0.161 C 
BRANCH  33  34
ATOM     34  C22 <0> d           0.435  -6.400   5.920  0.00  0.00     0.187 C 
BRANCH  34  35
ATOM     35  O4  <0> d           0.206  -6.922   4.610  0.00  0.00    -0.394 OA
ATOM     36  C23 <0> d          -0.932  -7.781   4.517  0.00  0.00     0.201 C 
ENDBRANCH  34  35
ENDBRANCH  33  34
ENDBRANCH  15  33
TORSDOF 6
