REMARK  5 active torsions:
REMARK  status: ('A' for Active; 'I' for Inactive)
REMARK    1  A    between atoms: O1_2  and  C2_3 
REMARK    2  A    between atoms: C7_8  and  C8_9 
REMARK    3  A    between atoms: C8_9  and  N1_10 
REMARK       I    between atoms: N1_10  and  C9_11 
REMARK    4  A    between atoms: C9_11  and  C10_13 
REMARK    5  A    between atoms: C14_17  and  N2_19 
ROOT
ATOM      1  C10 <0> d           0.893  -3.314  -3.646  0.00  0.00     0.034 A 
ATOM      2  C11 <0> d           2.119  -2.690  -3.406  0.00  0.00     0.019 A 
ATOM      3  C12 <0> d           3.166  -2.856  -4.290  0.00  0.00     0.027 A 
ATOM      4  C13 <0> d           3.009  -3.639  -5.418  0.00  0.00     0.062 A 
ATOM      5  C14 <0> d           1.786  -4.269  -5.670  0.00  0.00     0.082 A 
ATOM      6  C15 <0> d           0.728  -4.109  -4.779  0.00  0.00     0.050 A 
ATOM      7 Cl1  <0> d           4.332  -3.841  -6.524  0.00  0.00    -0.082 Cl
ENDROOT
BRANCH   1   8
ATOM      8  C9  <0> d          -0.227  -3.135  -2.698  0.00  0.00     0.252 C 
ATOM      9  N1  <0> d          -0.066  -2.365  -1.603  0.00  0.00    -0.353 N 
ATOM     10  H12 <0> d           0.784  -1.929  -1.438  0.00  0.00     0.163 HD
ATOM     11  O2  <0> d          -1.292  -3.682  -2.905  0.00  0.00    -0.268 OA
BRANCH   9  12
ATOM     12  C8  <0> d          -1.176  -2.188  -0.663  0.00  0.00     0.164 C 
BRANCH  12  13
ATOM     13  C7  <0> d          -0.740  -1.289   0.466  0.00  0.00    -0.007 A 
ATOM     14  C2  <0> d          -0.716   0.086   0.288  0.00  0.00     0.076 A 
ATOM     15  C3  <0> d          -0.319   0.911   1.331  0.00  0.00     0.037 A 
ATOM     16  C4  <0> d           0.057   0.360   2.541  0.00  0.00     0.003 A 
ATOM     17  C5  <0> d           0.038  -1.012   2.713  0.00  0.00     0.001 A 
ATOM     18  C6  <0> d          -0.357  -1.835   1.676  0.00  0.00     0.011 A 
BRANCH  14  19
ATOM     19  O1  <0> d          -1.087   0.625  -0.903  0.00  0.00    -0.355 OA
ATOM     20  C1  <0> d          -1.038   2.049  -1.014  0.00  0.00     0.210 C 
ENDBRANCH  14  19
ENDBRANCH  12  13
ENDBRANCH   9  12
ENDBRANCH   1   8
BRANCH   5  21
ATOM     21  N2  <0> d           1.631  -5.044  -6.789  0.00  0.00    -0.223 NA
ATOM     22  C16 <0> d           1.116  -6.248  -6.688  0.00  0.00     0.163 C 
ATOM     23  S2  <0> d           0.688  -7.387  -8.011  0.00  0.00    -0.084 SA
ATOM     24  N3  <0> d           0.762  -6.947  -5.514  0.00  0.00    -0.362 N 
ATOM     25  C20 <0> d          -0.001  -8.724  -6.967  0.00  0.00     0.093 C 
ATOM     26  C17 <0> d          -0.377  -7.783  -5.761  0.00  0.00     0.112 C 
ATOM     27  C19 <0> d          -1.343  -9.288  -7.468  0.00  0.00     0.158 C 
ATOM     28  C18 <0> d          -1.019  -8.696  -4.726  0.00  0.00     0.166 C 
ATOM     29  S1  <0> d          -2.215  -9.557  -5.857  0.00  0.00     0.147 S 
ATOM     30  O3  <0> d          -2.218 -10.946  -5.558  0.00  0.00    -0.228 OA
ATOM     31  O4  <0> d          -3.442  -8.840  -5.867  0.00  0.00    -0.228 OA
ATOM     32  H20 <0> d           1.223  -6.874  -4.664  0.00  0.00     0.162 HD
ENDBRANCH   5  21
TORSDOF 5
