REMARK  5 active torsions:
REMARK  status: ('A' for Active; 'I' for Inactive)
REMARK    1  A    between atoms: N1_5  and  C5_9 
REMARK    2  A    between atoms: C5_9  and  C6_10 
REMARK    3  A    between atoms: C6_10  and  S1_11 
REMARK    4  A    between atoms: S1_11  and  C7_12 
REMARK    5  A    between atoms: C7_12  and  C8_13 
ROOT
ATOM      1  C1  <0> d          -0.019   1.526   0.010  0.00  0.00     0.049 C 
ATOM      2  C2  <0> d           0.002  -0.004   0.002  0.00  0.00     0.108 A 
ATOM      3  C3  <0> d          -1.404  -0.557   0.121  0.00  0.00     0.255 A 
ATOM      4  O1  <0> d          -2.324  -0.392  -0.652  0.00  0.00    -0.270 OA
ATOM      5  N1  <0> d          -1.419  -1.272   1.263  0.00  0.00    -0.267 N 
ATOM      6  C4  <0> d          -0.231  -1.248   1.876  0.00  0.00     0.326 A 
ATOM      7  O2  <0> d           0.001  -1.819   2.923  0.00  0.00    -0.247 OA
ATOM      8  N2  <0> d           0.679  -0.520   1.204  0.00  0.00    -0.325 N 
ATOM      9  C11 <0> d           0.684  -0.525  -1.265  0.00  0.00     0.049 C 
ATOM     10  H4  <0> d           1.602  -0.365   1.461  0.00  0.00     0.165 HD
ENDROOT
BRANCH   5  11
ATOM     11  C5  <0> d          -2.593  -1.987   1.771  0.00  0.00     0.147 C 
BRANCH  11  12
ATOM     12  C6  <0> d          -2.601  -3.413   1.217  0.00  0.00     0.094 C 
BRANCH  12  13
ATOM     13  S1  <0> d          -4.054  -4.298   1.846  0.00  0.00    -0.163 SA
BRANCH  13  14
ATOM     14  C7  <0> d          -3.917  -5.948   1.106  0.00  0.00     0.116 C 
BRANCH  14  15
ATOM     15  C8  <0> d          -5.079  -6.797   1.553  0.00  0.00    -0.005 A 
ATOM     16  C10 <0> d          -6.267  -6.905   0.927  0.00  0.00     0.179 A 
ATOM     17  O3  <0> d          -7.031  -7.754   1.631  0.00  0.00    -0.226 OA
ATOM     18  N3  <0> d          -6.282  -8.187   2.752  0.00  0.00    -0.141 NA
ATOM     19  C9  <0> d          -5.114  -7.610   2.700  0.00  0.00     0.156 A 
ENDBRANCH  14  15
ENDBRANCH  13  14
ENDBRANCH  12  13
ENDBRANCH  11  12
ENDBRANCH   5  11
TORSDOF 5
