REMARK  3 active torsions:
REMARK  status: ('A' for Active; 'I' for Inactive)
REMARK    1  A    between atoms: C5_6  and  N2_12 
REMARK       I    between atoms: N2_12  and  C9_13 
REMARK    2  A    between atoms: C9_13  and  C10_15 
REMARK    3  A    between atoms: C13_18  and  N3_21 
ROOT
ATOM      1  N2  <0> d          -3.773  -4.056  -0.002  0.00  0.00    -0.323 N 
ATOM      2  C9  <0> d          -5.097  -3.830   0.107  0.00  0.00     0.256 C 
ATOM      3  O3  <0> d          -5.521  -2.690   0.115  0.00  0.00    -0.267 OA
ATOM      4  H7  <0> d          -3.440  -4.964  -0.076  0.00  0.00     0.169 HD
ENDROOT
BRANCH   1   5
ATOM      5  C5  <0> d          -2.877  -2.979  -0.009  0.00  0.00     0.037 A 
ATOM      6  C4  <0> d          -1.629  -3.112   0.589  0.00  0.00     0.032 A 
ATOM      7  C3  <0> d          -0.743  -2.054   0.584  0.00  0.00     0.035 A 
ATOM      8  C2  <0> d          -1.099  -0.856  -0.017  0.00  0.00     0.073 A 
ATOM      9  N1  <0> d          -0.442   0.365  -0.182  0.00  0.00    -0.295 N 
ATOM     10  C7  <0> d          -2.351  -0.719  -0.617  0.00  0.00     0.110 A 
ATOM     11  C1  <0> d           0.906   0.693   0.287  0.00  0.00     0.162 C 
ATOM     12  C8  <0> d          -1.277   1.187  -0.848  0.00  0.00     0.372 A 
ATOM     13  O1  <0> d          -2.422   0.540  -1.117  0.00  0.00    -0.259 OA
ATOM     14  O2  <0> d          -1.031   2.336  -1.159  0.00  0.00    -0.238 OA
ATOM     15  C6  <0> d          -3.238  -1.783  -0.612  0.00  0.00     0.069 A 
ENDBRANCH   1   5
BRANCH   2  16
ATOM     16  C10 <0> d          -6.033  -4.966   0.217  0.00  0.00     0.032 A 
ATOM     17  C15 <0> d          -7.406  -4.734   0.330  0.00  0.00     0.019 A 
ATOM     18  C14 <0> d          -8.277  -5.796   0.427  0.00  0.00     0.031 A 
ATOM     19  C13 <0> d          -7.790  -7.099   0.424  0.00  0.00     0.038 A 
ATOM     20  C12 <0> d          -6.423  -7.334   0.317  0.00  0.00     0.031 A 
ATOM     21  C11 <0> d          -5.547  -6.276   0.214  0.00  0.00     0.019 A 
BRANCH  19  22
ATOM     22  N3  <0> d          -8.676  -8.175   0.528  0.00  0.00    -0.333 N 
ATOM     23  C19 <0> d         -10.035  -8.081   0.639  0.00  0.00     0.096 A 
ATOM     24  C18 <0> d         -10.539  -9.329   0.713  0.00  0.00     0.019 A 
ATOM     25  C17 <0> d          -9.454 -10.228   0.656  0.00  0.00     0.019 A 
ATOM     26  C16 <0> d          -8.327  -9.496   0.543  0.00  0.00     0.096 A 
ENDBRANCH  19  22
ENDBRANCH   2  16
TORSDOF 3
