REMARK  3 active torsions:
REMARK  status: ('A' for Active; 'I' for Inactive)
REMARK    1  A    between atoms: C3_3  and  O3_27 
REMARK    2  A    between atoms: C6_6  and  N1_7 
REMARK    3  A    between atoms: O3_27  and  C20_28 
ROOT
ATOM      1  N1  <0> d          -1.203  -0.722   0.010  0.00  0.00    -0.217 N 
ATOM      2  C7  <0> d          -1.434  -1.895  -0.614  0.00  0.00     0.141 A 
ATOM      3  C8  <0> d          -2.736  -2.247  -0.363  0.00  0.00     0.030 A 
ATOM      4  C9  <0> d          -3.297  -1.266   0.441  0.00  0.00     0.152 A 
ATOM      5  N2  <0> d          -2.384  -0.352   0.675  0.00  0.00    -0.177 NA
ATOM      6  C10 <0> d          -3.346  -3.500  -0.927  0.00  0.00     0.111 A 
ATOM      7  C11 <0> d          -2.249  -4.542  -1.140  0.00  0.00     0.132 C 
ATOM      8  C12 <0> d          -1.020  -3.921  -1.744  0.00  0.00     0.225 C 
ATOM      9  O1  <0> d          -0.387  -4.551  -2.565  0.00  0.00    -0.273 OA
ATOM     10  N3  <0> d          -0.600  -2.685  -1.403  0.00  0.00    -0.311 N 
ATOM     11  C13 <0> d          -4.081  -3.221  -2.198  0.00  0.00    -0.007 A 
ATOM     12  C14 <0> d          -3.655  -2.722  -3.410  0.00  0.00     0.034 A 
ATOM     13  C15 <0> d          -4.616  -2.583  -4.408  0.00  0.00     0.034 A 
ATOM     14  C16 <0> d          -5.935  -2.929  -4.189  0.00  0.00     0.026 A 
ATOM     15  C17 <0> d          -6.369  -3.431  -2.973  0.00  0.00     0.032 A 
ATOM     16  C18 <0> d          -5.415  -3.577  -1.964  0.00  0.00     0.042 A 
ATOM     17  N4  <0> d          -5.568  -4.048  -0.671  0.00  0.00    -0.325 N 
ATOM     18  C19 <0> d          -4.403  -4.038   0.011  0.00  0.00     0.240 A 
ATOM     19  O2  <0> d          -4.237  -4.394   1.159  0.00  0.00    -0.272 OA
ATOM     20 Cl1  <0> d          -4.146  -1.959  -5.959  0.00  0.00    -0.084 Cl
ATOM     21  H8  <0> d           0.262  -2.354  -1.700  0.00  0.00     0.170 HD
ATOM     22  H12 <0> d          -6.412  -4.348  -0.299  0.00  0.00     0.169 HD
ENDROOT
BRANCH   1  23
ATOM     23  C6  <0> d           0.002  -0.004   0.002  0.00  0.00     0.060 A 
ATOM     24  C1  <0> d          -0.017   1.384   0.010  0.00  0.00     0.034 A 
ATOM     25  C2  <0> d           1.170   2.091   0.002  0.00  0.00     0.039 A 
ATOM     26  C3  <0> d           2.380   1.413  -0.013  0.00  0.00     0.078 A 
ATOM     27  C4  <0> d           2.400   0.026  -0.021  0.00  0.00     0.039 A 
ATOM     28  C5  <0> d           1.214  -0.681  -0.013  0.00  0.00     0.034 A 
BRANCH  26  29
ATOM     29  O3  <0> d           3.548   2.109  -0.022  0.00  0.00    -0.255 OA
BRANCH  29  30
ATOM     30  C20 <0> d           4.757   1.347  -0.038  0.00  0.00     0.530 C 
ATOM     31  F1  <0> d           4.789   0.547  -1.185  0.00  0.00    -0.144 F 
ATOM     32  F2  <0> d           5.855   2.215  -0.045  0.00  0.00    -0.144 F 
ATOM     33  F3  <0> d           4.812   0.535   1.100  0.00  0.00    -0.144 F 
ENDBRANCH  29  30
ENDBRANCH  26  29
ENDBRANCH   1  23
TORSDOF 3
