REMARK  5 active torsions:
REMARK  status: ('A' for Active; 'I' for Inactive)
REMARK    1  A    between atoms: C7_10  and  C8_12 
REMARK    2  A    between atoms: C8_12  and  N3_13 
REMARK    3  A    between atoms: C11_16  and  N4_19 
REMARK       I    between atoms: N4_19  and  C14_20 
REMARK    4  A    between atoms: C14_20  and  C15_22 
REMARK    5  A    between atoms: C15_22  and  C16_23 
ROOT
ATOM      1  N3  <0> d          -1.153  -4.037   4.646  0.00  0.00     0.094 N 
ATOM      2  C9  <0> d          -2.311  -3.167   4.889  0.00  0.00     0.275 C 
ATOM      3  C10 <0> d          -3.599  -3.988   4.785  0.00  0.00     0.055 C 
ATOM      4  C11 <0> d          -3.561  -5.119   5.817  0.00  0.00     0.087 C 
ATOM      5  C12 <0> d          -2.320  -5.982   5.572  0.00  0.00     0.055 C 
ATOM      6  C13 <0> d          -1.070  -5.103   5.653  0.00  0.00     0.275 C 
ENDROOT
BRANCH   1   7
ATOM      7  C8  <0> d           0.091  -3.257   4.601  0.00  0.00     0.329 C 
BRANCH   7   8
ATOM      8  C7  <0> d           0.066  -2.342   3.404  0.00  0.00     0.044 A 
ATOM      9  C6  <0> d           0.049  -0.973   3.568  0.00  0.00     0.101 A 
ATOM     10  C5  <0> d           0.027  -0.142   2.448  0.00  0.00     0.255 A 
ATOM     11  N1  <0> d           0.023  -0.686   1.195  0.00  0.00    -0.262 N 
ATOM     12  O1  <0> d           0.011   1.071   2.587  0.00  0.00    -0.268 OA
ATOM     13  C2  <0> d           0.002  -0.004   0.002  0.00  0.00     0.025 A 
ATOM     14  C4  <0> d           0.036  -2.054   1.123  0.00  0.00     0.158 A 
ATOM     15  C1  <0> d          -0.018   1.503   0.010  0.00  0.00     0.069 C 
ATOM     16  C3  <0> d           0.005  -0.653  -1.162  0.00  0.00     0.078 A 
ATOM     17  S1  <0> d           0.032  -2.358  -0.630  0.00  0.00    -0.063 SA
ATOM     18  N2  <0> d           0.052  -2.840   2.171  0.00  0.00    -0.338 N 
ATOM     19  H29 <0> d           0.065  -3.802   2.045  0.00  0.00     0.168 HD
ENDBRANCH   7   8
ENDBRANCH   1   7
BRANCH   4  20
ATOM     20  N4  <0> d          -4.765  -5.944   5.683  0.00  0.00    -0.356 N 
ATOM     21  C14 <0> d          -5.217  -6.652   6.737  0.00  0.00     0.218 C 
ATOM     22  O2  <0> d          -4.627  -6.607   7.796  0.00  0.00    -0.274 OA
ATOM     23  H17 <0> d          -5.236  -5.980   4.836  0.00  0.00     0.162 HD
BRANCH  21  24
ATOM     24  C15 <0> d          -6.455  -7.500   6.599  0.00  0.00     0.107 C 
BRANCH  24  25
ATOM     25  C16 <0> d          -6.748  -8.194   7.931  0.00  0.00    -0.006 C 
ATOM     26  C20 <0> d          -8.077  -8.964   7.843  0.00  0.00     0.005 C 
ATOM     27  C19 <0> d          -7.744 -10.449   8.096  0.00  0.00     0.000 C 
ATOM     28  C18 <0> d          -6.420 -10.410   8.898  0.00  0.00     0.000 C 
ATOM     29  C17 <0> d          -5.653  -9.238   8.235  0.00  0.00     0.005 C 
ENDBRANCH  24  25
ENDBRANCH  21  24
ENDBRANCH   4  20
TORSDOF 5
