REMARK  9 active torsions:
REMARK  status: ('A' for Active; 'I' for Inactive)
REMARK    1  A    between atoms: C4_5  and  O5_33 
REMARK    2  A    between atoms: C5_6  and  C7_10 
REMARK    3  A    between atoms: C7_10  and  C8_11 
REMARK    4  A    between atoms: C7_10  and  N1_32 
REMARK    5  A    between atoms: C8_11  and  O4_12 
REMARK    6  A    between atoms: O4_12  and  C9_13 
REMARK    7  A    between atoms: C9_13  and  C10_14 
REMARK    8  A    between atoms: C9_13  and  C16_20 
REMARK    9  A    between atoms: C9_13  and  C22_26 
ROOT
ATOM      1  O4  <0> d           6.467  -4.279   1.533  0.00  0.00    -0.363 OA
ENDROOT
BRANCH   1   2
ATOM      2  C8  <0> d           6.152  -2.899   1.729  0.00  0.00     0.205 C 
BRANCH   2   3
ATOM      3  C7  <0> d           6.428  -2.124   0.439  0.00  0.00     0.238 C 
BRANCH   3   4
ATOM      4  C5  <0> d           6.209  -0.630   0.685  0.00  0.00     0.188 C 
ATOM      5  C4  <0> d           6.493   0.174  -0.624  0.00  0.00     0.183 C 
ATOM      6  C3  <0> d           5.391   1.191  -0.550  0.00  0.00     0.211 C 
ATOM      7  O1  <0> d           4.748   1.893  -1.561  0.00  0.00    -0.343 OA
ATOM      8  C6  <0> d           4.219   0.227  -0.101  0.00  0.00     0.295 C 
ATOM      9  C2  <0> d           3.465   2.209  -0.938  0.00  0.00     0.160 C 
ATOM     10  C1  <0> d           3.522   3.606  -0.317  0.00  0.00     0.078 C 
ATOM     11  O3  <0> d           3.214   1.221   0.097  0.00  0.00    -0.323 OA
ATOM     12  C28 <0> d           2.353   2.154  -1.987  0.00  0.00     0.078 C 
ATOM     13  O2  <0> d           4.824  -0.381   1.039  0.00  0.00    -0.348 OA
BRANCH   5  14
ATOM     14  O5  <0> d           7.778   0.798  -0.584  0.00  0.00    -0.390 OA
ATOM     15  H28 <0> d           7.945   1.403  -1.319  0.00  0.00     0.210 HD
ENDBRANCH   5  14
ENDBRANCH   3   4
BRANCH   3  16
ATOM     16  N1  <0> d           5.513  -2.585  -0.614  0.00  0.00    -0.070 N 
ATOM     17  H26 <0> d           5.750  -2.135  -1.486  0.00  0.00     0.274 HD
ATOM     18  H27 <0> d           5.597  -3.585  -0.718  0.00  0.00     0.274 HD
ATOM     19  H32 <0> d           4.565  -2.352  -0.362  0.00  0.00     0.274 HD
ENDBRANCH   3  16
ENDBRANCH   2   3
ENDBRANCH   1   2
BRANCH   1  20
ATOM     20  C9  <0> d           6.369  -5.072   2.717  0.00  0.00     0.142 C 
BRANCH  20  21
ATOM     21  C10 <0> d           4.967  -4.988   3.263  0.00  0.00    -0.015 A 
ATOM     22  C15 <0> d           4.100  -6.054   3.109  0.00  0.00     0.011 A 
ATOM     23  C14 <0> d           2.815  -5.979   3.614  0.00  0.00     0.001 A 
ATOM     24  C13 <0> d           2.394  -4.834   4.265  0.00  0.00     0.000 A 
ATOM     25  C12 <0> d           3.259  -3.766   4.414  0.00  0.00     0.001 A 
ATOM     26  C11 <0> d           4.545  -3.843   3.913  0.00  0.00     0.011 A 
ENDBRANCH  20  21
BRANCH  20  27
ATOM     27  C16 <0> d           6.695  -6.506   2.390  0.00  0.00    -0.015 A 
ATOM     28  C21 <0> d           7.027  -6.862   1.096  0.00  0.00     0.011 A 
ATOM     29  C20 <0> d           7.331  -8.177   0.797  0.00  0.00     0.001 A 
ATOM     30  C19 <0> d           7.294  -9.138   1.789  0.00  0.00     0.000 A 
ATOM     31  C18 <0> d           6.957  -8.783   3.082  0.00  0.00     0.001 A 
ATOM     32  C17 <0> d           6.657  -7.468   3.383  0.00  0.00     0.011 A 
ENDBRANCH  20  27
BRANCH  20  33
ATOM     33  C22 <0> d           7.341  -4.558   3.748  0.00  0.00    -0.015 A 
ATOM     34  C27 <0> d           8.519  -3.956   3.347  0.00  0.00     0.011 A 
ATOM     35  C26 <0> d           9.409  -3.481   4.293  0.00  0.00     0.001 A 
ATOM     36  C25 <0> d           9.124  -3.616   5.639  0.00  0.00     0.000 A 
ATOM     37  C24 <0> d           7.948  -4.222   6.039  0.00  0.00     0.001 A 
ATOM     38  C23 <0> d           7.057  -4.694   5.094  0.00  0.00     0.011 A 
ENDBRANCH  20  33
ENDBRANCH   1  20
TORSDOF 9
