REMARK  7 active torsions:
REMARK  status: ('A' for Active; 'I' for Inactive)
REMARK    1  A    between atoms: C3_3  and  C5_6 
REMARK    2  A    between atoms: C6_7  and  C7_8 
REMARK       I    between atoms: C7_8  and  N1_10 
REMARK    3  A    between atoms: N1_10  and  C8_11 
REMARK    4  A    between atoms: C8_11  and  C9_12 
REMARK       I    between atoms: C9_12  and  N2_14 
REMARK    5  A    between atoms: N2_14  and  N3_15 
REMARK    6  A    between atoms: C10_16  and  C11_17 
REMARK    7  A    between atoms: C16_22  and  O4_23 
ROOT
ATOM      1  C9  <0> d           8.143  -3.288  -0.094  0.00  0.00     0.255 C 
ATOM      2  O3  <0> d           7.330  -4.188  -0.091  0.00  0.00    -0.270 OA
ATOM      3  N2  <0> d           9.461  -3.571  -0.109  0.00  0.00    -0.246 N 
ATOM      4  H9  <0> d          10.112  -2.851  -0.112  0.00  0.00     0.192 HD
ENDROOT
BRANCH   1   5
ATOM      5  C8  <0> d           7.681  -1.854  -0.082  0.00  0.00     0.227 C 
BRANCH   5   6
ATOM      6  N1  <0> d           6.216  -1.813  -0.068  0.00  0.00    -0.349 N 
ATOM      7  C7  <0> d           5.575  -0.628  -0.055  0.00  0.00     0.241 C 
ATOM      8  O2  <0> d           6.213   0.410  -0.056  0.00  0.00    -0.269 OA
ATOM      9  H6  <0> d           5.708  -2.639  -0.067  0.00  0.00     0.163 HD
BRANCH   7  10
ATOM     10  C6  <0> d           4.160  -0.588  -0.041  0.00  0.00     0.077 C 
ATOM     11  C5  <0> d           3.515   0.605  -0.029  0.00  0.00     0.042 C 
BRANCH  11  12
ATOM     12  C3  <0> d           2.100   0.644  -0.015  0.00  0.00     0.075 A 
ATOM     13  C2  <0> d           1.318   1.781  -0.001  0.00  0.00     0.039 A 
ATOM     14  C1  <0> d          -0.016   1.347   0.009  0.00  0.00     0.027 A 
ATOM     15  C4  <0> d           0.002  -0.004   0.002  0.00  0.00     0.142 A 
ATOM     16  O1  <0> d           1.275  -0.424  -0.012  0.00  0.00    -0.323 OA
ENDBRANCH  11  12
ENDBRANCH   7  10
ENDBRANCH   5   6
ENDBRANCH   1   5
BRANCH   3  17
ATOM     17  N3  <0> d           9.891  -4.904  -0.120  0.00  0.00    -0.184 NA
ATOM     18  C10 <0> d          11.160  -5.176  -0.134  0.00  0.00     0.153 C 
BRANCH  18  19
ATOM     19  C11 <0> d          11.613  -6.579  -0.145  0.00  0.00     0.019 A 
ATOM     20  C16 <0> d          10.676  -7.621  -0.142  0.00  0.00     0.094 A 
ATOM     21  C15 <0> d          11.112  -8.937  -0.158  0.00  0.00     0.046 A 
ATOM     22  C14 <0> d          12.465  -9.219  -0.167  0.00  0.00     0.041 A 
ATOM     23 Br1  <0> d           9.853 -10.348  -0.160  0.00  0.00    -0.048 Br
ATOM     24  C13 <0> d          13.395  -8.192  -0.165  0.00  0.00     0.013 A 
ATOM     25  C12 <0> d          12.977  -6.877  -0.155  0.00  0.00     0.035 A 
ATOM     26 Br2  <0> d          15.242  -8.593  -0.178  0.00  0.00    -0.051 Br
BRANCH  20  27
ATOM     27  O4  <0> d           9.347  -7.343  -0.127  0.00  0.00    -0.358 OA
ATOM     28  H13 <0> d           8.953  -7.258  -1.006  0.00  0.00     0.217 HD
ENDBRANCH  20  27
ENDBRANCH  18  19
ENDBRANCH   3  17
TORSDOF 7
