REMARK  2 active torsions:
REMARK  status: ('A' for Active; 'I' for Inactive)
REMARK    1  A    between atoms: C11_12  and  S1_16 
REMARK    2  A    between atoms: S1_16  and  C13_19 
ROOT
ATOM      1  C1  <0> d          -0.013   1.086   0.008  0.00  0.00     0.071 C 
ATOM      2  C2  <0> d          -0.729   1.579   1.267  0.00  0.00     0.139 C 
ATOM      3  C3  <0> d          -2.176   1.070   1.270  0.00  0.00     0.072 C 
ATOM      4  C4  <0> d          -2.789   1.474   2.631  0.00  0.00     0.054 C 
ATOM      5  C5  <0> d          -2.499   2.926   2.914  0.00  0.00    -0.019 A 
ATOM      6  C6  <0> d          -3.247   3.578   3.881  0.00  0.00     0.010 A 
ATOM      7  C7  <0> d          -3.008   4.907   4.168  0.00  0.00     0.001 A 
ATOM      8  C8  <0> d          -2.019   5.595   3.489  0.00  0.00     0.003 A 
ATOM      9  C9  <0> d          -1.271   4.951   2.524  0.00  0.00     0.037 A 
ATOM     10  C10 <0> d          -1.509   3.612   2.233  0.00  0.00     0.078 A 
ATOM     11  O1  <0> d          -0.753   3.010   1.277  0.00  0.00    -0.320 OA
ATOM     12  C11 <0> d          -2.127   0.610   3.712  0.00  0.00     0.214 C 
ATOM     13  C12 <0> d          -0.634   0.672   3.559  0.00  0.00     0.239 C 
ATOM     14  O2  <0> d           0.055   0.315   4.492  0.00  0.00    -0.272 OA
ATOM     15  N1  <0> d          -0.026   1.098   2.451  0.00  0.00    -0.328 N 
ATOM     16  H12 <0> d           0.943   1.087   2.431  0.00  0.00     0.165 HD
ENDROOT
BRANCH  12  17
ATOM     17  S1  <0> d          -2.593   1.232   5.351  0.00  0.00     0.189 S 
ATOM     18  O3  <0> d          -2.109   2.557   5.528  0.00  0.00    -0.222 OA
ATOM     19  O4  <0> d          -3.950   0.914   5.628  0.00  0.00    -0.222 OA
BRANCH  17  20
ATOM     20  C13 <0> d          -1.662   0.258   6.487  0.00  0.00     0.060 A 
ATOM     21  C18 <0> d          -0.404   0.672   6.883  0.00  0.00     0.023 A 
ATOM     22  C17 <0> d           0.326  -0.092   7.774  0.00  0.00     0.002 A 
ATOM     23  C16 <0> d          -0.202  -1.270   8.268  0.00  0.00     0.000 A 
ATOM     24  C15 <0> d          -1.460  -1.684   7.872  0.00  0.00     0.002 A 
ATOM     25  C14 <0> d          -2.192  -0.918   6.985  0.00  0.00     0.023 A 
ENDBRANCH  17  20
ENDBRANCH  12  17
TORSDOF 2
