REMARK  5 active torsions:
REMARK  status: ('A' for Active; 'I' for Inactive)
REMARK    1  A    between atoms: C14_16  and  C15_17 
REMARK    2  A    between atoms: C15_17  and  N1_18 
REMARK    3  A    between atoms: N1_18  and  C16_19 
REMARK    4  A    between atoms: C16_19  and  C17_20 
REMARK    5  A    between atoms: C17_20  and  C18_21 
ROOT
ATOM      1  C1  <0> d          -0.019   1.526   0.010  0.00  0.00     0.016 C 
ATOM      2  C2  <0> d           0.002  -0.004   0.002  0.00  0.00    -0.034 C 
ATOM      3  C3  <0> d          -1.432  -0.527   0.024  0.00  0.00     0.010 C 
ATOM      4  C4  <0> d          -2.178   0.072   1.220  0.00  0.00     0.005 C 
ATOM      5  C5  <0> d          -1.511  -0.381   2.522  0.00  0.00     0.034 C 
ATOM      6  C6  <0> d          -0.038  -0.043   2.462  0.00  0.00    -0.084 C 
ATOM      7  C7  <0> d           0.543   0.627   3.426  0.00  0.00     0.014 C 
ATOM      8  C8  <0> d           0.745  -0.507   1.247  0.00  0.00     0.022 C 
ATOM      9  C9  <0> d           0.728  -2.037   1.224  0.00  0.00     0.018 C 
ATOM     10  C10 <0> d           1.362  -2.593  -0.023  0.00  0.00     0.031 C 
ATOM     11  C11 <0> d           0.800  -1.988  -1.326  0.00  0.00     0.137 C 
ATOM     12  C12 <0> d           0.722  -0.489  -1.246  0.00  0.00     0.042 C 
ATOM     13  O1  <0> d           1.870  -2.303  -2.263  0.00  0.00    -0.315 OA
ATOM     14  C13 <0> d           3.042  -2.041  -1.643  0.00  0.00     0.265 C 
ATOM     15  O2  <0> d           4.065  -1.699  -2.187  0.00  0.00    -0.265 OA
ATOM     16  C14 <0> d           2.854  -2.233  -0.155  0.00  0.00     0.117 C 
ENDROOT
BRANCH  16  17
ATOM     17  C15 <0> d           3.733  -3.382   0.344  0.00  0.00     0.247 C 
BRANCH  17  18
ATOM     18  N1  <0> d           5.142  -2.966   0.319  0.00  0.00    -0.074 N 
ATOM     19  H22 <0> d           5.405  -2.727  -0.625  0.00  0.00     0.277 HD
ATOM     20  H34 <0> d           5.267  -2.163   0.917  0.00  0.00     0.277 HD
BRANCH  18  21
ATOM     21  C16 <0> d           5.986  -4.069   0.797  0.00  0.00     0.236 C 
BRANCH  21  22
ATOM     22  C17 <0> d           7.454  -3.637   0.771  0.00  0.00     0.064 C 
BRANCH  22  23
ATOM     23  C18 <0> d           8.320  -4.768   1.262  0.00  0.00    -0.048 A 
ATOM     24  C25 <0> d           8.655  -5.098   2.700  0.00  0.00     0.155 A 
ATOM     25  N2  <0> d           9.521  -6.282   2.649  0.00  0.00    -0.385 N 
ATOM     26  C24 <0> d           9.697  -6.618   1.394  0.00  0.00     0.038 A 
ATOM     27  H33 <0> d           9.903  -6.737   3.415  0.00  0.00     0.160 HD
ATOM     28  C19 <0> d           8.959  -5.690   0.507  0.00  0.00    -0.006 A 
ATOM     29  C23 <0> d          10.439  -7.670   0.790  0.00  0.00     0.030 A 
ATOM     30  C20 <0> d           9.034  -5.909  -0.943  0.00  0.00     0.014 A 
ATOM     31  C21 <0> d           9.771  -6.941  -1.413  0.00  0.00     0.001 A 
ATOM     32  C22 <0> d          10.461  -7.806  -0.553  0.00  0.00     0.002 A 
ENDBRANCH  22  23
ENDBRANCH  21  22
ENDBRANCH  18  21
ENDBRANCH  17  18
ENDBRANCH  16  17
TORSDOF 5
