REMARK  8 active torsions:
REMARK  status: ('A' for Active; 'I' for Inactive)
REMARK    1  A    between atoms: C5_5  and  C6_7 
REMARK    2  A    between atoms: C6_7  and  C7_8 
REMARK    3  A    between atoms: C6_7  and  C19_23 
REMARK    4  A    between atoms: C6_7  and  O3_27 
REMARK    5  A    between atoms: C7_8  and  C8_9 
REMARK    6  A    between atoms: C8_9  and  N1_10 
REMARK       I    between atoms: N1_10  and  C9_11 
REMARK    7  A    between atoms: C9_11  and  C10_13 
REMARK    8  A    between atoms: C10_13  and  C11_14 
ROOT
ATOM      1  C8  <0> d           4.466  -2.398   3.133  0.00  0.00     0.126 C 
ENDROOT
BRANCH   1   2
ATOM      2  C7  <0> d           3.207  -2.228   2.281  0.00  0.00     0.074 C 
BRANCH   2   3
ATOM      3  C6  <0> d           3.218  -0.846   1.625  0.00  0.00     0.205 C 
BRANCH   3   4
ATOM      4  C5  <0> d           3.266   0.217   2.693  0.00  0.00     0.086 C 
ATOM      5  C4  <0> d           2.193   0.815   3.163  0.00  0.00     0.011 C 
ATOM      6  C3  <0> d           2.653   1.820   4.205  0.00  0.00     0.061 C 
ATOM      7  C2  <0> d           4.170   1.910   3.905  0.00  0.00     0.128 C 
ATOM      8  C1  <0> d           4.472   3.076   2.960  0.00  0.00     0.040 C 
ATOM      9  O1  <0> d           4.418   0.646   3.259  0.00  0.00    -0.347 OA
ENDBRANCH   3   4
BRANCH   3  10
ATOM     10  C19 <0> d           1.951  -0.669   0.787  0.00  0.00     0.424 C 
ATOM     11  F1  <0> d           1.895   0.640   0.296  0.00  0.00    -0.167 F 
ATOM     12  F2  <0> d           1.971  -1.568  -0.285  0.00  0.00    -0.167 F 
ATOM     13  F3  <0> d           0.827  -0.916   1.582  0.00  0.00    -0.167 F 
ENDBRANCH   3  10
BRANCH   3  14
ATOM     14  O3  <0> d           4.367  -0.727   0.783  0.00  0.00    -0.375 OA
ATOM     15  H21 <0> d           5.208  -0.829   1.249  0.00  0.00     0.211 HD
ENDBRANCH   3  14
ENDBRANCH   2   3
ENDBRANCH   1   2
BRANCH   1  16
ATOM     16  N1  <0> d           4.510  -3.760   3.672  0.00  0.00    -0.361 N 
ATOM     17  C9  <0> d           5.537  -4.141   4.457  0.00  0.00     0.221 C 
ATOM     18  O2  <0> d           6.424  -3.356   4.718  0.00  0.00    -0.273 OA
ATOM     19  H12 <0> d           3.801  -4.388   3.463  0.00  0.00     0.162 HD
BRANCH  17  20
ATOM     20  C10 <0> d           5.583  -5.542   5.011  0.00  0.00     0.139 C 
BRANCH  20  21
ATOM     21  C11 <0> d           6.823  -5.710   5.851  0.00  0.00    -0.041 A 
ATOM     22  C18 <0> d           8.208  -6.077   5.364  0.00  0.00     0.155 A 
ATOM     23  N2  <0> d           9.058  -6.111   6.559  0.00  0.00    -0.385 N 
ATOM     24  C17 <0> d           8.321  -5.823   7.605  0.00  0.00     0.038 A 
ATOM     25  H22 <0> d          10.006  -6.315   6.574  0.00  0.00     0.160 HD
ATOM     26  C12 <0> d           6.923  -5.569   7.192  0.00  0.00    -0.005 A 
ATOM     27  C16 <0> d           8.638  -5.724   8.988  0.00  0.00     0.030 A 
ATOM     28  C13 <0> d           5.943  -5.229   8.231  0.00  0.00     0.014 A 
ATOM     29  C14 <0> d           6.351  -5.161   9.519  0.00  0.00     0.001 A 
ATOM     30  C15 <0> d           7.681  -5.406   9.885  0.00  0.00     0.002 A 
ENDBRANCH  20  21
ENDBRANCH  17  20
ENDBRANCH   1  16
TORSDOF 8
