REMARK  4 active torsions:
REMARK  status: ('A' for Active; 'I' for Inactive)
REMARK    1  A    between atoms: C6_6  and  S1_7 
REMARK    2  A    between atoms: S1_7  and  N1_10 
REMARK    3  A    between atoms: N1_10  and  C7_11 
REMARK    4  A    between atoms: C7_11  and  C8_12 
ROOT
ATOM      1  S1  <0> d          -0.480   8.914  -4.027  0.00  0.00     0.259 S 
ATOM      2  O1  <0> d          -1.614   9.117  -4.860  0.00  0.00    -0.201 OA
ATOM      3  O2  <0> d          -0.314   9.589  -2.788  0.00  0.00    -0.201 OA
ENDROOT
BRANCH   1   4
ATOM      4  C6  <0> d           0.936   9.297  -5.003  0.00  0.00     0.081 A 
ATOM      5  C1  <0> d           0.864   9.219  -6.383  0.00  0.00     0.027 A 
ATOM      6  C2  <0> d           1.969   9.517  -7.156  0.00  0.00     0.033 A 
ATOM      7  C3  <0> d           3.156   9.895  -6.547  0.00  0.00     0.063 A 
ATOM      8  N3  <0> d           4.411  10.249  -7.037  0.00  0.00    -0.307 N 
ATOM      9  C4  <0> d           3.229   9.974  -5.155  0.00  0.00     0.064 A 
ATOM     10  C17 <0> d           5.210  10.530  -5.990  0.00  0.00     0.325 A 
ATOM     11  H2  <0> d           4.666  10.287  -7.972  0.00  0.00     0.170 HD
ATOM     12  N2  <0> d           4.526  10.374  -4.842  0.00  0.00    -0.306 N 
ATOM     13  O5  <0> d           6.375  10.875  -6.071  0.00  0.00    -0.247 OA
ATOM     14  H1  <0> d           4.876  10.515  -3.948  0.00  0.00     0.170 HD
ATOM     15  C5  <0> d           2.113   9.678  -4.387  0.00  0.00     0.057 A 
ENDBRANCH   1   4
BRANCH   1  16
ATOM     16  N1  <0> d          -0.422   7.293  -3.695  0.00  0.00    -0.311 N 
ATOM     17  H6  <0> d          -1.105   6.700  -4.047  0.00  0.00     0.172 HD
BRANCH  16  18
ATOM     18  C7  <0> d           0.661   6.753  -2.869  0.00  0.00     0.171 C 
BRANCH  18  19
ATOM     19  C8  <0> d           0.299   5.363  -2.412  0.00  0.00    -0.035 A 
ATOM     20  C13 <0> d           0.653   4.271  -3.182  0.00  0.00     0.035 A 
ATOM     21  C12 <0> d           0.324   2.991  -2.769  0.00  0.00     0.070 A 
ATOM     22  C11 <0> d          -0.361   2.809  -1.579  0.00  0.00     0.123 A 
ATOM     23 Cl1  <0> d           0.769   1.621  -3.737  0.00  0.00    -0.081 Cl
ATOM     24  C10 <0> d          -0.717   3.906  -0.807  0.00  0.00     0.104 A 
ATOM     25  O3  <0> d          -0.692   1.553  -1.159  0.00  0.00    -0.346 OA
ATOM     26  C9  <0> d          -0.386   5.184  -1.223  0.00  0.00     0.048 A 
ATOM     27  O4  <0> d          -1.394   3.716   0.363  0.00  0.00    -0.348 OA
ATOM     28  C16 <0> d          -0.662   3.083   1.413  0.00  0.00     0.178 C 
ATOM     29  C15 <0> d          -0.712   1.570   1.269  0.00  0.00     0.053 C 
ATOM     30  C14 <0> d          -0.013   1.086   0.008  0.00  0.00     0.178 C 
ENDBRANCH  18  19
ENDBRANCH  16  18
ENDBRANCH   1  16
TORSDOF 4
