REMARK  6 active torsions:
REMARK  status: ('A' for Active; 'I' for Inactive)
REMARK    1  A    between atoms: C2_2  and  O1_3 
REMARK    2  A    between atoms: O1_3  and  C3_4 
REMARK    3  A    between atoms: C3_4  and  C4_6 
REMARK    4  A    between atoms: C5_7  and  C16_21 
REMARK    5  A    between atoms: C7_12  and  C8_13 
REMARK    6  A    between atoms: C16_21  and  N3_22 
ROOT
ATOM      1  C4  <0> d          -0.143   2.501  -1.959  0.00  0.00     0.069 A 
ATOM      2  C5  <0> d          -0.670   1.489  -1.237  0.00  0.00     0.056 A 
ATOM      3  N1  <0> d          -1.893   0.966  -1.545  0.00  0.00    -0.310 N 
ATOM      4  C6  <0> d          -2.657   1.407  -2.552  0.00  0.00     0.321 A 
ATOM      5  O3  <0> d          -3.736   0.881  -2.746  0.00  0.00    -0.247 OA
ATOM      6  N2  <0> d          -2.267   2.411  -3.362  0.00  0.00    -0.330 N 
ATOM      7  C7  <0> d          -0.958   3.040  -3.117  0.00  0.00     0.161 A 
ATOM      8  H7  <0> d          -2.301   0.135  -0.951  0.00  0.00     0.170 HD
ATOM      9  H8  <0> d          -2.900   2.763  -4.189  0.00  0.00     0.165 HD
ENDROOT
BRANCH   2  10
ATOM     10  C16 <0> d           0.107   0.923  -0.077  0.00  0.00     0.330 C 
BRANCH  10  11
ATOM     11  N3  <0> d          -0.625   1.173   1.172  0.00  0.00     0.097 N 
ATOM     12  C20 <0> d          -0.024   0.436   2.292  0.00  0.00     0.300 C 
ATOM     13  C19 <0> d          -0.861   0.659   3.554  0.00  0.00     0.264 C 
ATOM     14  N4  <0> d          -0.924   2.098   3.848  0.00  0.00    -0.072 N 
ATOM     15  C18 <0> d          -1.525   2.835   2.728  0.00  0.00     0.264 C 
ATOM     16  C21 <0> d          -1.657   2.348   5.096  0.00  0.00     0.269 C 
ATOM     17  H31 <0> d           0.104   2.463   3.982  0.00  0.00     0.279 HD
ATOM     18  C17 <0> d          -0.689   2.612   1.466  0.00  0.00     0.300 C 
ENDBRANCH  10  11
ENDBRANCH   2  10
BRANCH   1  19
ATOM     19  C3  <0> d           1.127   3.040  -1.644  0.00  0.00     0.293 C 
ATOM     20  O2  <0> d           1.208   4.072  -1.005  0.00  0.00    -0.259 OA
BRANCH  19  21
ATOM     21  O1  <0> d           2.247   2.410  -2.053  0.00  0.00    -0.318 OA
BRANCH  21  22
ATOM     22  C2  <0> d           3.494   2.946  -1.605  0.00  0.00     0.174 C 
ATOM     23  C1  <0> d           4.644   2.179  -2.260  0.00  0.00     0.034 C 
ENDBRANCH  21  22
ENDBRANCH  19  21
ENDBRANCH   1  19
BRANCH   7  24
ATOM     24  C8  <0> d          -1.187   4.511  -2.879  0.00  0.00    -0.025 A 
ATOM     25  C13 <0> d          -0.284   5.438  -3.363  0.00  0.00    -0.053 A 
ATOM     26  C12 <0> d          -0.494   6.787  -3.146  0.00  0.00     0.014 A 
ATOM     27  C14 <0> d           0.931   4.979  -4.129  0.00  0.00     0.049 C 
ATOM     28  C11 <0> d          -1.608   7.208  -2.444  0.00  0.00    -0.061 A 
ATOM     29  C10 <0> d          -2.511   6.280  -1.959  0.00  0.00     0.007 A 
ATOM     30  C15 <0> d          -1.837   8.678  -2.206  0.00  0.00     0.048 C 
ATOM     31  C9  <0> d          -2.304   4.932  -2.182  0.00  0.00     0.011 A 
ENDBRANCH   7  24
TORSDOF 6
