REMARK  5 active torsions:
REMARK  status: ('A' for Active; 'I' for Inactive)
REMARK    1  A    between atoms: C4_4  and  N3_20 
REMARK    2  A    between atoms: C8_8  and  O2_12 
REMARK    3  A    between atoms: O2_12  and  C11_13 
REMARK    4  A    between atoms: C11_13  and  C12_14 
REMARK    5  A    between atoms: C12_14  and  N1_15 
ROOT
ATOM      1  C1  <0> d          -0.019   1.526   0.010  0.00  0.00     0.046 C 
ATOM      2  C2  <0> d           0.002  -0.004   0.002  0.00  0.00     0.063 C 
ATOM      3  C3  <0> d           0.743  -0.504  -1.245  0.00  0.00     0.075 C 
ATOM      4  C4  <0> d           0.649  -2.031  -1.280  0.00  0.00     0.222 C 
ATOM      5  C5  <0> d           1.015  -2.593   0.070  0.00  0.00     0.006 A 
ATOM      6  C6  <0> d           1.360  -3.932   0.163  0.00  0.00     0.015 A 
ATOM      7  C7  <0> d           1.698  -4.484   1.381  0.00  0.00     0.037 A 
ATOM      8  C8  <0> d           1.692  -3.695   2.524  0.00  0.00     0.071 A 
ATOM      9  C9  <0> d           1.349  -2.357   2.435  0.00  0.00     0.074 A 
ATOM     10  C10 <0> d           1.012  -1.802   1.206  0.00  0.00     0.081 A 
ATOM     11  O1  <0> d           0.692  -0.482   1.157  0.00  0.00    -0.340 OA
ATOM     12  C16 <0> d          -1.431  -0.539  -0.000  0.00  0.00     0.046 C 
ENDROOT
BRANCH   8  13
ATOM     13  O2  <0> d           2.022  -4.236   3.726  0.00  0.00    -0.349 OA
BRANCH  13  14
ATOM     14  C11 <0> d           2.365  -5.623   3.742  0.00  0.00     0.196 C 
BRANCH  14  15
ATOM     15  C12 <0> d           2.703  -6.049   5.172  0.00  0.00     0.156 C 
BRANCH  15  16
ATOM     16  N1  <0> d           3.054  -7.471   5.188  0.00  0.00    -0.348 N 
ATOM     17  C15 <0> d           4.289  -7.993   5.025  0.00  0.00     0.209 A 
ATOM     18  N2  <0> d           4.207  -9.293   5.104  0.00  0.00    -0.255 NA
ATOM     19  C14 <0> d           2.929  -9.644   5.309  0.00  0.00     0.135 A 
ATOM     20  C13 <0> d           2.192  -8.519   5.365  0.00  0.00     0.111 A 
ENDBRANCH  15  16
ENDBRANCH  14  15
ENDBRANCH  13  14
ENDBRANCH   8  13
BRANCH   4  21
ATOM     21  N3  <0> d           1.574  -2.555  -2.294  0.00  0.00    -0.071 N 
ATOM     22  H17 <0> d           2.517  -2.281  -2.062  0.00  0.00     0.275 HD
ATOM     23  H18 <0> d           1.512  -3.562  -2.317  0.00  0.00     0.275 HD
ATOM     24  H22 <0> d           1.328  -2.182  -3.198  0.00  0.00     0.275 HD
ENDBRANCH   4  21
TORSDOF 5
