REMARK  3 active torsions:
REMARK  status: ('A' for Active; 'I' for Inactive)
REMARK    1  A    between atoms: N1_6  and  C6_7 
REMARK    2  A    between atoms: N3_10  and  C9_12 
REMARK    3  A    between atoms: C15_18  and  N4_19 
ROOT
ATOM      1  C1  <0> d          -0.018   1.503   0.010  0.00  0.00     0.068 C 
ATOM      2  C2  <0> d           0.002  -0.004   0.002  0.00  0.00     0.014 A 
ATOM      3  C3  <0> d           0.008  -0.790  -1.098  0.00  0.00     0.036 A 
ATOM      4  C4  <0> d           0.028  -2.121  -0.658  0.00  0.00    -0.003 A 
ATOM      5  C5  <0> d           0.035  -2.106   0.695  0.00  0.00     0.026 A 
ATOM      6  N1  <0> d           0.024  -0.810   1.105  0.00  0.00    -0.316 N 
ATOM      7  C12 <0> d           0.060  -3.348   1.552  0.00  0.00     0.067 C 
ATOM      8  C13 <0> d           0.489  -4.532   0.678  0.00  0.00    -0.040 C 
ATOM      9  C14 <0> d          -0.354  -4.557  -0.600  0.00  0.00     0.046 C 
ATOM     10  C15 <0> d           0.039  -3.376  -1.495  0.00  0.00     0.219 C 
ATOM     11  C16 <0> d           1.967  -4.385   0.310  0.00  0.00     0.015 C 
ATOM     12  C17 <0> d           0.284  -5.837   1.450  0.00  0.00     0.015 C 
ENDROOT
BRANCH   6  13
ATOM     13  C6  <0> d           0.029  -0.372   2.444  0.00  0.00     0.075 A 
ATOM     14  C8  <0> d          -0.970   0.303   3.068  0.00  0.00     0.144 A 
ATOM     15  N3  <0> d          -0.575   0.533   4.341  0.00  0.00    -0.275 N 
ATOM     16  N2  <0> d           0.707  -0.007   4.501  0.00  0.00    -0.183 NA
ATOM     17  C7  <0> d           1.070  -0.549   3.367  0.00  0.00     0.170 A 
BRANCH  15  18
ATOM     18  C9  <0> d          -1.351   1.231   5.370  0.00  0.00     0.101 C 
ATOM     19  C10 <0> d          -1.137   2.740   5.234  0.00  0.00     0.034 C 
ATOM     20  C11 <0> d          -2.836   0.909   5.195  0.00  0.00     0.034 C 
ENDBRANCH  15  18
ENDBRANCH   6  13
BRANCH  10  21
ATOM     21  N4  <0> d          -0.926  -3.245  -2.594  0.00  0.00    -0.071 N 
ATOM     22  H19 <0> d          -0.675  -2.456  -3.171  0.00  0.00     0.275 HD
ATOM     23  H20 <0> d          -0.917  -4.086  -3.152  0.00  0.00     0.275 HD
ATOM     24  H27 <0> d          -1.851  -3.104  -2.215  0.00  0.00     0.275 HD
ENDBRANCH  10  21
TORSDOF 3
