REMARK  5 active torsions:
REMARK  status: ('A' for Active; 'I' for Inactive)
REMARK    1  A    between atoms: C6_6  and  N1_9 
REMARK    2  A    between atoms: C10_11  and  C13_15 
REMARK    3  A    between atoms: C13_15  and  O3_17 
REMARK    4  A    between atoms: O3_17  and  C14_18 
REMARK    5  A    between atoms: C14_18  and  C16_20 
REMARK       I    between atoms: C16_20  and  N2_22 
ROOT
ATOM      1  O3  <0> d           2.011   8.027   1.198  0.00  0.00    -0.306 OA
ENDROOT
BRANCH   1   2
ATOM      2  C13 <0> d           1.867   9.210   1.816  0.00  0.00     0.266 C 
ATOM      3  O2  <0> d           0.796   9.767   1.812  0.00  0.00    -0.265 OA
BRANCH   2   4
ATOM      4  C10 <0> d           3.043   9.841   2.516  0.00  0.00     0.112 C 
ATOM      5  C9  <0> d           2.647  11.191   3.154  0.00  0.00     0.147 C 
ATOM      6  N1  <0> d           3.399  11.266   4.411  0.00  0.00    -0.317 N 
ATOM      7  C12 <0> d           3.862  10.058   4.776  0.00  0.00     0.225 C 
ATOM      8  C11 <0> d           3.458   9.017   3.756  0.00  0.00     0.119 C 
ATOM      9  O1  <0> d           4.508   9.835   5.778  0.00  0.00    -0.273 OA
BRANCH   6  10
ATOM     10  C6  <0> d           3.608  12.444   5.138  0.00  0.00     0.043 A 
ATOM     11  C5  <0> d           2.701  12.828   6.116  0.00  0.00     0.030 A 
ATOM     12  C4  <0> d           2.910  13.992   6.831  0.00  0.00     0.003 A 
ATOM     13  C3  <0> d           4.021  14.773   6.573  0.00  0.00     0.007 A 
ATOM     14  C2  <0> d           4.927  14.393   5.600  0.00  0.00    -0.054 A 
ATOM     15  C1  <0> d           6.136  15.247   5.322  0.00  0.00     0.049 C 
ATOM     16  C7  <0> d           4.727  13.228   4.886  0.00  0.00    -0.029 A 
ATOM     17  C8  <0> d           5.718  12.811   3.829  0.00  0.00     0.051 C 
ENDBRANCH   6  10
ENDBRANCH   2   4
ENDBRANCH   1   2
BRANCH   1  18
ATOM     18  C14 <0> d           0.836   7.478   0.545  0.00  0.00     0.220 C 
ATOM     19  C15 <0> d           0.782   7.967  -0.904  0.00  0.00     0.050 C 
BRANCH  18  20
ATOM     20  C16 <0> d           0.907   5.973   0.565  0.00  0.00     0.254 C 
ATOM     21  O4  <0> d           1.855   5.417   1.079  0.00  0.00    -0.270 OA
ATOM     22  N2  <0> d          -0.082   5.244   0.011  0.00  0.00    -0.305 N 
ATOM     23  C20 <0> d          -0.038   3.841   0.018  0.00  0.00     0.064 A 
ATOM     24  C17 <0> d          -1.242   5.893  -0.617  0.00  0.00     0.235 C 
ATOM     25  C19 <0> d          -1.241   3.132   0.029  0.00  0.00     0.061 A 
ATOM     26  C21 <0> d           1.168   3.163   0.005  0.00  0.00     0.032 A 
ATOM     27  N3  <0> d          -2.453   3.831   0.050  0.00  0.00    -0.324 N 
ATOM     28  C24 <0> d          -1.222   1.747   0.017  0.00  0.00     0.032 A 
ATOM     29  C18 <0> d          -2.493   5.148  -0.226  0.00  0.00     0.240 C 
ATOM     30  H21 <0> d          -3.274   3.361   0.266  0.00  0.00     0.169 HD
ATOM     31  O5  <0> d          -3.548   5.743  -0.160  0.00  0.00    -0.271 OA
ATOM     32  C23 <0> d          -0.013   1.076   0.008  0.00  0.00     0.002 A 
ATOM     33  C22 <0> d           1.177   1.780   0.000  0.00  0.00     0.002 A 
ENDBRANCH  18  20
ENDBRANCH   1  18
TORSDOF 5
