REMARK  4 active torsions:
REMARK  status: ('A' for Active; 'I' for Inactive)
REMARK    1  A    between atoms: C4_4  and  C7_7 
REMARK    2  A    between atoms: C10_10  and  C11_12 
REMARK       I    between atoms: C11_12  and  N1_14 
REMARK    3  A    between atoms: C13_16  and  C20_24 
REMARK       I    between atoms: C20_24  and  N3_26 
REMARK    4  A    between atoms: N3_26  and  C21_27 
ROOT
ATOM      1  C11 <0> d           7.021  -0.759  -0.178  0.00  0.00     0.277 C 
ATOM      2  O2  <0> d           7.701  -1.768  -0.228  0.00  0.00    -0.265 OA
ATOM      3  N1  <0> d           7.613   0.451  -0.131  0.00  0.00    -0.345 N 
ATOM      4  C12 <0> d           6.960   1.780  -0.061  0.00  0.00     0.141 C 
ATOM      5  C13 <0> d           7.840   2.596   0.912  0.00  0.00     0.106 C 
ATOM      6  C14 <0> d           9.220   1.919   0.856  0.00  0.00    -0.007 C 
ATOM      7  C15 <0> d           9.065   0.753  -0.131  0.00  0.00     0.136 C 
ATOM      8  C16 <0> d           9.604   1.388   2.234  0.00  0.00     0.039 C 
ATOM      9  C17 <0> d          11.004   0.770   2.165  0.00  0.00     0.233 C 
ATOM     10  N2  <0> d          11.968   1.785   1.723  0.00  0.00    -0.075 N 
ATOM     11  C18 <0> d          11.644   2.223   0.360  0.00  0.00     0.233 C 
ATOM     12  C19 <0> d          10.272   2.902   0.352  0.00  0.00     0.039 C 
ATOM     13  H18 <0> d          11.930   2.577   2.348  0.00  0.00     0.277 HD
ATOM     14  H36 <0> d          12.897   1.393   1.737  0.00  0.00     0.277 HD
ENDROOT
BRANCH   1  15
ATOM     15  C10 <0> d           5.560  -0.860  -0.170  0.00  0.00     0.143 A 
ATOM     16  C9  <0> d           4.829  -2.027  -0.214  0.00  0.00     0.046 A 
ATOM     17  C8  <0> d           3.480  -1.661  -0.185  0.00  0.00     0.041 A 
ATOM     18  C7  <0> d           3.436  -0.297  -0.125  0.00  0.00     0.086 A 
ATOM     19  O1  <0> d           4.694   0.174  -0.122  0.00  0.00    -0.304 OA
BRANCH  18  20
ATOM     20  C4  <0> d           2.209   0.523  -0.077  0.00  0.00    -0.002 A 
ATOM     21  C3  <0> d           2.298   1.916  -0.023  0.00  0.00     0.014 A 
ATOM     22  C2  <0> d           1.147   2.676   0.021  0.00  0.00     0.001 A 
ATOM     23  C1  <0> d          -0.092   2.062   0.011  0.00  0.00     0.000 A 
ATOM     24  C6  <0> d          -0.188   0.682  -0.043  0.00  0.00     0.001 A 
ATOM     25  C5  <0> d           0.954  -0.090  -0.086  0.00  0.00     0.014 A 
ENDBRANCH  18  20
ENDBRANCH   1  15
BRANCH   5  26
ATOM     26  C20 <0> d           7.277   2.531   2.308  0.00  0.00     0.224 C 
ATOM     27  O3  <0> d           6.664   1.549   2.670  0.00  0.00    -0.273 OA
ATOM     28  N3  <0> d           7.456   3.563   3.156  0.00  0.00    -0.354 N 
ATOM     29  H23 <0> d           7.947   4.348   2.867  0.00  0.00     0.162 HD
BRANCH  28  30
ATOM     30  C21 <0> d           6.909   3.500   4.513  0.00  0.00     0.114 C 
ATOM     31  C25 <0> d           7.716   4.422   5.437  0.00  0.00     0.013 C 
ATOM     32  C24 <0> d           7.588   5.861   4.912  0.00  0.00     0.034 C 
ATOM     33  C26 <0> d           7.098   4.363   6.840  0.00  0.00     0.034 C 
ATOM     34  C23 <0> d           6.107   6.248   4.886  0.00  0.00     0.235 C 
ATOM     35  N4  <0> d           5.288   5.133   5.367  0.00  0.00    -0.069 N 
ATOM     36  C22 <0> d           5.451   3.963   4.501  0.00  0.00     0.260 C 
ATOM     37  C27 <0> d           5.632   4.800   6.752  0.00  0.00     0.235 C 
ATOM     38  H35 <0> d           4.322   5.420   5.338  0.00  0.00     0.280 HD
ENDBRANCH  28  30
ENDBRANCH   5  26
TORSDOF 4
