REMARK  4 active torsions:
REMARK  status: ('A' for Active; 'I' for Inactive)
REMARK    1  A    between atoms: C6_6  and  N1_8 
REMARK       I    between atoms: N1_8  and  C8_9 
REMARK    2  A    between atoms: C8_9  and  C9_11 
REMARK    3  A    between atoms: C17_22  and  C19_26 
REMARK       I    between atoms: C19_26  and  N4_28 
REMARK    4  A    between atoms: N4_28  and  C20_29 
ROOT
ATOM      1  C9  <0> d          -0.127  -4.885   3.661  0.00  0.00     0.034 A 
ATOM      2  C10 <0> d          -0.136  -4.185   4.873  0.00  0.00     0.018 A 
ATOM      3  C11 <0> d          -0.224  -4.857   6.060  0.00  0.00     0.020 A 
ATOM      4  C12 <0> d          -0.305  -6.249   6.057  0.00  0.00     0.061 A 
ATOM      5  C13 <0> d          -0.297  -6.959   4.854  0.00  0.00     0.059 A 
ATOM      6  C14 <0> d          -0.213  -6.275   3.649  0.00  0.00     0.048 A 
ATOM      7  N2  <0> d          -0.379  -8.366   4.858  0.00  0.00    -0.282 N 
ATOM      8  C15 <0> d          -0.464  -9.003   6.042  0.00  0.00     0.140 A 
ATOM      9  N3  <0> d          -0.475  -8.360   7.196  0.00  0.00    -0.194 NA
ATOM     10  C16 <0> d          -0.402  -7.028   7.307  0.00  0.00     0.281 A 
ATOM     11  O2  <0> d          -0.415  -6.481   8.395  0.00  0.00    -0.265 OA
ATOM     12  C17 <0> d          -0.549 -10.534   5.956  0.00  0.00     0.216 A 
ATOM     13  S1  <0> d          -0.488 -10.772   4.138  0.00  0.00    -0.077 SA
ATOM     14  C18 <0> d          -0.371  -9.058   3.678  0.00  0.00     0.148 A 
ATOM     15  S2  <0> d          -0.269  -8.412   2.096  0.00  0.00    -0.052 SA
ENDROOT
BRANCH   1  16
ATOM     16  C8  <0> d          -0.031  -4.142   2.384  0.00  0.00     0.256 C 
ATOM     17  N1  <0> d           0.052  -2.797   2.392  0.00  0.00    -0.323 N 
ATOM     18  H9  <0> d           0.127  -2.320   3.233  0.00  0.00     0.169 HD
ATOM     19  O1  <0> d          -0.028  -4.746   1.329  0.00  0.00    -0.267 OA
BRANCH  17  20
ATOM     20  C6  <0> d           0.031  -2.089   1.186  0.00  0.00     0.035 A 
ATOM     21  C5  <0> d          -0.719  -2.559   0.116  0.00  0.00     0.029 A 
ATOM     22  C4  <0> d          -0.738  -1.857  -1.073  0.00  0.00     0.003 A 
ATOM     23  C3  <0> d          -0.012  -0.687  -1.199  0.00  0.00     0.007 A 
ATOM     24  C2  <0> d           0.735  -0.215  -0.135  0.00  0.00    -0.060 A 
ATOM     25  C1  <0> d           1.525   1.060  -0.276  0.00  0.00     0.048 C 
ATOM     26  C7  <0> d           0.763  -0.915   1.055  0.00  0.00     0.036 A 
ENDBRANCH  17  20
ENDBRANCH   1  16
BRANCH  12  27
ATOM     27  C19 <0> d           0.631 -11.184   6.631  0.00  0.00     0.239 C 
ATOM     28  O3  <0> d           1.701 -10.614   6.663  0.00  0.00    -0.272 OA
ATOM     29  N4  <0> d           0.497 -12.398   7.201  0.00  0.00    -0.356 N 
ATOM     30  H13 <0> d          -0.359 -12.854   7.175  0.00  0.00     0.162 HD
BRANCH  29  31
ATOM     31  C20 <0> d           1.644 -13.030   7.857  0.00  0.00     0.076 C 
ATOM     32  C21 <0> d           1.746 -12.528   9.299  0.00  0.00     0.032 C 
ATOM     33  C22 <0> d           1.458 -14.549   7.858  0.00  0.00     0.032 C 
ENDBRANCH  29  31
ENDBRANCH  12  27
TORSDOF 4
