REMARK  7 active torsions:
REMARK  status: ('A' for Active; 'I' for Inactive)
REMARK    1  A    between atoms: C5_5  and  O1_8 
REMARK    2  A    between atoms: O1_8  and  C7_9 
REMARK    3  A    between atoms: C7_9  and  C8_10 
REMARK    4  A    between atoms: C8_10  and  N1_11 
REMARK    5  A    between atoms: N1_11  and  C9_12 
REMARK    6  A    between atoms: C9_12  and  C10_13 
REMARK    7  A    between atoms: C10_13  and  O2_14 
ROOT
ATOM      1  O1  <0> d          -2.403   1.870   0.024  0.00  0.00    -0.346 OA
ENDROOT
BRANCH   1   2
ATOM      2  C5  <0> d          -1.234   2.564   0.022  0.00  0.00     0.107 A 
ATOM      3  C4  <0> d          -0.024   1.887   0.012  0.00  0.00     0.047 A 
ATOM      4  C3  <0> d           1.164   2.595   0.005  0.00  0.00     0.046 A 
ATOM      5 Br1  <0> d           0.002  -0.004   0.002  0.00  0.00    -0.048 Br
ATOM      6  C2  <0> d           1.146   3.978   0.012  0.00  0.00     0.037 A 
ATOM      7  C1  <0> d          -0.060   4.656   0.027  0.00  0.00     0.050 A 
ATOM      8 Cl2  <0> d           2.639   4.864   0.002  0.00  0.00    -0.084 Cl
ATOM      9  C6  <0> d          -1.250   3.953   0.034  0.00  0.00     0.070 A 
ATOM     10 Cl1  <0> d          -2.763   4.804   0.053  0.00  0.00    -0.081 Cl
ENDBRANCH   1   2
BRANCH   1  11
ATOM     11  C7  <0> d          -2.955   1.532   1.298  0.00  0.00     0.203 C 
BRANCH  11  12
ATOM     12  C8  <0> d          -4.260   0.759   1.100  0.00  0.00     0.259 C 
BRANCH  12  13
ATOM     13  N1  <0> d          -3.973  -0.526   0.448  0.00  0.00    -0.071 N 
ATOM     14  H7  <0> d          -3.503  -0.344  -0.530  0.00  0.00     0.277 HD
ATOM     15  H13 <0> d          -3.291  -1.114   1.079  0.00  0.00     0.277 HD
BRANCH  13  16
ATOM     16  C9  <0> d          -5.206  -1.298   0.241  0.00  0.00     0.258 C 
BRANCH  16  17
ATOM     17  C10 <0> d          -4.868  -2.626  -0.439  0.00  0.00     0.191 C 
BRANCH  17  18
ATOM     18  O2  <0> d          -4.068  -3.420   0.439  0.00  0.00    -0.399 OA
ATOM     19  H12 <0> d          -3.725  -4.416   0.120  0.00  0.00     0.209 HD
ENDBRANCH  17  18
ENDBRANCH  16  17
ENDBRANCH  13  16
ENDBRANCH  12  13
ENDBRANCH  11  12
ENDBRANCH   1  11
TORSDOF 7
