REMARK  5 active torsions:
REMARK  status: ('A' for Active; 'I' for Inactive)
REMARK    1  A    between atoms: C2_2  and  C3_3 
REMARK    2  A    between atoms: C2_2  and  C14_19 
REMARK    3  A    between atoms: C3_3  and  N1_4 
REMARK       I    between atoms: N1_4  and  C4_5 
REMARK    4  A    between atoms: C4_5  and  C5_7 
REMARK    5  A    between atoms: C14_19  and  N3_20 
ROOT
ATOM      1  N1  <0> d           0.000  -0.128   2.444  0.00  0.00    -0.356 N 
ATOM      2  C4  <0> d           0.457  -0.484   3.661  0.00  0.00     0.257 C 
ATOM      3  O1  <0> d           1.442  -1.191   3.759  0.00  0.00    -0.267 OA
ATOM      4  H8  <0> d          -0.827   0.373   2.364  0.00  0.00     0.162 HD
ENDROOT
BRANCH   2   5
ATOM      5  C5  <0> d          -0.237  -0.018   4.873  0.00  0.00     0.100 A 
ATOM      6  C13 <0> d          -1.493   0.734   4.767  0.00  0.00     0.261 A 
ATOM      7  N2  <0> d          -2.126   1.153   5.878  0.00  0.00    -0.322 N 
ATOM      8  O2  <0> d          -1.965   0.976   3.671  0.00  0.00    -0.267 OA
ATOM      9  C12 <0> d          -1.607   0.896   7.129  0.00  0.00     0.045 A 
ATOM     10  H1  <0> d          -2.958   1.646   5.798  0.00  0.00     0.169 HD
ATOM     11  C7  <0> d          -0.401   0.183   7.272  0.00  0.00    -0.008 A 
ATOM     12  C11 <0> d          -2.274   1.343   8.268  0.00  0.00     0.030 A 
ATOM     13  C6  <0> d           0.289  -0.279   6.125  0.00  0.00     0.036 A 
ATOM     14  C8  <0> d           0.111  -0.067   8.555  0.00  0.00     0.014 A 
ATOM     15  C9  <0> d          -0.562   0.382   9.654  0.00  0.00     0.001 A 
ATOM     16  C10 <0> d          -1.751   1.085   9.516  0.00  0.00     0.002 A 
ENDBRANCH   2   5
BRANCH   1  17
ATOM     17  C3  <0> d           0.753  -0.497   1.243  0.00  0.00     0.128 C 
BRANCH  17  18
ATOM     18  C2  <0> d           0.023   0.025   0.003  0.00  0.00     0.019 C 
ATOM     19  C1  <0> d           0.015   1.554   0.022  0.00  0.00     0.013 C 
BRANCH  18  20
ATOM     20  C14 <0> d           0.741  -0.467  -1.256  0.00  0.00     0.156 C 
BRANCH  20  21
ATOM     21  N3  <0> d          -0.023  -0.068  -2.440  0.00  0.00    -0.281 N 
ATOM     22  N4  <0> d          -1.372  -0.357  -2.686  0.00  0.00    -0.185 NA
ATOM     23  C17 <0> d          -1.698   0.167  -3.840  0.00  0.00     0.140 A 
ATOM     24  C16 <0> d          -0.566   0.795  -4.370  0.00  0.00     0.040 A 
ATOM     25  C15 <0> d           0.449   0.636  -3.490  0.00  0.00     0.113 A 
ENDBRANCH  20  21
ENDBRANCH  18  20
ENDBRANCH  17  18
ENDBRANCH   1  17
TORSDOF 5
