REMARK  10 active torsions:
REMARK  status: ('A' for Active; 'I' for Inactive)
REMARK    1  A    between atoms: C2_2  and  C3_3 
REMARK    2  A    between atoms: C3_3  and  C4_4 
REMARK    3  A    between atoms: C3_3  and  N1_6 
REMARK    4  A    between atoms: C4_4  and  O1_5 
REMARK    5  A    between atoms: N1_6  and  C5_7 
REMARK    6  A    between atoms: C5_7  and  C6_8 
REMARK    7  A    between atoms: C10_12  and  O2_14 
REMARK    8  A    between atoms: O2_14  and  C12_15 
REMARK    9  A    between atoms: C12_15  and  C13_16 
REMARK       I    between atoms: C13_16  and  N2_18 
REMARK   10  A    between atoms: N2_18  and  C14_19 
ROOT
ATOM      1  C6  <0> d          -2.628   1.956  -2.403  0.00  0.00    -0.030 A 
ATOM      2  C7  <0> d          -1.865   2.103  -3.547  0.00  0.00     0.009 A 
ATOM      3  C8  <0> d          -2.451   2.542  -4.720  0.00  0.00     0.003 A 
ATOM      4  C9  <0> d          -3.801   2.836  -4.751  0.00  0.00     0.037 A 
ATOM      5  C10 <0> d          -4.568   2.689  -3.604  0.00  0.00     0.070 A 
ATOM      6  C11 <0> d          -3.978   2.242  -2.431  0.00  0.00     0.045 A 
ENDROOT
BRANCH   5   7
ATOM      7  O2  <0> d          -5.896   2.977  -3.632  0.00  0.00    -0.342 OA
BRANCH   7   8
ATOM      8  C12 <0> d          -6.436   3.426  -4.877  0.00  0.00     0.278 C 
BRANCH   8   9
ATOM      9  C13 <0> d          -7.910   3.695  -4.717  0.00  0.00     0.246 C 
ATOM     10  O3  <0> d          -8.446   3.518  -3.643  0.00  0.00    -0.271 OA
ATOM     11  N2  <0> d          -8.634   4.130  -5.767  0.00  0.00    -0.325 N 
ATOM     12  H19 <0> d          -8.224   4.200  -6.643  0.00  0.00     0.169 HD
BRANCH  11  13
ATOM     13  C14 <0> d          -9.977   4.481  -5.593  0.00  0.00     0.034 A 
ATOM     14  C19 <0> d         -10.395   5.071  -4.407  0.00  0.00     0.030 A 
ATOM     15  C18 <0> d         -11.721   5.422  -4.242  0.00  0.00     0.009 A 
ATOM     16  C17 <0> d         -12.634   5.176  -5.251  0.00  0.00    -0.062 A 
ATOM     17  C16 <0> d         -12.222   4.584  -6.431  0.00  0.00     0.009 A 
ATOM     18  C20 <0> d         -14.081   5.554  -5.064  0.00  0.00     0.048 C 
ATOM     19  C15 <0> d         -10.897   4.237  -6.605  0.00  0.00     0.030 A 
ENDBRANCH  11  13
ENDBRANCH   8   9
ENDBRANCH   7   8
ENDBRANCH   5   7
BRANCH   1  20
ATOM     20  C5  <0> d          -1.985   1.477  -1.127  0.00  0.00     0.271 C 
BRANCH  20  21
ATOM     21  N1  <0> d          -2.047   0.011  -1.068  0.00  0.00    -0.065 N 
ATOM     22  H10 <0> d          -1.630  -0.377  -1.901  0.00  0.00     0.278 HD
ATOM     23  H27 <0> d          -3.010  -0.283  -1.006  0.00  0.00     0.278 HD
BRANCH  21  24
ATOM     24  C3  <0> d          -1.314  -0.464   0.114  0.00  0.00     0.209 C 
BRANCH  24  25
ATOM     25  C2  <0> d          -1.249  -1.992   0.094  0.00  0.00     0.030 C 
ATOM     26  C1  <0> d          -0.421  -2.452  -1.107  0.00  0.00     0.007 C 
ENDBRANCH  24  25
BRANCH  24  27
ATOM     27  C4  <0> d          -2.035   0.000   1.381  0.00  0.00     0.197 C 
BRANCH  27  28
ATOM     28  O1  <0> d          -3.317  -0.625   1.456  0.00  0.00    -0.399 OA
ATOM     29  H9  <0> d          -3.831  -0.377   2.236  0.00  0.00     0.209 HD
ENDBRANCH  27  28
ENDBRANCH  24  27
ENDBRANCH  21  24
ENDBRANCH  20  21
ENDBRANCH   1  20
TORSDOF 10
