REMARK  7 active torsions:
REMARK  status: ('A' for Active; 'I' for Inactive)
REMARK    1  A    between atoms: C5_5  and  C8_10 
REMARK    2  A    between atoms: C6_6  and  O1_8 
REMARK    3  A    between atoms: C8_10  and  N2_11 
REMARK       I    between atoms: N2_11  and  C9_12 
REMARK    4  A    between atoms: C9_12  and  C10_14 
REMARK       I    between atoms: C10_14  and  N3_16 
REMARK    5  A    between atoms: N3_16  and  C11_17 
REMARK    6  A    between atoms: C15_21  and  C17_23 
REMARK    7  A    between atoms: C17_23  and  N4_24 
ROOT
ATOM      1  C10 <0> d          -2.896  -6.565   0.686  0.00  0.00     0.313 C 
ATOM      2  O3  <0> d          -3.813  -5.783   0.833  0.00  0.00    -0.262 OA
ATOM      3  N3  <0> d          -3.121  -7.891   0.773  0.00  0.00    -0.319 N 
ATOM      4  H12 <0> d          -2.404  -8.518   0.590  0.00  0.00     0.169 HD
ENDROOT
BRANCH   1   5
ATOM      5  C9  <0> d          -1.519  -6.058   0.409  0.00  0.00     0.309 C 
ATOM      6  N2  <0> d          -1.294  -4.732   0.323  0.00  0.00    -0.349 N 
ATOM      7  H11 <0> d          -2.026  -4.107   0.440  0.00  0.00     0.163 HD
ATOM      8  O2  <0> d          -0.602  -6.840   0.263  0.00  0.00    -0.262 OA
BRANCH   6   9
ATOM      9  C8  <0> d           0.057  -4.234   0.051  0.00  0.00     0.166 C 
BRANCH   9  10
ATOM     10  C5  <0> d           0.038  -2.728   0.005  0.00  0.00     0.012 A 
ATOM     11  C4  <0> d           0.015  -2.064  -1.210  0.00  0.00     0.015 A 
ATOM     12  C3  <0> d          -0.002  -0.677  -1.206  0.00  0.00     0.027 A 
ATOM     13  C2  <0> d           0.003  -0.005   0.001  0.00  0.00     0.033 A 
ATOM     14  C1  <0> d          -0.016   1.502   0.013  0.00  0.00     0.070 C 
ATOM     15  N1  <0> d           0.031  -0.665   1.143  0.00  0.00    -0.229 NA
ATOM     16  C6  <0> d           0.043  -1.987   1.179  0.00  0.00     0.172 A 
BRANCH  16  17
ATOM     17  O1  <0> d           0.065  -2.626   2.376  0.00  0.00    -0.339 OA
ATOM     18  C7  <0> d           0.068  -1.808   3.548  0.00  0.00     0.211 C 
ENDBRANCH  16  17
ENDBRANCH   9  10
ENDBRANCH   6   9
ENDBRANCH   1   5
BRANCH   3  19
ATOM     19  C11 <0> d          -4.388  -8.363   1.127  0.00  0.00     0.035 A 
ATOM     20  C16 <0> d          -5.525  -7.685   0.707  0.00  0.00     0.038 A 
ATOM     21  C15 <0> d          -6.776  -8.158   1.053  0.00  0.00    -0.036 A 
ATOM     22  C14 <0> d          -6.896  -9.297   1.827  0.00  0.00     0.009 A 
ATOM     23  C13 <0> d          -5.766  -9.971   2.252  0.00  0.00     0.003 A 
ATOM     24  C12 <0> d          -4.512  -9.508   1.904  0.00  0.00     0.029 A 
BRANCH  21  25
ATOM     25  C17 <0> d          -8.011  -7.428   0.592  0.00  0.00     0.190 C 
BRANCH  25  26
ATOM     26  N4  <0> d          -8.381  -6.417   1.586  0.00  0.00    -0.258 N 
ATOM     27  N6  <0> d          -8.618  -6.630   2.954  0.00  0.00    -0.164 NA
ATOM     28  C19 <0> d          -8.916  -5.466   3.470  0.00  0.00     0.256 A 
ATOM     29  N5  <0> d          -8.886  -4.545   2.508  0.00  0.00    -0.234 NA
ATOM     30  C18 <0> d          -8.566  -5.104   1.369  0.00  0.00     0.230 A 
ENDBRANCH  25  26
ENDBRANCH  21  25
ENDBRANCH   3  19
TORSDOF 7
