REMARK  3 active torsions:
REMARK  status: ('A' for Active; 'I' for Inactive)
REMARK    1  A    between atoms: S1_2  and  C2_3 
REMARK    2  A    between atoms: C2_3  and  C3_4 
REMARK    3  A    between atoms: C3_4  and  C4_5 
ROOT
ATOM      1  C4  <0> d           1.757  -2.329   2.909  0.00  0.00     0.178 C 
ATOM      2  C5  <0> d           1.953  -3.819   2.968  0.00  0.00     0.245 C 
ATOM      3  O1  <0> d           3.077  -4.261   3.076  0.00  0.00    -0.271 OA
ATOM      4  N1  <0> d           0.930  -4.666   2.906  0.00  0.00    -0.324 N 
ATOM      5  C6  <0> d          -0.398  -4.314   2.735  0.00  0.00     0.050 A 
ATOM      6  C7  <0> d          -1.165  -5.108   1.878  0.00  0.00     0.030 A 
ATOM      7  C8  <0> d          -2.494  -4.825   1.661  0.00  0.00     0.002 A 
ATOM      8  C9  <0> d          -3.088  -3.744   2.293  0.00  0.00     0.001 A 
ATOM      9  C10 <0> d          -2.350  -2.951   3.139  0.00  0.00     0.019 A 
ATOM     10  C11 <0> d          -0.992  -3.224   3.370  0.00  0.00     0.058 A 
ATOM     11  C12 <0> d          -0.263  -2.329   4.277  0.00  0.00     0.254 C 
ATOM     12  O2  <0> d          -0.838  -1.947   5.278  0.00  0.00    -0.268 OA
ATOM     13  N2  <0> d           0.986  -1.904   4.077  0.00  0.00    -0.344 N 
ATOM     14  H9  <0> d           1.131  -5.611   2.987  0.00  0.00     0.169 HD
ATOM     15  H14 <0> d           1.392  -1.303   4.721  0.00  0.00     0.163 HD
ENDROOT
BRANCH   1  16
ATOM     16  C3  <0> d           0.997  -1.962   1.633  0.00  0.00     0.045 C 
BRANCH  16  17
ATOM     17  C2  <0> d           0.902  -0.439   1.516  0.00  0.00     0.076 C 
BRANCH  17  18
ATOM     18  S1  <0> d           0.002  -0.004   0.002  0.00  0.00    -0.173 SA
ATOM     19  C1  <0> d          -0.022   1.810   0.012  0.00  0.00     0.089 C 
ENDBRANCH  17  18
ENDBRANCH  16  17
ENDBRANCH   1  16
TORSDOF 3
