REMARK  7 active torsions:
REMARK  status: ('A' for Active; 'I' for Inactive)
REMARK    1  A    between atoms: C3_4  and  C5_7 
REMARK    2  A    between atoms: N3_8  and  N4_9 
REMARK    3  A    between atoms: N4_9  and  C6_10 
REMARK    4  A    between atoms: C7_12  and  S1_15 
REMARK    5  A    between atoms: S1_15  and  C8_16 
REMARK    6  A    between atoms: C8_16  and  C9_17 
REMARK    7  A    between atoms: C10_20  and  C11_22 
ROOT
ATOM      1  C6  <0> d           0.093  -6.877  -1.229  0.00  0.00     0.739 A 
ATOM      2  N5  <0> d           0.097  -7.140   0.061  0.00  0.00    -0.034 NA
ATOM      3  C7  <0> d           0.119  -8.464   0.250  0.00  0.00     0.226 A 
ATOM      4  N6  <0> d           0.129  -9.061  -0.918  0.00  0.00    -0.132 NA
ATOM      5  N7  <0> d           0.106  -8.052  -1.894  0.00  0.00    -0.103 N 
ATOM      6  H17 <0> d           0.103  -8.174  -2.856  0.00  0.00     0.208 HD
ENDROOT
BRANCH   3   7
ATOM      7  S1  <0> d           0.133  -9.274   1.815  0.00  0.00    -0.080 SA
BRANCH   7   8
ATOM      8  C8  <0> d           0.162 -11.039   1.394  0.00  0.00     0.170 C 
BRANCH   8   9
ATOM      9  C9  <0> d           0.175 -11.857   2.660  0.00  0.00     0.178 A 
ATOM     10  O1  <0> d           1.266 -12.271   3.327  0.00  0.00    -0.276 OA
ATOM     11  C10 <0> d           0.820 -12.962   4.389  0.00  0.00     0.173 A 
ATOM     12  N9  <0> d          -0.482 -12.958   4.339  0.00  0.00    -0.126 NA
ATOM     13  N8  <0> d          -0.867 -12.297   3.305  0.00  0.00    -0.126 NA
BRANCH  11  14
ATOM     14  C11 <0> d           1.670 -13.625   5.442  0.00  0.00     0.065 C 
ATOM     15  C14 <0> d           1.413 -13.097   6.864  0.00  0.00     0.013 C 
ATOM     16  C13 <0> d           1.539 -14.553   7.343  0.00  0.00     0.002 C 
ATOM     17  C12 <0> d           1.111 -14.973   5.927  0.00  0.00     0.013 C 
ENDBRANCH  11  14
ENDBRANCH   8   9
ENDBRANCH   7   8
ENDBRANCH   3   7
BRANCH   1  18
ATOM     18  N4  <0> d           0.072  -5.619  -1.801  0.00  0.00    -0.106 N 
ATOM     19  H7  <0> d           0.066  -5.525  -2.767  0.00  0.00     0.208 HD
BRANCH  18  20
ATOM     20  N3  <0> d           0.060  -4.479  -0.987  0.00  0.00    -0.171 NA
ATOM     21  C5  <0> d           0.041  -3.298  -1.525  0.00  0.00     0.153 C 
BRANCH  21  22
ATOM     22  C3  <0> d           0.028  -2.097  -0.667  0.00  0.00     0.019 A 
ATOM     23  C2  <0> d           0.008  -0.787  -1.096  0.00  0.00     0.126 A 
ATOM     24  N1  <0> d           0.002  -0.004   0.002  0.00  0.00    -0.285 N 
ATOM     25  C1  <0> d          -0.018   1.461   0.010  0.00  0.00     0.179 C 
ATOM     26  N2  <0> d           0.025  -0.829   1.132  0.00  0.00    -0.185 NA
ATOM     27  C4  <0> d           0.035  -2.076   0.744  0.00  0.00     0.153 A 
ENDBRANCH  21  22
ENDBRANCH  18  20
ENDBRANCH   1  18
TORSDOF 7
