REMARK  5 active torsions:
REMARK  status: ('A' for Active; 'I' for Inactive)
REMARK    1  A    between atoms: C4_5  and  C5_6 
REMARK    2  A    between atoms: C5_6  and  N6_27 
REMARK    3  A    between atoms: C7_8  and  N2_21 
REMARK    4  A    between atoms: C9_10  and  C10_11 
REMARK       I    between atoms: C10_11  and  N1_13 
REMARK    5  A    between atoms: N1_13  and  C11_14 
ROOT
ATOM      1  C6  <0> d          -3.587   1.791   0.636  0.00  0.00     0.263 C 
ATOM      2  C7  <0> d          -2.941   2.703   1.701  0.00  0.00     0.141 C 
ATOM      3  C8  <0> d          -1.456   2.804   1.295  0.00  0.00     0.072 C 
ATOM      4  C9  <0> d          -1.330   1.944   0.019  0.00  0.00     0.281 C 
ATOM      5  N6  <0> d          -2.461   1.016   0.119  0.00  0.00    -0.052 N 
ATOM      6  H27 <0> d          -2.234   0.253   0.767  0.00  0.00     0.281 HD
ENDROOT
BRANCH   4   7
ATOM      7  C10 <0> d          -0.014   1.209   0.009  0.00  0.00     0.249 C 
ATOM      8  O2  <0> d           0.002  -0.004   0.002  0.00  0.00    -0.271 OA
ATOM      9  N1  <0> d           1.143   1.898   0.001  0.00  0.00    -0.355 N 
ATOM     10  H12 <0> d           1.130   2.868   0.007  0.00  0.00     0.162 HD
BRANCH   9  11
ATOM     11  C11 <0> d           2.422   1.183  -0.015  0.00  0.00     0.084 C 
ATOM     12  C17 <0> d           3.437   2.045  -0.602  0.00  0.00     0.025 C 
ATOM     13  C16 <0> d           4.806   1.346  -0.719  0.00  0.00     0.002 C 
ATOM     14  C15 <0> d           5.481   1.387   0.625  0.00  0.00     0.000 C 
ATOM     15  C14 <0> d           5.223   0.114   1.454  0.00  0.00     0.000 C 
ATOM     16  C13 <0> d           3.765  -0.374   1.360  0.00  0.00     0.002 C 
ATOM     17  C12 <0> d           2.774   0.757   1.425  0.00  0.00     0.025 C 
ENDBRANCH   9  11
ENDBRANCH   4   7
BRANCH   5  18
ATOM     18  C5  <0> d          -2.785   0.439  -1.224  0.00  0.00     0.276 C 
BRANCH  18  19
ATOM     19  C4  <0> d          -3.758  -0.702  -1.073  0.00  0.00    -0.008 A 
ATOM     20  C1  <0> d          -5.169  -0.612  -1.075  0.00  0.00     0.035 A 
ATOM     21  C2  <0> d          -5.640  -1.861  -0.915  0.00  0.00     0.142 A 
ATOM     22  O1  <0> d          -4.595  -2.699  -0.816  0.00  0.00    -0.334 OA
ATOM     23  C3  <0> d          -3.451  -2.002  -0.916  0.00  0.00     0.150 A 
ENDBRANCH  18  19
ENDBRANCH   5  18
BRANCH   2  24
ATOM     24  N2  <0> d          -3.565   4.028   1.682  0.00  0.00    -0.235 N 
ATOM     25  N5  <0> d          -3.713   4.820   2.690  0.00  0.00    -0.044 NA
ATOM     26  N4  <0> d          -4.299   5.894   2.291  0.00  0.00    -0.024 NA
ATOM     27  N3  <0> d          -4.543   5.805   1.030  0.00  0.00    -0.122 NA
ATOM     28  C18 <0> d          -4.096   4.646   0.611  0.00  0.00     0.256 A 
ENDBRANCH   2  24
TORSDOF 5
