REMARK  6 active torsions:
REMARK  status: ('A' for Active; 'I' for Inactive)
REMARK    1  A    between atoms: C2_2  and  C3_4 
REMARK    2  A    between atoms: C3_4  and  S1_5 
REMARK    3  A    between atoms: S1_5  and  C4_6 
REMARK    4  A    between atoms: C6_11  and  N4_15 
REMARK    5  A    between atoms: C7_12  and  N3_14 
REMARK       I    between atoms: N4_15  and  C8_16 
REMARK    6  A    between atoms: C8_16  and  C9_18 
ROOT
ATOM      1  C4  <0> d           1.136   2.045  -0.007  0.00  0.00     0.171 A 
ATOM      2  N1  <0> d          -0.029   1.340   0.010  0.00  0.00    -0.300 N 
ATOM      3  H1  <0> d          -0.904   1.824   0.025  0.00  0.00     0.171 HD
ATOM      4  C5  <0> d          -0.006  -0.009   0.005  0.00  0.00     0.278 A 
ATOM      5  O2  <0> d          -1.046  -0.649   0.020  0.00  0.00    -0.265 OA
ATOM      6  C6  <0> d           1.235  -0.664  -0.016  0.00  0.00     0.149 A 
ATOM      7  C7  <0> d           2.394   0.105  -0.033  0.00  0.00     0.156 A 
ATOM      8  N2  <0> d           2.305   1.440  -0.028  0.00  0.00    -0.205 NA
ENDROOT
BRANCH   6   9
ATOM      9  N4  <0> d           1.305  -2.070  -0.021  0.00  0.00    -0.315 N 
ATOM     10  C8  <0> d           0.762  -2.775   0.991  0.00  0.00     0.256 C 
ATOM     11  O3  <0> d           0.138  -2.203   1.865  0.00  0.00    -0.267 OA
ATOM     12  H9  <0> d           1.743  -2.531  -0.753  0.00  0.00     0.169 HD
BRANCH  10  13
ATOM     13  C9  <0> d           0.925  -4.243   1.040  0.00  0.00     0.032 A 
ATOM     14  C14 <0> d           0.365  -4.976   2.088  0.00  0.00     0.018 A 
ATOM     15  C13 <0> d           0.521  -6.346   2.128  0.00  0.00     0.020 A 
ATOM     16  C12 <0> d           1.232  -6.994   1.132  0.00  0.00     0.011 A 
ATOM     17  C11 <0> d           1.791  -6.272   0.091  0.00  0.00     0.020 A 
ATOM     18 Br1  <0> d           1.443  -8.872   1.196  0.00  0.00    -0.051 Br
ATOM     19  C10 <0> d           1.637  -4.903   0.036  0.00  0.00     0.018 A 
ENDBRANCH  10  13
ENDBRANCH   6   9
BRANCH   7  20
ATOM     20  N3  <0> d           3.634  -0.509  -0.054  0.00  0.00    -0.382 N 
ATOM     21  H7  <0> d           3.696  -1.477  -0.058  0.00  0.00     0.157 HD
ATOM     22  H8  <0> d           4.441   0.029  -0.066  0.00  0.00     0.157 HD
ENDBRANCH   7  20
BRANCH   1  23
ATOM     23  S1  <0> d           1.078   3.806  -0.002  0.00  0.00    -0.084 SA
BRANCH  23  24
ATOM     24  C3  <0> d           2.849   4.179  -0.029  0.00  0.00     0.160 C 
BRANCH  24  25
ATOM     25  C2  <0> d           3.048   5.673  -0.029  0.00  0.00     0.132 C 
ATOM     26  C1  <0> d           4.441   6.248  -0.049  0.00  0.00     0.091 C 
ATOM     27  O1  <0> d           2.091   6.409  -0.011  0.00  0.00    -0.298 OA
ENDBRANCH  24  25
ENDBRANCH  23  24
ENDBRANCH   1  23
TORSDOF 6
