REMARK  5 active torsions:
REMARK  status: ('A' for Active; 'I' for Inactive)
REMARK    1  A    between atoms: C2_2  and  N1_3 
REMARK    2  A    between atoms: N1_3  and  C3_4 
REMARK    3  A    between atoms: C3_4  and  C5_6 
REMARK    4  A    between atoms: C3_4  and  C12_15 
REMARK    5  A    between atoms: C5_6  and  N2_7 
ROOT
ATOM      1  C3  <0> d           0.607  -1.943  -1.152  0.00  0.00     0.226 C 
ATOM      2  C4  <0> d          -0.731  -2.652  -1.374  0.00  0.00     0.060 C 
ENDROOT
BRANCH   1   3
ATOM      3  N1  <0> d           0.384  -0.494  -1.065  0.00  0.00    -0.055 N 
ATOM      4  H6  <0> d           1.272  -0.021  -0.996  0.00  0.00     0.278 HD
ATOM      5  H21 <0> d          -0.171  -0.288  -0.247  0.00  0.00     0.278 HD
BRANCH   3   6
ATOM      6  C2  <0> d          -0.325  -0.034  -2.266  0.00  0.00     0.229 C 
ATOM      7  C1  <0> d          -0.444   1.491  -2.236  0.00  0.00     0.034 C 
ENDBRANCH   3   6
ENDBRANCH   1   3
BRANCH   1   8
ATOM      8  C5  <0> d           1.545  -2.246  -2.322  0.00  0.00     0.201 C 
BRANCH   8   9
ATOM      9  N2  <0> d           1.767  -3.691  -2.409  0.00  0.00    -0.271 N 
ATOM     10  N3  <0> d           0.999  -4.600  -3.148  0.00  0.00    -0.177 NA
ATOM     11  C8  <0> d           1.506  -5.794  -2.981  0.00  0.00     0.059 A 
ATOM     12  C7  <0> d           2.605  -5.686  -2.123  0.00  0.00    -0.012 A 
ATOM     13  C9  <0> d           0.991  -7.068  -3.601  0.00  0.00     0.073 C 
ATOM     14  C6  <0> d           2.744  -4.383  -1.786  0.00  0.00     0.035 A 
ATOM     15  C10 <0> d           3.481  -6.821  -1.657  0.00  0.00     0.052 C 
ATOM     16  C11 <0> d           3.800  -3.808  -0.878  0.00  0.00     0.070 C 
ENDBRANCH   8   9
ENDBRANCH   1   8
BRANCH   1  17
ATOM     17  C12 <0> d           1.228  -2.434   0.130  0.00  0.00     0.212 C 
ATOM     18  O1  <0> d           1.614  -1.635   0.966  0.00  0.00    -0.646 OA
ATOM     19  O2  <0> d           1.344  -3.631   0.332  0.00  0.00    -0.646 OA
ENDBRANCH   1  17
TORSDOF 5
