REMARK  4 active torsions:
REMARK  status: ('A' for Active; 'I' for Inactive)
REMARK    1  A    between atoms: C2_2  and  N1_3 
REMARK    2  A    between atoms: N1_3  and  C3_4 
REMARK    3  A    between atoms: N1_3  and  S1_23 
REMARK       I    between atoms: N2_7  and  C8_10 
REMARK       I    between atoms: C8_10  and  N3_12 
REMARK    4  A    between atoms: N3_12  and  C9_13 
ROOT
ATOM      1  C3  <0> d          -0.220  -0.653   2.443  0.00  0.00     0.098 C 
ATOM      2  C4  <0> d          -1.228  -1.778   2.202  0.00  0.00     0.046 C 
ATOM      3  C5  <0> d          -2.068  -1.986   3.465  0.00  0.00     0.129 C 
ATOM      4  N2  <0> d          -2.676  -0.704   3.845  0.00  0.00    -0.334 N 
ATOM      5  C6  <0> d          -1.805   0.468   4.015  0.00  0.00     0.129 C 
ATOM      6  C7  <0> d          -0.968   0.648   2.745  0.00  0.00     0.046 C 
ATOM      7  C8  <0> d          -4.007  -0.603   4.034  0.00  0.00     0.318 C 
ATOM      8  O1  <0> d          -4.727  -1.554   3.799  0.00  0.00    -0.247 OA
ATOM      9  N3  <0> d          -4.539   0.551   4.482  0.00  0.00    -0.338 N 
ATOM     10  H15 <0> d          -3.975   1.331   4.601  0.00  0.00     0.164 HD
ENDROOT
BRANCH   9  11
ATOM     11  C9  <0> d          -5.969   0.627   4.791  0.00  0.00     0.086 C 
ATOM     12  C14 <0> d          -6.210   1.737   5.816  0.00  0.00     0.030 C 
ATOM     13  C13 <0> d          -7.704   1.814   6.141  0.00  0.00     0.070 C 
ATOM     14  C12 <0> d          -8.488   2.114   4.863  0.00  0.00     0.164 C 
ATOM     15  C11 <0> d          -8.245   1.009   3.834  0.00  0.00     0.070 C 
ATOM     16  O3  <0> d          -9.887   2.195   5.162  0.00  0.00    -0.353 OA
ATOM     17  O2  <0> d          -8.056   3.373   4.322  0.00  0.00    -0.353 OA
ATOM     18  C10 <0> d          -6.751   0.933   3.512  0.00  0.00     0.030 C 
ATOM     19  C16 <0> d         -10.330   3.514   4.787  0.00  0.00     0.197 C 
ATOM     20  C15 <0> d          -9.254   3.969   3.769  0.00  0.00     0.197 C 
ENDBRANCH   9  11
BRANCH   1  21
ATOM     21  N1  <0> d           0.608  -0.473   1.248  0.00  0.00    -0.307 N 
BRANCH  21  22
ATOM     22  C2  <0> d          -0.003  -0.024  -0.005  0.00  0.00     0.131 C 
ATOM     23  C1  <0> d          -0.523  -1.234  -0.782  0.00  0.00     0.027 C 
ENDBRANCH  21  22
BRANCH  21  24
ATOM     24  S1  <0> d           2.234  -0.780   1.314  0.00  0.00     0.225 S 
ATOM     25  O4  <0> d           2.383  -1.726   2.363  0.00  0.00    -0.206 OA
ATOM     26  O5  <0> d           2.594  -1.114  -0.020  0.00  0.00    -0.206 OA
ATOM     27  C17 <0> d           2.987   0.801   1.787  0.00  0.00     0.186 C 
ENDBRANCH  21  24
ENDBRANCH   1  21
TORSDOF 4
