REMARK  1 active torsions:
REMARK  status: ('A' for Active; 'I' for Inactive)
REMARK    1  A    between atoms: C2_2  and  N1_9 
ROOT
ATOM      1  N1  <0> d          -1.154   2.424   0.020  0.00  0.00    -0.341 N 
ATOM      2  C6  <0> d          -0.816   3.856   0.012  0.00  0.00     0.125 A 
ATOM      3  C7  <0> d          -1.450   4.503  -1.238  0.00  0.00     0.167 C 
ATOM      4  S2  <0> d          -0.067   4.379  -2.454  0.00  0.00     0.148 S 
ATOM      5  O3  <0> d          -0.051   3.074  -3.017  0.00  0.00    -0.228 OA
ATOM      6  O4  <0> d          -0.086   5.515  -3.306  0.00  0.00    -0.228 OA
ATOM      7  C8  <0> d           1.314   4.547  -1.249  0.00  0.00     0.167 C 
ATOM      8  C9  <0> d           0.715   3.876   0.006  0.00  0.00     0.121 A 
ATOM      9  N2  <0> d           1.092   2.454   0.017  0.00  0.00    -0.360 N 
ATOM     10  C10 <0> d          -0.021   1.708   0.028  0.00  0.00     0.171 A 
ATOM     11  S3  <0> d           0.002  -0.004   0.043  0.00  0.00    -0.041 SA
ATOM     12  H16 <0> d           2.000   2.112   0.017  0.00  0.00     0.162 HD
ENDROOT
BRANCH   1  13
ATOM     13  C2  <0> d          -2.510   1.869   0.023  0.00  0.00     0.045 C 
ATOM     14  C1  <0> d          -2.737   1.125  -1.294  0.00  0.00     0.039 C 
ATOM     15  C5  <0> d          -3.518   3.032   0.113  0.00  0.00     0.171 C 
ATOM     16  S1  <0> d          -4.354   2.741   1.728  0.00  0.00     0.146 S 
ATOM     17  C4  <0> d          -3.112   1.589   2.464  0.00  0.00     0.143 C 
ATOM     18  O1  <0> d          -4.368   3.951   2.472  0.00  0.00    -0.228 OA
ATOM     19  O2  <0> d          -5.569   2.038   1.505  0.00  0.00    -0.228 OA
ATOM     20  C3  <0> d          -2.630   0.874   1.176  0.00  0.00     0.046 C 
ENDBRANCH   1  13
TORSDOF 1
