REMARK  7 active torsions:
REMARK  status: ('A' for Active; 'I' for Inactive)
REMARK    1  A    between atoms: C2_2  and  O1_3 
REMARK    2  A    between atoms: O1_3  and  C3_4 
REMARK    3  A    between atoms: C6_7  and  C11_13 
REMARK    4  A    between atoms: C8_9  and  O2_10 
REMARK    5  A    between atoms: O2_10  and  C9_11 
REMARK    6  A    between atoms: C11_13  and  C12_14 
REMARK    7  A    between atoms: C11_13  and  N1_21 
ROOT
ATOM      1  C3  <0> d           0.002  -0.004   0.002  0.00  0.00     0.102 A 
ATOM      2  C4  <0> d           1.210  -0.682  -0.019  0.00  0.00     0.040 A 
ATOM      3  C5  <0> d           1.227  -2.064  -0.021  0.00  0.00     0.012 A 
ATOM      4  C6  <0> d           0.041  -2.773  -0.013  0.00  0.00    -0.021 A 
ATOM      5  C7  <0> d          -1.168  -2.103   0.002  0.00  0.00     0.049 A 
ATOM      6  C8  <0> d          -1.192  -0.718   0.010  0.00  0.00     0.102 A 
ENDROOT
BRANCH   4   7
ATOM      7  C11 <0> d           0.065  -4.280  -0.021  0.00  0.00     0.249 C 
BRANCH   7   8
ATOM      8  C12 <0> d           0.306  -4.771  -1.426  0.00  0.00    -0.022 A 
ATOM      9  C17 <0> d           1.587  -4.776  -1.945  0.00  0.00     0.027 A 
ATOM     10  C16 <0> d           1.809  -5.231  -3.232  0.00  0.00     0.007 A 
ATOM     11  C15 <0> d           0.748  -5.671  -4.003  0.00  0.00     0.018 A 
ATOM     12  I1  <0> d           3.751  -5.246  -4.018  0.00  0.00    -0.045 I 
ATOM     13  C14 <0> d          -0.533  -5.660  -3.484  0.00  0.00     0.002 A 
ATOM     14  C13 <0> d          -0.754  -5.210  -2.196  0.00  0.00     0.009 A 
ENDBRANCH   7   8
BRANCH   7  15
ATOM     15  N1  <0> d           1.142  -4.757   0.856  0.00  0.00    -0.067 N 
ATOM     16  H19 <0> d           1.160  -5.857   0.850  0.00  0.00     0.275 HD
ATOM     17  H20 <0> d           0.966  -4.399   1.881  0.00  0.00     0.275 HD
ATOM     18  H21 <0> d           2.107  -4.373   0.494  0.00  0.00     0.275 HD
ENDBRANCH   7  15
ENDBRANCH   4   7
BRANCH   6  19
ATOM     19  O2  <0> d          -2.381  -0.057   0.025  0.00  0.00    -0.349 OA
BRANCH  19  20
ATOM     20  C9  <0> d          -3.567  -0.854   0.032  0.00  0.00     0.171 C 
ATOM     21  C10 <0> d          -4.795   0.058   0.049  0.00  0.00     0.034 C 
ENDBRANCH  19  20
ENDBRANCH   6  19
BRANCH   1  22
ATOM     22  O1  <0> d          -0.016   1.356   0.009  0.00  0.00    -0.349 OA
BRANCH  22  23
ATOM     23  C2  <0> d           1.248   2.022   0.001  0.00  0.00     0.171 C 
ATOM     24  C1  <0> d           1.027   3.536   0.011  0.00  0.00     0.034 C 
ENDBRANCH  22  23
ENDBRANCH   1  22
TORSDOF 7
