REMARK  3 active torsions:
REMARK  status: ('A' for Active; 'I' for Inactive)
REMARK    1  A    between atoms: C2_2  and  S1_4 
REMARK    2  A    between atoms: S1_4  and  C4_7 
REMARK    3  A    between atoms: C18_26  and  O5_28 
ROOT
ATOM      1  C4  <0> d           2.363  -0.017  -1.239  0.00  0.00     0.072 A 
ATOM      2  C5  <0> d           3.462  -0.820  -1.211  0.00  0.00     0.024 A 
ATOM      3  C6  <0> d           4.738  -0.300  -1.008  0.00  0.00     0.004 A 
ATOM      4  C7  <0> d           4.950   1.032  -0.829  0.00  0.00     0.032 A 
ATOM      5  C8  <0> d           3.856   1.917  -0.847  0.00  0.00     0.069 A 
ATOM      6  C9  <0> d           2.516   1.368  -1.067  0.00  0.00     0.015 A 
ATOM      7  C10 <0> d           1.419   2.244  -1.092  0.00  0.00     0.035 A 
ATOM      8  C11 <0> d           1.668   3.596  -0.908  0.00  0.00     0.066 A 
ATOM      9  C12 <0> d           2.994   4.060  -0.703  0.00  0.00     0.102 A 
ATOM     10  N1  <0> d           4.019   3.228  -0.673  0.00  0.00    -0.245 NA
ATOM     11  C13 <0> d           3.198   5.506  -0.508  0.00  0.00     0.093 A 
ATOM     12  C14 <0> d           2.115   6.363  -0.535  0.00  0.00     0.146 A 
ATOM     13  N2  <0> d           0.827   5.882  -0.739  0.00  0.00    -0.136 N 
ATOM     14  C15 <0> d           0.569   4.575  -0.921  0.00  0.00     0.288 A 
ATOM     15  O3  <0> d          -0.576   4.201  -1.098  0.00  0.00    -0.265 OA
ATOM     16  F1  <0> d          -0.163   6.725  -0.753  0.00  0.00    -0.090 F 
ATOM     17  C16 <0> d           2.314   7.751  -0.357  0.00  0.00     0.185 C 
ATOM     18  O4  <0> d           1.356   8.497  -0.332  0.00  0.00    -0.290 OA
ATOM     19  C17 <0> d           3.702   8.314  -0.199  0.00  0.00     0.139 C 
ATOM     20  C18 <0> d           4.605   7.263   0.456  0.00  0.00     0.227 C 
ATOM     21  N3  <0> d           4.468   6.006  -0.295  0.00  0.00    -0.359 N 
ATOM     22  H15 <0> d           5.249   5.540  -0.633  0.00  0.00     0.162 HD
ENDROOT
BRANCH   1  23
ATOM     23  S1  <0> d           0.763  -0.710  -1.498  0.00  0.00     0.179 S 
ATOM     24  O1  <0> d          -0.035  -0.180  -0.449  0.00  0.00    -0.222 OA
ATOM     25  O2  <0> d           0.987  -2.109  -1.604  0.00  0.00    -0.222 OA
BRANCH  23  26
ATOM     26  C2  <0> d           0.219  -0.042  -3.095  0.00  0.00     0.105 C 
ATOM     27  C1  <0> d           1.199  -0.473  -4.188  0.00  0.00     0.026 C 
ATOM     28  C3  <0> d          -1.177  -0.575  -3.421  0.00  0.00     0.026 C 
ENDBRANCH  23  26
ENDBRANCH   1  23
BRANCH  20  29
ATOM     29  O5  <0> d           4.205   7.061   1.813  0.00  0.00    -0.371 OA
ATOM     30  C19 <0> d           5.169   6.368   2.607  0.00  0.00     0.204 C 
ENDBRANCH  20  29
TORSDOF 3
