REMARK  3 active torsions:
REMARK  status: ('A' for Active; 'I' for Inactive)
REMARK    1  A    between atoms: C5_5  and  C6_7 
REMARK    2  A    between atoms: C9_14  and  O1_15 
REMARK    3  A    between atoms: C14_22  and  C16_24 
ROOT
ATOM      1  C6  <0> d           1.043  -4.062  -0.027  0.00  0.00     0.105 C 
ATOM      2  C7  <0> d           1.886  -4.285   1.196  0.00  0.00     0.055 A 
ATOM      3  C8  <0> d           3.253  -4.361   1.142  0.00  0.00     0.133 A 
ATOM      4  N1  <0> d           3.704  -4.560   2.395  0.00  0.00    -0.260 N 
ATOM      5  H2  <0> d           4.632  -4.651   2.661  0.00  0.00     0.191 HD
ATOM      6  N2  <0> d           2.589  -4.613   3.247  0.00  0.00    -0.147 NA
ATOM      7  C9  <0> d           1.503  -4.448   2.524  0.00  0.00     0.192 A 
ATOM      8  N3  <0> d           3.937  -4.240  -0.062  0.00  0.00    -0.344 N 
ATOM      9  C10 <0> d           3.228  -4.350  -1.232  0.00  0.00     0.022 C 
ATOM     10  C11 <0> d           1.881  -4.272  -1.270  0.00  0.00     0.024 C 
ATOM     11  C12 <0> d           1.187  -4.383  -2.488  0.00  0.00     0.159 C 
ATOM     12  O2  <0> d          -0.026  -4.316  -2.488  0.00  0.00    -0.293 OA
ATOM     13  C13 <0> d           1.912  -4.581  -3.789  0.00  0.00     0.095 C 
ATOM     14  C14 <0> d           3.303  -3.946  -3.683  0.00  0.00     0.056 C 
ATOM     15  C15 <0> d           4.027  -4.575  -2.495  0.00  0.00     0.069 C 
ATOM     16  H10 <0> d           4.894  -4.081  -0.075  0.00  0.00     0.167 HD
ENDROOT
BRANCH   1  17
ATOM     17  C5  <0> d           0.507  -2.653  -0.016  0.00  0.00    -0.004 A 
ATOM     18  C4  <0> d          -0.780  -2.230  -0.007  0.00  0.00     0.016 A 
ATOM     19  C3  <0> d          -1.039  -0.872   0.002  0.00  0.00     0.015 A 
ATOM     20  C2  <0> d           0.002  -0.004   0.002  0.00  0.00    -0.021 A 
ATOM     21  C1  <0> d          -0.018   1.503   0.010  0.00  0.00     0.056 C 
ATOM     22  S1  <0> d           1.404  -1.109  -0.018  0.00  0.00    -0.099 SA
ENDBRANCH   1  17
BRANCH   7  23
ATOM     23  O1  <0> d           0.227  -4.437   2.993  0.00  0.00    -0.343 OA
ATOM     24  H3  <0> d          -0.194  -5.308   3.007  0.00  0.00     0.219 HD
ENDBRANCH   7  23
BRANCH  14  25
ATOM     25  C16 <0> d           4.079  -4.207  -4.949  0.00  0.00     0.057 A 
ATOM     26  O3  <0> d           4.396  -5.416  -5.440  0.00  0.00    -0.327 OA
ATOM     27  C19 <0> d           5.086  -5.268  -6.582  0.00  0.00     0.142 A 
ATOM     28  C18 <0> d           5.226  -3.953  -6.827  0.00  0.00     0.027 A 
ATOM     29  C17 <0> d           4.576  -3.269  -5.774  0.00  0.00     0.035 A 
ENDBRANCH  14  25
TORSDOF 3
