REMARK  3 active torsions:
REMARK  status: ('A' for Active; 'I' for Inactive)
REMARK    1  A    between atoms: C4_4  and  N1_7 
REMARK    2  A    between atoms: C13_15  and  N3_16 
REMARK       I    between atoms: N3_16  and  C14_17 
REMARK    3  A    between atoms: C14_17  and  C15_19 
ROOT
ATOM      1  N1  <0> d           3.624  -0.653  -0.039  0.00  0.00    -0.143 N 
ATOM      2  C7  <0> d           3.792  -2.031   0.065  0.00  0.00     0.084 A 
ATOM      3  C8  <0> d           2.901  -3.088   0.180  0.00  0.00     0.033 A 
ATOM      4  C9  <0> d           3.375  -4.381   0.267  0.00  0.00     0.002 A 
ATOM      5  C10 <0> d           4.737  -4.629   0.241  0.00  0.00     0.002 A 
ATOM      6  C11 <0> d           5.633  -3.585   0.128  0.00  0.00     0.032 A 
ATOM      7  C12 <0> d           5.166  -2.280   0.039  0.00  0.00     0.077 A 
ATOM      8  N2  <0> d           5.805  -1.050  -0.080  0.00  0.00    -0.187 N 
ATOM      9  C13 <0> d           4.855  -0.079  -0.131  0.00  0.00     0.715 A 
ATOM     10  H18 <0> d           6.764  -0.910  -0.123  0.00  0.00     0.184 HD
ENDROOT
BRANCH   9  11
ATOM     11  N3  <0> d           5.091   1.224  -0.249  0.00  0.00    -0.027 NA
ATOM     12  C14 <0> d           6.332   1.660  -0.447  0.00  0.00     0.269 C 
ATOM     13  O1  <0> d           7.235   0.865  -0.622  0.00  0.00    -0.270 OA
BRANCH  12  14
ATOM     14  C15 <0> d           6.619   3.139  -0.455  0.00  0.00     0.124 C 
ATOM     15  C19 <0> d           8.089   3.364  -0.698  0.00  0.00    -0.018 A 
ATOM     16  C18 <0> d           8.976   3.353   0.371  0.00  0.00     0.042 A 
ATOM     17  C20 <0> d           8.555   3.582  -1.978  0.00  0.00     0.010 A 
ATOM     18  N4  <0> d           8.502   3.133   1.668  0.00  0.00    -0.327 N 
ATOM     19  C23 <0> d          10.330   3.560   0.148  0.00  0.00     0.030 A 
ATOM     20  C17 <0> d           7.199   3.299   1.956  0.00  0.00     0.223 C 
ATOM     21  H13 <0> d           9.118   2.859   2.366  0.00  0.00     0.169 HD
ATOM     22  C16 <0> d           6.226   3.741   0.895  0.00  0.00     0.122 C 
ATOM     23  O2  <0> d           6.802   3.090   3.082  0.00  0.00    -0.273 OA
ATOM     24  C22 <0> d          10.791   3.777  -1.136  0.00  0.00     0.002 A 
ATOM     25  C21 <0> d           9.905   3.788  -2.198  0.00  0.00     0.001 A 
ENDBRANCH  12  14
ENDBRANCH   9  11
BRANCH   1  26
ATOM     26  C4  <0> d           2.399   0.026  -0.052  0.00  0.00     0.057 A 
ATOM     27  C3  <0> d           2.084   0.872  -1.107  0.00  0.00     0.030 A 
ATOM     28  C2  <0> d           0.875   1.540  -1.117  0.00  0.00     0.002 A 
ATOM     29  C1  <0> d          -0.021   1.366  -0.079  0.00  0.00     0.000 A 
ATOM     30  C6  <0> d           0.290   0.524   0.973  0.00  0.00     0.002 A 
ATOM     31  C5  <0> d           1.497  -0.146   0.990  0.00  0.00     0.030 A 
ENDBRANCH   1  26
TORSDOF 3
