REMARK  5 active torsions:
REMARK  status: ('A' for Active; 'I' for Inactive)
REMARK    1  A    between atoms: C5_5  and  N1_9 
REMARK       I    between atoms: N1_9  and  C9_10 
REMARK    2  A    between atoms: C9_10  and  C10_12 
REMARK    3  A    between atoms: C10_12  and  C11_13 
REMARK    4  A    between atoms: C11_13  and  S1_15 
REMARK    5  A    between atoms: S1_15  and  C13_18 
ROOT
ATOM      1  C11 <0> d           4.448  -2.192  -0.456  0.00  0.00     0.118 C 
ATOM      2  C12 <0> d           3.205  -2.803  -1.106  0.00  0.00     0.027 C 
ENDROOT
BRANCH   1   3
ATOM      3  C10 <0> d           5.650  -2.370  -1.386  0.00  0.00     0.123 C 
BRANCH   3   4
ATOM      4  C9  <0> d           6.846  -1.663  -0.802  0.00  0.00     0.223 C 
ATOM      5  N1  <0> d           8.025  -1.684  -1.454  0.00  0.00    -0.326 N 
ATOM      6  H10 <0> d           8.119  -2.197  -2.272  0.00  0.00     0.169 HD
ATOM      7  O1  <0> d           6.747  -1.075   0.254  0.00  0.00    -0.273 OA
BRANCH   5   8
ATOM      8  C5  <0> d           9.115  -0.965  -0.951  0.00  0.00     0.046 A 
ATOM      9  C4  <0> d          10.337  -1.596  -0.760  0.00  0.00    -0.034 A 
ATOM     10  C3  <0> d          11.411  -0.883  -0.264  0.00  0.00     0.015 A 
ATOM     11  C21 <0> d          10.491  -3.057  -1.095  0.00  0.00     0.050 C 
ATOM     12  C2  <0> d          11.271   0.457   0.043  0.00  0.00    -0.061 A 
ATOM     13  C1  <0> d          12.444   1.232   0.585  0.00  0.00     0.048 C 
ATOM     14  C7  <0> d          10.055   1.089  -0.145  0.00  0.00     0.015 A 
ATOM     15  C6  <0> d           8.979   0.384  -0.647  0.00  0.00    -0.034 A 
ATOM     16  C8  <0> d           7.656   1.074  -0.858  0.00  0.00     0.050 C 
ENDBRANCH   5   8
ENDBRANCH   3   4
ENDBRANCH   1   3
BRANCH   1  17
ATOM     17  S1  <0> d           4.776  -3.027   1.121  0.00  0.00     0.179 S 
ATOM     18  O2  <0> d           5.734  -2.294   1.873  0.00  0.00    -0.222 OA
ATOM     19  O3  <0> d           4.934  -4.423   0.913  0.00  0.00    -0.222 OA
BRANCH  17  20
ATOM     20  C13 <0> d           3.277  -2.876   2.034  0.00  0.00     0.061 A 
ATOM     21  C18 <0> d           3.081  -1.782   2.856  0.00  0.00     0.054 A 
ATOM     22  C17 <0> d           1.902  -1.653   3.581  0.00  0.00     0.053 A 
ATOM     23  C16 <0> d           0.926  -2.645   3.466  0.00  0.00     0.027 A 
ATOM     24  N2  <0> d           1.717  -0.540   4.396  0.00  0.00    -0.325 N 
ATOM     25  C15 <0> d           1.127  -3.737   2.640  0.00  0.00     0.022 A 
ATOM     26  S2  <0> d          -0.567  -2.492   4.396  0.00  0.00    -0.118 SA
ATOM     27  C14 <0> d           2.304  -3.852   1.923  0.00  0.00     0.025 A 
ATOM     28  C20 <0> d          -0.027  -1.566   5.863  0.00  0.00     0.182 C 
ATOM     29  C19 <0> d           0.879  -0.448   5.425  0.00  0.00     0.231 C 
ATOM     30  O4  <0> d           0.843   0.595   6.044  0.00  0.00    -0.272 OA
ATOM     31  H19 <0> d           2.252   0.244   4.194  0.00  0.00     0.169 HD
ENDBRANCH  17  20
ENDBRANCH   1  17
TORSDOF 5
