REMARK  4 active torsions:
REMARK  status: ('A' for Active; 'I' for Inactive)
REMARK    1  A    between atoms: C4_4  and  N3_21 
REMARK    2  A    between atoms: C7_7  and  S1_8 
REMARK    3  A    between atoms: S1_8  and  N1_11 
REMARK    4  A    between atoms: C9_13  and  C14_18 
REMARK       I    between atoms: C14_18  and  N2_20 
ROOT
ATOM      1  S1  <0> d           0.297   0.197   2.426  0.00  0.00     0.261 S 
ATOM      2  O1  <0> d          -0.737   1.170   2.379  0.00  0.00    -0.200 OA
ATOM      3  O2  <0> d           0.376  -0.782   3.453  0.00  0.00    -0.200 OA
ENDROOT
BRANCH   1   4
ATOM      4  C7  <0> d           0.234  -0.680   0.899  0.00  0.00     0.085 A 
ATOM      5  C2  <0> d           0.067   0.011  -0.287  0.00  0.00    -0.036 A 
ATOM      6  C1  <0> d          -0.060   1.513  -0.271  0.00  0.00     0.050 C 
ATOM      7  C3  <0> d           0.023  -0.673  -1.486  0.00  0.00     0.038 A 
ATOM      8  C4  <0> d           0.140  -2.056  -1.500  0.00  0.00     0.037 A 
ATOM      9  C5  <0> d           0.301  -2.748  -0.306  0.00  0.00     0.031 A 
ATOM     10  C6  <0> d           0.345  -2.059   0.889  0.00  0.00     0.028 A 
BRANCH   8  11
ATOM     11  N3  <0> d           0.095  -2.752  -2.713  0.00  0.00    -0.318 N 
ATOM     12  C18 <0> d          -0.038  -2.169  -3.917  0.00  0.00     0.224 C 
ATOM     13  C17 <0> d          -0.055  -3.220  -5.005  0.00  0.00     0.105 C 
ATOM     14  O4  <0> d          -0.128  -0.974  -4.104  0.00  0.00    -0.273 OA
ATOM     15  C16 <0> d          -0.342  -4.539  -4.250  0.00  0.00     0.029 C 
ATOM     16  C15 <0> d           0.180  -4.212  -2.834  0.00  0.00     0.133 C 
ENDBRANCH   8  11
ENDBRANCH   1   4
BRANCH   1  17
ATOM     17  N1  <0> d           1.729   1.028   2.454  0.00  0.00    -0.302 N 
ATOM     18  C12 <0> d           3.008   0.313   2.565  0.00  0.00     0.092 C 
ATOM     19  C11 <0> d           3.919   0.760   1.411  0.00  0.00     0.026 C 
ATOM     20  C13 <0> d           2.763  -1.194   2.474  0.00  0.00     0.033 C 
ATOM     21  C10 <0> d           4.048   2.284   1.431  0.00  0.00     0.018 C 
ATOM     22  C9  <0> d           2.669   2.917   1.228  0.00  0.00     0.096 C 
ATOM     23  C8  <0> d           1.744   2.495   2.375  0.00  0.00     0.149 C 
BRANCH  22  24
ATOM     24  C14 <0> d           2.801   4.418   1.216  0.00  0.00     0.221 C 
ATOM     25  O3  <0> d           2.214   5.086   2.041  0.00  0.00    -0.273 OA
ATOM     26  N2  <0> d           3.571   5.019   0.287  0.00  0.00    -0.370 N 
ATOM     27  H18 <0> d           4.041   4.485  -0.373  0.00  0.00     0.159 HD
ATOM     28  H19 <0> d           3.656   5.985   0.279  0.00  0.00     0.159 HD
ENDBRANCH  22  24
ENDBRANCH   1  17
TORSDOF 4
