REMARK  3 active torsions:
REMARK  status: ('A' for Active; 'I' for Inactive)
REMARK    1  A    between atoms: N1_6  and  C8_9 
REMARK    2  A    between atoms: C8_9  and  C9_10 
REMARK    3  A    between atoms: C13_14  and  N2_15 
ROOT
ATOM      1  C8  <0> d           1.413  -2.463   2.461  0.00  0.00     0.242 C 
ENDROOT
BRANCH   1   2
ATOM      2  N1  <0> d           0.768  -1.979   1.233  0.00  0.00    -0.066 N 
ATOM      3  C5  <0> d           1.518  -2.460   0.066  0.00  0.00     0.235 C 
ATOM      4  C4  <0> d           0.805  -2.027  -1.217  0.00  0.00     0.028 C 
ATOM      5  C3  <0> d           0.721  -0.499  -1.257  0.00  0.00     0.008 C 
ATOM      6  C2  <0> d           0.002  -0.004   0.002  0.00  0.00     0.012 C 
ATOM      7  C1  <0> d          -0.019   1.526   0.010  0.00  0.00     0.012 C 
ATOM      8  C6  <0> d           0.744  -0.512   1.240  0.00  0.00     0.188 C 
ATOM      9  C7  <0> d           0.029  -0.020   2.500  0.00  0.00     0.040 C 
ATOM     10  H29 <0> d          -0.177  -2.330   1.192  0.00  0.00     0.280 HD
ENDBRANCH   1   2
BRANCH   1  11
ATOM     11  C9  <0> d           1.320  -3.989   2.519  0.00  0.00     0.042 C 
ATOM     12  C13 <0> d           2.085  -4.518   3.745  0.00  0.00     0.191 C 
ATOM     13  C12 <0> d           1.051  -5.253   4.625  0.00  0.00     0.033 C 
ATOM     14  C11 <0> d          -0.075  -5.649   3.638  0.00  0.00     0.002 C 
ATOM     15  C10 <0> d          -0.150  -4.422   2.696  0.00  0.00     0.008 C 
BRANCH  12  16
ATOM     16  N2  <0> d           2.675  -3.398   4.491  0.00  0.00    -0.074 N 
ATOM     17  C14 <0> d           3.501  -3.922   5.588  0.00  0.00     0.267 C 
ATOM     18  H25 <0> d           3.250  -2.847   3.871  0.00  0.00     0.277 HD
ATOM     19  H30 <0> d           1.939  -2.821   4.870  0.00  0.00     0.277 HD
ENDBRANCH  12  16
ENDBRANCH   1  11
TORSDOF 3
