REMARK  3 active torsions:
REMARK  status: ('A' for Active; 'I' for Inactive)
REMARK    1  A    between atoms: C5_5  and  C8_8 
REMARK    2  A    between atoms: C11_12  and  N3_14 
REMARK    3  A    between atoms: N3_14  and  C12_15 
ROOT
ATOM      1  C8  <0> d          -0.070  -4.266  -0.014  0.00  0.00     0.091 A 
ATOM      2  C9  <0> d           0.162  -4.950   1.170  0.00  0.00     0.108 A 
ATOM      3  C10 <0> d           0.377  -6.335   1.116  0.00  0.00     0.261 A 
ATOM      4  N1  <0> d           0.348  -6.952  -0.084  0.00  0.00    -0.154 N 
ATOM      5  C11 <0> d           0.115  -6.234  -1.217  0.00  0.00     0.708 A 
ATOM      6  N2  <0> d          -0.092  -4.935  -1.175  0.00  0.00    -0.064 NA
ATOM      7  O1  <0> d           0.585  -6.972   2.136  0.00  0.00    -0.268 OA
ATOM      8  H13 <0> d           0.494  -7.909  -0.140  0.00  0.00     0.187 HD
ENDROOT
BRANCH   5   9
ATOM      9  N3  <0> d           0.090  -6.878  -2.427  0.00  0.00    -0.187 N 
ATOM     10  H9  <0> d           0.152  -7.845  -2.462  0.00  0.00     0.184 HD
BRANCH   9  11
ATOM     11  C12 <0> d          -0.025  -6.140  -3.611  0.00  0.00     0.087 A 
ATOM     12  C17 <0> d          -0.712  -6.669  -4.698  0.00  0.00     0.144 A 
ATOM     13  C16 <0> d          -0.829  -5.935  -5.864  0.00  0.00     0.063 A 
ATOM     14  F1  <0> d          -1.268  -7.897  -4.614  0.00  0.00    -0.204 F 
ATOM     15  C15 <0> d          -0.254  -4.679  -5.952  0.00  0.00     0.014 A 
ATOM     16  C14 <0> d           0.434  -4.153  -4.873  0.00  0.00     0.021 A 
ATOM     17 Br1  <0> d          -0.409  -3.680  -7.550  0.00  0.00    -0.051 Br
ATOM     18  C13 <0> d           0.550  -4.880  -3.704  0.00  0.00     0.034 A 
ENDBRANCH   9  11
ENDBRANCH   5   9
BRANCH   1  19
ATOM     19  C5  <0> d          -0.301  -2.802   0.005  0.00  0.00    -0.007 A 
ATOM     20  C4  <0> d          -0.541  -2.115  -1.184  0.00  0.00     0.014 A 
ATOM     21  C3  <0> d          -0.755  -0.752  -1.160  0.00  0.00     0.007 A 
ATOM     22  C2  <0> d          -0.733  -0.067   0.042  0.00  0.00    -0.062 A 
ATOM     23  C1  <0> d          -0.969   1.421   0.062  0.00  0.00     0.048 C 
ATOM     24  C7  <0> d          -0.490  -0.742   1.225  0.00  0.00     0.007 A 
ATOM     25  C6  <0> d          -0.280  -2.106   1.214  0.00  0.00     0.014 A 
ENDBRANCH   1  19
TORSDOF 3
