REMARK  5 active torsions:
REMARK  status: ('A' for Active; 'I' for Inactive)
REMARK    1  A    between atoms: C5_5  and  S1_20 
REMARK    2  A    between atoms: C7_7  and  N1_8 
REMARK       I    between atoms: N1_8  and  C8_9 
REMARK    3  A    between atoms: C8_9  and  C9_11 
REMARK    4  A    between atoms: N2_15  and  C13_17 
REMARK    5  A    between atoms: S1_20  and  N3_23 
ROOT
ATOM      1  C1  <0> d          -1.264   1.184   0.181  0.00  0.00     0.050 C 
ATOM      2  C2  <0> d          -0.583  -0.158   0.084  0.00  0.00    -0.035 A 
ATOM      3  C3  <0> d          -0.568  -0.840  -1.117  0.00  0.00     0.010 A 
ATOM      4  C4  <0> d           0.055  -2.071  -1.206  0.00  0.00     0.026 A 
ATOM      5  C5  <0> d           0.666  -2.622  -0.095  0.00  0.00     0.081 A 
ATOM      6  C6  <0> d           0.655  -1.945   1.108  0.00  0.00     0.055 A 
ATOM      7  C7  <0> d           0.034  -0.706   1.201  0.00  0.00     0.042 A 
ENDROOT
BRANCH   7   8
ATOM      8  N1  <0> d           0.025  -0.015   2.417  0.00  0.00    -0.326 N 
ATOM      9  C8  <0> d          -0.056  -0.694   3.578  0.00  0.00     0.228 C 
ATOM     10  O1  <0> d          -0.040  -1.907   3.573  0.00  0.00    -0.273 OA
ATOM     11  H7  <0> d           0.078   0.954   2.425  0.00  0.00     0.169 HD
BRANCH   9  12
ATOM     12  C9  <0> d          -0.168   0.052   4.882  0.00  0.00     0.105 C 
ATOM     13  C12 <0> d          -0.248  -0.926   6.075  0.00  0.00     0.140 C 
ATOM     14  N2  <0> d          -1.681  -1.141   6.309  0.00  0.00    -0.347 N 
ATOM     15  C11 <0> d          -2.421  -0.191   5.713  0.00  0.00     0.221 C 
ATOM     16  C10 <0> d          -1.525   0.787   4.985  0.00  0.00     0.118 C 
ATOM     17  O2  <0> d          -3.631  -0.126   5.754  0.00  0.00    -0.273 OA
BRANCH  14  18
ATOM     18  C13 <0> d          -2.233  -2.250   7.092  0.00  0.00     0.079 C 
ATOM     19  C14 <0> d          -3.028  -1.692   8.274  0.00  0.00     0.032 C 
ATOM     20  C15 <0> d          -3.156  -3.089   6.207  0.00  0.00     0.032 C 
ENDBRANCH  14  18
ENDBRANCH   9  12
ENDBRANCH   7   8
BRANCH   5  21
ATOM     21  S1  <0> d           1.460  -4.191  -0.214  0.00  0.00     0.258 S 
ATOM     22  O3  <0> d           1.482  -4.736   1.098  0.00  0.00    -0.201 OA
ATOM     23  O4  <0> d           0.858  -4.868  -1.310  0.00  0.00    -0.201 OA
BRANCH  21  24
ATOM     24  N3  <0> d           3.036  -3.912  -0.638  0.00  0.00    -0.320 N 
ATOM     25  C16 <0> d           3.926  -3.200   0.282  0.00  0.00     0.159 C 
ATOM     26  H20 <0> d           3.369  -4.220  -1.495  0.00  0.00     0.171 HD
ENDBRANCH  21  24
ENDBRANCH   5  21
TORSDOF 5
