REMARK  6 active torsions:
REMARK  status: ('A' for Active; 'I' for Inactive)
REMARK    1  A    between atoms: C2_2  and  C4_4 
REMARK    2  A    between atoms: C4_4  and  O1_5 
REMARK    3  A    between atoms: O1_5  and  C5_6 
REMARK    4  A    between atoms: C6_7  and  C12_14 
REMARK    5  A    between atoms: C10_11  and  O2_12 
REMARK    6  A    between atoms: C14_16  and  O3_24 
ROOT
ATOM      1  C5  <0> d          -3.381  -0.553  -1.351  0.00  0.00     0.109 A 
ATOM      2  C6  <0> d          -3.670  -1.774  -1.939  0.00  0.00    -0.013 A 
ATOM      3  C7  <0> d          -4.984  -2.175  -2.092  0.00  0.00     0.011 A 
ATOM      4  C8  <0> d          -6.013  -1.359  -1.659  0.00  0.00     0.003 A 
ATOM      5  C9  <0> d          -5.732  -0.139  -1.072  0.00  0.00     0.039 A 
ATOM      6  C10 <0> d          -4.417   0.266  -0.911  0.00  0.00     0.102 A 
ENDROOT
BRANCH   2   7
ATOM      7  C12 <0> d          -2.551  -2.666  -2.413  0.00  0.00     0.067 C 
ATOM      8  C16 <0> d          -2.622  -3.995  -1.704  0.00  0.00     0.017 A 
ATOM      9  C15 <0> d          -3.365  -5.079  -2.249  0.00  0.00     0.179 A 
ATOM     10  C17 <0> d          -2.072  -4.402  -0.556  0.00  0.00     0.121 A 
ATOM     11  N1  <0> d          -4.049  -4.942  -3.433  0.00  0.00    -0.207 NA
ATOM     12  N3  <0> d          -3.244  -6.093  -1.438  0.00  0.00    -0.154 NA
ATOM     13  C14 <0> d          -3.764  -3.940  -4.207  0.00  0.00     0.141 C 
ATOM     14  C13 <0> d          -2.697  -2.929  -3.915  0.00  0.00     0.100 C 
ATOM     15  N2  <0> d          -2.432  -5.693  -0.359  0.00  0.00    -0.287 N 
ATOM     16  H2  <0> d          -2.176  -6.246   0.396  0.00  0.00     0.188 HD
BRANCH  13  17
ATOM     17  O3  <0> d          -4.472  -3.800  -5.346  0.00  0.00    -0.348 OA
ATOM     18  H21 <0> d          -5.145  -4.482  -5.477  0.00  0.00     0.219 HD
ENDBRANCH  13  17
ENDBRANCH   2   7
BRANCH   1  19
ATOM     19  O1  <0> d          -2.089  -0.158  -1.200  0.00  0.00    -0.347 OA
BRANCH  19  20
ATOM     20  C4  <0> d          -1.433  -0.534   0.013  0.00  0.00     0.179 C 
BRANCH  20  21
ATOM     21  C2  <0> d           0.002  -0.004   0.002  0.00  0.00     0.002 C 
ATOM     22  C1  <0> d          -0.019   1.526   0.010  0.00  0.00     0.011 C 
ATOM     23  C3  <0> d           0.742  -0.511   1.242  0.00  0.00     0.011 C 
ENDBRANCH  20  21
ENDBRANCH  19  20
ENDBRANCH   1  19
BRANCH   6  24
ATOM     24  O2  <0> d          -4.139   1.463  -0.328  0.00  0.00    -0.353 OA
ATOM     25  C11 <0> d          -5.252   2.250   0.100  0.00  0.00     0.210 C 
ENDBRANCH   6  24
TORSDOF 6
