REMARK  3 active torsions:
REMARK  status: ('A' for Active; 'I' for Inactive)
REMARK    1  A    between atoms: C2_2  and  C11_16 
REMARK    2  A    between atoms: N1_5  and  C5_9 
REMARK    3  A    between atoms: C5_9  and  C6_10 
ROOT
ATOM      1  C1  <0> d          -0.019   1.526   0.010  0.00  0.00     0.056 C 
ATOM      2  C2  <0> d           0.002  -0.004   0.002  0.00  0.00     0.157 A 
ATOM      3  C3  <0> d          -1.404  -0.557   0.121  0.00  0.00     0.262 A 
ATOM      4  O1  <0> d          -2.324  -0.392  -0.652  0.00  0.00    -0.270 OA
ATOM      5  N1  <0> d          -1.419  -1.272   1.263  0.00  0.00    -0.267 N 
ATOM      6  C4  <0> d          -0.231  -1.248   1.876  0.00  0.00     0.326 A 
ATOM      7  O2  <0> d           0.001  -1.819   2.923  0.00  0.00    -0.247 OA
ATOM      8  N2  <0> d           0.679  -0.520   1.204  0.00  0.00    -0.319 N 
ATOM      9  H4  <0> d           1.602  -0.365   1.461  0.00  0.00     0.166 HD
ENDROOT
BRANCH   5  10
ATOM     10  C5  <0> d          -2.593  -1.987   1.771  0.00  0.00     0.141 C 
BRANCH  10  11
ATOM     11  C6  <0> d          -2.601  -3.413   1.217  0.00  0.00     0.007 C 
ATOM     12  C10 <0> d          -3.756  -4.199   1.843  0.00  0.00     0.034 C 
ATOM     13  C9  <0> d          -3.807  -5.598   1.226  0.00  0.00     0.232 C 
ATOM     14  N3  <0> d          -4.016  -5.491  -0.223  0.00  0.00    -0.075 N 
ATOM     15  C8  <0> d          -2.877  -4.801  -0.840  0.00  0.00     0.232 C 
ATOM     16  H12 <0> d          -4.861  -4.970  -0.402  0.00  0.00     0.277 HD
ATOM     17  H21 <0> d          -4.103  -6.415  -0.618  0.00  0.00     0.277 HD
ATOM     18  C7  <0> d          -2.791  -3.370  -0.302  0.00  0.00     0.034 C 
ENDBRANCH  10  11
ENDBRANCH   5  10
BRANCH   2  19
ATOM     19  C11 <0> d           0.673  -0.517  -1.246  0.00  0.00     0.071 A 
ATOM     20  N4  <0> d          -0.023  -1.216  -2.120  0.00  0.00    -0.262 NA
ATOM     21  C15 <0> d           0.521  -1.679  -3.229  0.00  0.00     0.117 A 
ATOM     22  C14 <0> d           1.855  -1.456  -3.508  0.00  0.00     0.019 A 
ATOM     23  C13 <0> d           2.622  -0.730  -2.609  0.00  0.00     0.003 A 
ATOM     24  C12 <0> d           2.014  -0.254  -1.458  0.00  0.00     0.030 A 
ENDBRANCH   2  19
TORSDOF 3
