REMARK  5 active torsions:
REMARK  status: ('A' for Active; 'I' for Inactive)
REMARK    1  A    between atoms: N1_6  and  C7_8 
REMARK    2  A    between atoms: C7_8  and  C8_9 
REMARK    3  A    between atoms: C8_9  and  N2_10 
REMARK       I    between atoms: N2_10  and  C9_11 
REMARK       I    between atoms: C9_11  and  N3_13 
REMARK    4  A    between atoms: N3_13  and  C11_15 
REMARK    5  A    between atoms: N4_18  and  C16_21 
ROOT
ATOM      1  N2  <0> d           2.927  -0.202   4.830  0.00  0.00    -0.341 N 
ATOM      2  C9  <0> d           4.167   0.278   5.047  0.00  0.00     0.318 C 
ATOM      3  O1  <0> d           4.662   1.061   4.260  0.00  0.00    -0.247 OA
ATOM      4  N3  <0> d           4.859  -0.111   6.136  0.00  0.00    -0.334 N 
ATOM      5  C10 <0> d           4.263  -1.056   7.084  0.00  0.00     0.155 C 
ATOM      6  H16 <0> d           2.532  -0.827   5.457  0.00  0.00     0.164 HD
ENDROOT
BRANCH   1   7
ATOM      7  C8  <0> d           2.174   0.221   3.646  0.00  0.00     0.152 C 
BRANCH   7   8
ATOM      8  C7  <0> d           0.807  -0.464   3.639  0.00  0.00     0.254 C 
BRANCH   8   9
ATOM      9  N1  <0> d           0.052  -0.040   2.452  0.00  0.00    -0.069 N 
ATOM     10  C5  <0> d          -1.302  -0.604   2.507  0.00  0.00     0.239 C 
ATOM     11  C4  <0> d          -2.117  -0.099   1.315  0.00  0.00     0.008 C 
ATOM     12  C3  <0> d          -1.434  -0.535   0.015  0.00  0.00     0.011 C 
ATOM     13  C21 <0> d          -3.528  -0.689   1.373  0.00  0.00     0.011 C 
ATOM     14  C2  <0> d           0.002  -0.004   0.002  0.00  0.00     0.008 C 
ATOM     15  C1  <0> d          -0.019   1.526   0.010  0.00  0.00     0.011 C 
ATOM     16  C6  <0> d           0.740  -0.512   1.242  0.00  0.00     0.239 C 
ATOM     17  H42 <0> d          -0.004   0.967   2.434  0.00  0.00     0.280 HD
ENDBRANCH   8   9
ENDBRANCH   7   8
ENDBRANCH   1   7
BRANCH   4  18
ATOM     18  C11 <0> d           6.208   0.410   6.371  0.00  0.00     0.091 C 
ATOM     19  C15 <0> d           6.242   1.157   7.707  0.00  0.00     0.053 C 
ATOM     20  C14 <0> d           7.670   1.630   7.985  0.00  0.00     0.237 C 
ATOM     21  N4  <0> d           8.570   0.472   8.048  0.00  0.00    -0.067 N 
ATOM     22  C13 <0> d           8.597  -0.209   6.748  0.00  0.00     0.237 C 
ATOM     23  H41 <0> d           8.242  -0.169   8.755  0.00  0.00     0.280 HD
ATOM     24  C12 <0> d           7.204  -0.752   6.423  0.00  0.00     0.053 C 
BRANCH  21  25
ATOM     25  C16 <0> d           9.925   0.924   8.392  0.00  0.00     0.192 C 
ATOM     26  C20 <0> d           9.899   1.634   9.748  0.00  0.00     0.059 C 
ATOM     27  C19 <0> d          11.326   2.031  10.135  0.00  0.00     0.169 C 
ATOM     28  O2  <0> d          12.152   0.865  10.167  0.00  0.00    -0.391 OA
ATOM     29  C18 <0> d          12.251   0.186   8.914  0.00  0.00     0.169 C 
ATOM     30  C17 <0> d          10.861  -0.285   8.479  0.00  0.00     0.059 C 
ENDBRANCH  21  25
ENDBRANCH   4  18
TORSDOF 5
