REMARK  9 active torsions:
REMARK  status: ('A' for Active; 'I' for Inactive)
REMARK    1  A    between atoms: O1_2  and  C2_3 
REMARK    2  A    between atoms: C4_5  and  C9_12 
REMARK    3  A    between atoms: C7_8  and  O2_9 
REMARK    4  A    between atoms: C9_12  and  N1_13 
REMARK    5  A    between atoms: N2_16  and  C16_22 
REMARK    6  A    between atoms: C12_17  and  C14_19 
REMARK    7  A    between atoms: C14_19  and  C15_20 
REMARK    8  A    between atoms: C15_20  and  O3_21 
REMARK    9  A    between atoms: C16_22  and  C17_23 
ROOT
ATOM      1  N1  <0> d          -5.484   0.241  -1.308  0.00  0.00    -0.063 N 
ATOM      2  C10 <0> d          -5.963  -1.073  -1.756  0.00  0.00     0.265 C 
ATOM      3  C11 <0> d          -6.450  -0.973  -3.203  0.00  0.00     0.301 C 
ATOM      4  N2  <0> d          -7.533   0.017  -3.286  0.00  0.00     0.101 N 
ATOM      5  C12 <0> d          -7.075   1.332  -2.818  0.00  0.00     0.251 C 
ATOM      6  C13 <0> d          -6.583   1.214  -1.373  0.00  0.00     0.271 C 
ATOM      7  H28 <0> d          -4.730   0.545  -1.907  0.00  0.00     0.280 HD
ENDROOT
BRANCH   1   8
ATOM      8  C9  <0> d          -5.000   0.141   0.075  0.00  0.00     0.275 C 
BRANCH   8   9
ATOM      9  C4  <0> d          -3.782  -0.745   0.118  0.00  0.00    -0.008 A 
ATOM     10  C3  <0> d          -3.885  -2.036   0.603  0.00  0.00     0.050 A 
ATOM     11  C2  <0> d          -2.766  -2.852   0.643  0.00  0.00     0.102 A 
ATOM     12  C7  <0> d          -1.538  -2.367   0.201  0.00  0.00     0.103 A 
ATOM     13  C6  <0> d          -1.442  -1.075  -0.289  0.00  0.00     0.064 A 
ATOM     14  C5  <0> d          -2.563  -0.265  -0.327  0.00  0.00     0.044 A 
ATOM     15 Cl1  <0> d          -2.440   1.357  -0.934  0.00  0.00    -0.084 Cl
BRANCH  11  16
ATOM     16  O1  <0> d          -2.866  -4.122   1.119  0.00  0.00    -0.353 OA
ATOM     17  C1  <0> d          -4.157  -4.551   1.555  0.00  0.00     0.210 C 
ENDBRANCH  11  16
BRANCH  12  18
ATOM     18  O2  <0> d          -0.436  -3.163   0.245  0.00  0.00    -0.353 OA
ATOM     19  C8  <0> d           0.790  -2.599  -0.225  0.00  0.00     0.210 C 
ENDBRANCH  12  18
ENDBRANCH   8   9
ENDBRANCH   1   8
BRANCH   5  20
ATOM     20  C14 <0> d          -8.233   2.329  -2.883  0.00  0.00     0.063 C 
BRANCH  20  21
ATOM     21  C15 <0> d          -7.736   3.716  -2.471  0.00  0.00     0.166 C 
BRANCH  21  22
ATOM     22  O3  <0> d          -8.837   4.627  -2.440  0.00  0.00    -0.401 OA
ATOM     23  H22 <0> d          -8.595   5.528  -2.185  0.00  0.00     0.209 HD
ENDBRANCH  21  22
ENDBRANCH  20  21
ENDBRANCH   5  20
BRANCH   4  24
ATOM     24  C16 <0> d          -8.066   0.100  -4.652  0.00  0.00     0.319 C 
BRANCH  24  25
ATOM     25  C17 <0> d          -8.833  -1.157  -4.970  0.00  0.00     0.010 A 
ATOM     26  S1  <0> d          -8.246  -2.679  -5.696  0.00  0.00    -0.105 SA
ATOM     27  C20 <0> d          -9.793  -3.571  -5.695  0.00  0.00     0.050 A 
ATOM     28  C19 <0> d         -10.641  -2.662  -5.156  0.00  0.00     0.008 A 
ATOM     29  C18 <0> d         -10.149  -1.424  -4.784  0.00  0.00     0.017 A 
ENDBRANCH  24  25
ENDBRANCH   4  24
TORSDOF 9
