REMARK  3 active torsions:
REMARK  status: ('A' for Active; 'I' for Inactive)
REMARK       I    between atoms: C2_2  and  N1_4 
REMARK    1  A    between atoms: C5_7  and  N6_33 
REMARK    2  A    between atoms: C14_16  and  N3_23 
REMARK       I    between atoms: N3_23  and  C19_24 
REMARK    3  A    between atoms: C19_24  and  C20_26 
ROOT
ATOM      1  C8  <0> d           1.239  -0.412   1.467  0.00  0.00     0.241 C 
ATOM      2  C9  <0> d           0.981  -0.525  -0.028  0.00  0.00     0.031 C 
ATOM      3  C10 <0> d           2.127   0.103  -0.827  0.00  0.00     0.020 C 
ATOM      4  C11 <0> d           2.266   1.559  -0.368  0.00  0.00     0.064 C 
ATOM      5  C12 <0> d           2.615   1.553   1.129  0.00  0.00     0.246 C 
ATOM      6  C13 <0> d           0.934   2.258  -0.522  0.00  0.00     0.047 A 
ATOM      7  C14 <0> d           0.951   3.612  -0.696  0.00  0.00     0.058 A 
ATOM      8  C15 <0> d          -0.250   4.336  -0.753  0.00  0.00     0.037 A 
ATOM      9  C16 <0> d          -1.429   3.665  -0.610  0.00  0.00     0.077 A 
ATOM     10  C17 <0> d          -1.410   2.275  -0.440  0.00  0.00     0.247 A 
ATOM     11  O2  <0> d          -2.459   1.674  -0.271  0.00  0.00    -0.268 OA
ATOM     12  N2  <0> d          -0.241   1.587  -0.461  0.00  0.00    -0.315 N 
ATOM     13  C18 <0> d          -0.331   0.127  -0.427  0.00  0.00     0.138 C 
ATOM     14  N6  <0> d           1.449   0.997   1.853  0.00  0.00    -0.066 N 
ATOM     15  H29 <0> d           0.613   1.539   1.605  0.00  0.00     0.280 HD
ENDROOT
BRANCH   7  16
ATOM     16  N3  <0> d           2.176   4.283  -0.819  0.00  0.00    -0.320 N 
ATOM     17  C19 <0> d           2.443   5.002  -1.927  0.00  0.00     0.276 C 
ATOM     18  O3  <0> d           1.589   5.142  -2.781  0.00  0.00    -0.266 OA
ATOM     19  H25 <0> d           2.832   4.231  -0.105  0.00  0.00     0.169 HD
BRANCH  17  20
ATOM     20  C20 <0> d           3.777   5.621  -2.106  0.00  0.00     0.141 A 
ATOM     21  N5  <0> d           4.713   5.469  -1.173  0.00  0.00    -0.253 NA
ATOM     22  C23 <0> d           5.899   6.021  -1.335  0.00  0.00     0.136 A 
ATOM     23  C22 <0> d           6.172   6.760  -2.477  0.00  0.00     0.135 A 
ATOM     24  N4  <0> d           5.246   6.914  -3.407  0.00  0.00    -0.269 NA
ATOM     25  C21 <0> d           4.057   6.360  -3.255  0.00  0.00     0.153 A 
ENDBRANCH  17  20
ENDBRANCH   7  16
BRANCH  14  26
ATOM     26  C5  <0> d           1.666   1.094   3.311  0.00  0.00     0.191 C 
ATOM     27  C4  <0> d           2.030   2.537   3.666  0.00  0.00     0.053 C 
ATOM     28  C3  <0> d           2.265   2.643   5.176  0.00  0.00     0.128 C 
ATOM     29  N1  <0> d           1.079   2.131   5.876  0.00  0.00    -0.352 N 
ATOM     30  C2  <0> d           0.453   2.879   6.806  0.00  0.00     0.215 C 
ATOM     31  C7  <0> d           0.589   0.786   5.544  0.00  0.00     0.128 C 
ATOM     32  C1  <0> d           0.898   4.297   7.056  0.00  0.00     0.117 C 
ATOM     33  O1  <0> d          -0.469   2.412   7.440  0.00  0.00    -0.274 OA
ATOM     34  C6  <0> d           0.373   0.701   4.029  0.00  0.00     0.053 C 
ENDBRANCH  14  26
TORSDOF 3
