REMARK  5 active torsions:
REMARK  status: ('A' for Active; 'I' for Inactive)
REMARK    1  A    between atoms: C6_6  and  C8_8 
REMARK    2  A    between atoms: C6_6  and  N4_26 
REMARK    3  A    between atoms: C8_8  and  N1_9 
REMARK       I    between atoms: N1_9  and  C9_10 
REMARK    4  A    between atoms: C9_10  and  C10_12 
REMARK    5  A    between atoms: N3_14  and  C14_19 
ROOT
ATOM      1  N1  <0> d          -0.700  -4.079   0.966  0.00  0.00    -0.353 N 
ATOM      2  C9  <0> d          -1.875  -4.698   0.732  0.00  0.00     0.267 C 
ATOM      3  O1  <0> d          -2.846  -4.050   0.392  0.00  0.00    -0.266 OA
ATOM      4  H16 <0> d           0.075  -4.596   1.237  0.00  0.00     0.162 HD
ENDROOT
BRANCH   2   5
ATOM      5  C10 <0> d          -1.980  -6.154   0.887  0.00  0.00     0.122 C 
ATOM      6  C13 <0> d          -3.297  -6.834   0.623  0.00  0.00     0.076 C 
ATOM      7  C12 <0> d          -3.042  -8.219   0.017  0.00  0.00     0.111 C 
ATOM      8  C11 <0> d          -1.993  -8.931   0.833  0.00  0.00     0.240 C 
ATOM      9  N3  <0> d          -1.003  -8.223   1.412  0.00  0.00    -0.232 N 
ATOM     10  O2  <0> d          -2.040 -10.134   0.969  0.00  0.00    -0.272 OA
ATOM     11  N2  <0> d          -0.940  -6.835   1.256  0.00  0.00    -0.168 NA
BRANCH   9  12
ATOM     12  C14 <0> d           0.014  -8.913   2.210  0.00  0.00     0.128 C 
ATOM     13  C17 <0> d           1.420  -8.670   1.592  0.00  0.00     0.167 C 
ATOM     14  S1  <0> d           2.496  -9.071   3.034  0.00  0.00     0.146 S 
ATOM     15  C16 <0> d           1.281  -8.835   4.394  0.00  0.00     0.142 C 
ATOM     16  O3  <0> d           2.860 -10.443   2.971  0.00  0.00    -0.228 OA
ATOM     17  O4  <0> d           3.510  -8.082   3.143  0.00  0.00    -0.228 OA
ATOM     18  C15 <0> d           0.018  -8.353   3.643  0.00  0.00     0.043 C 
ENDBRANCH   9  12
ENDBRANCH   2   5
BRANCH   1  19
ATOM     19  C8  <0> d          -0.595  -2.626   0.811  0.00  0.00     0.162 C 
BRANCH  19  20
ATOM     20  C6  <0> d           0.828  -2.179   1.153  0.00  0.00     0.143 C 
ATOM     21  C5  <0> d           1.810  -2.794   0.154  0.00  0.00     0.041 C 
ATOM     22  C4  <0> d           1.456  -2.331  -1.260  0.00  0.00     0.003 C 
ATOM     23  C3  <0> d           1.543  -0.805  -1.333  0.00  0.00     0.004 C 
ATOM     24  C2  <0> d           0.561  -0.190  -0.335  0.00  0.00    -0.016 C 
ATOM     25  C1  <0> d           0.647   1.336  -0.408  0.00  0.00     0.010 C 
ATOM     26  C7  <0> d           0.914  -0.653   1.080  0.00  0.00     0.045 C 
BRANCH  20  27
ATOM     27  N4  <0> d           1.168  -2.624   2.511  0.00  0.00    -0.068 N 
ATOM     28  C18 <0> d           2.504  -2.129   2.869  0.00  0.00     0.270 C 
ATOM     29  C19 <0> d           0.179  -2.096   3.461  0.00  0.00     0.270 C 
ATOM     30  H33 <0> d           1.163  -3.632   2.546  0.00  0.00     0.280 HD
ENDBRANCH  20  27
ENDBRANCH  19  20
ENDBRANCH   1  19
TORSDOF 5
