REMARK  6 active torsions:
REMARK  status: ('A' for Active; 'I' for Inactive)
REMARK    1  A    between atoms: C2_2  and  C3_3 
REMARK    2  A    between atoms: C2_2  and  N2_11 
REMARK       I    between atoms: N2_11  and  C10_12 
REMARK    3  A    between atoms: C10_12  and  C11_14 
REMARK       I    between atoms: C11_14  and  N3_16 
REMARK    4  A    between atoms: N3_16  and  C12_17 
REMARK    5  A    between atoms: C17_22  and  C18_23 
REMARK    6  A    between atoms: C18_23  and  C19_24 
REMARK       I    between atoms: C19_24  and  N4_26 
ROOT
ATOM      1  C3  <0> d          -1.412  -0.556   0.019  0.00  0.00    -0.036 A 
ATOM      2  C4  <0> d          -2.140  -0.591  -1.157  0.00  0.00     0.011 A 
ATOM      3  C5  <0> d          -3.434  -1.069  -1.158  0.00  0.00     0.023 A 
ATOM      4  C6  <0> d          -4.008  -1.521   0.032  0.00  0.00     0.044 A 
ATOM      5  C7  <0> d          -3.268  -1.484   1.216  0.00  0.00     0.023 A 
ATOM      6  C8  <0> d          -1.974  -1.007   1.201  0.00  0.00     0.011 A 
ATOM      7  C9  <0> d          -5.351  -2.019   0.039  0.00  0.00     0.099 C 
ATOM      8  N1  <0> d          -6.416  -2.414   0.044  0.00  0.00    -0.191 NA
ENDROOT
BRANCH   1   9
ATOM      9  C2  <0> d           0.001  -0.032   0.012  0.00  0.00     0.114 C 
ATOM     10  C1  <0> d          -0.023   1.498   0.033  0.00  0.00     0.037 C 
BRANCH   9  11
ATOM     11  N2  <0> d           0.687  -0.493  -1.197  0.00  0.00    -0.345 N 
ATOM     12  C10 <0> d           2.030  -0.601  -1.210  0.00  0.00     0.310 C 
ATOM     13  O1  <0> d           2.671  -0.316  -0.220  0.00  0.00    -0.262 OA
ATOM     14  H9  <0> d           0.174  -0.722  -1.988  0.00  0.00     0.163 HD
BRANCH  12  15
ATOM     15  C11 <0> d           2.730  -1.071  -2.442  0.00  0.00     0.314 C 
ATOM     16  O2  <0> d           2.089  -1.357  -3.433  0.00  0.00    -0.262 OA
ATOM     17  N3  <0> d           4.073  -1.179  -2.455  0.00  0.00    -0.318 N 
ATOM     18  H10 <0> d           4.591  -0.876  -1.694  0.00  0.00     0.169 HD
BRANCH  17  19
ATOM     19  C12 <0> d           4.720  -1.728  -3.566  0.00  0.00     0.042 A 
ATOM     20  C17 <0> d           6.039  -1.390  -3.841  0.00  0.00    -0.023 A 
ATOM     21  C16 <0> d           6.676  -1.939  -4.936  0.00  0.00     0.010 A 
ATOM     22  C15 <0> d           5.999  -2.814  -5.766  0.00  0.00     0.001 A 
ATOM     23  C14 <0> d           4.684  -3.147  -5.498  0.00  0.00     0.002 A 
ATOM     24  C13 <0> d           4.042  -2.607  -4.402  0.00  0.00     0.030 A 
BRANCH  20  25
ATOM     25  C18 <0> d           6.775  -0.431  -2.941  0.00  0.00     0.144 C 
BRANCH  25  26
ATOM     26  C19 <0> d           7.362  -1.186  -1.776  0.00  0.00     0.223 C 
ATOM     27  O3  <0> d           7.199  -2.384  -1.686  0.00  0.00    -0.273 OA
ATOM     28  N4  <0> d           8.069  -0.529  -0.836  0.00  0.00    -0.361 N 
ATOM     29  C20 <0> d           8.640  -1.262   0.297  0.00  0.00     0.152 C 
ATOM     30  C21 <0> d           8.267   0.919  -0.945  0.00  0.00     0.152 C 
ENDBRANCH  25  26
ENDBRANCH  20  25
ENDBRANCH  17  19
ENDBRANCH  12  15
ENDBRANCH   9  11
ENDBRANCH   1   9
TORSDOF 6
