REMARK  4 active torsions:
REMARK  status: ('A' for Active; 'I' for Inactive)
REMARK    1  A    between atoms: O1_2  and  C2_3 
REMARK    2  A    between atoms: C5_6  and  N1_9 
REMARK    3  A    between atoms: C13_17  and  C15_19 
REMARK    4  A    between atoms: C20_24  and  O3_25 
ROOT
ATOM      1  N1  <0> d           4.411   6.326   2.149  0.00  0.00    -0.237 N 
ATOM      2  C8  <0> d           3.737   5.703   1.181  0.00  0.00     0.052 A 
ATOM      3  C9  <0> d           4.356   6.030  -0.024  0.00  0.00     0.054 A 
ATOM      4  C10 <0> d           5.433   6.876   0.267  0.00  0.00     0.156 A 
ATOM      5  N2  <0> d           5.462   7.050   1.565  0.00  0.00    -0.179 NA
ATOM      6  C11 <0> d           3.860   5.510  -1.308  0.00  0.00     0.163 C 
ATOM      7  O2  <0> d           4.492   5.612  -2.339  0.00  0.00    -0.292 OA
ATOM      8  C12 <0> d           2.498   4.835  -1.249  0.00  0.00     0.093 C 
ATOM      9  C13 <0> d           2.449   3.948  -0.001  0.00  0.00     0.034 C 
ATOM     10  C14 <0> d           2.536   4.799   1.270  0.00  0.00     0.070 C 
ENDROOT
BRANCH   1  11
ATOM     11  C5  <0> d           4.119   6.268   3.519  0.00  0.00     0.058 A 
ATOM     12  C4  <0> d           5.148   6.288   4.450  0.00  0.00     0.034 A 
ATOM     13  C3  <0> d           4.860   6.231   5.799  0.00  0.00     0.039 A 
ATOM     14  C2  <0> d           3.541   6.153   6.224  0.00  0.00     0.068 A 
ATOM     15  C7  <0> d           2.512   6.133   5.294  0.00  0.00     0.039 A 
ATOM     16  C6  <0> d           2.799   6.197   3.945  0.00  0.00     0.034 A 
BRANCH  14  17
ATOM     17  O1  <0> d           3.258   6.096   7.553  0.00  0.00    -0.356 OA
ATOM     18  C1  <0> d           1.879   6.017   7.919  0.00  0.00     0.210 C 
ENDBRANCH  14  17
ENDBRANCH   1  11
BRANCH   9  19
ATOM     19  C15 <0> d           1.157   3.173   0.008  0.00  0.00    -0.020 A 
ATOM     20  C20 <0> d           1.179   1.786   0.000  0.00  0.00     0.072 A 
ATOM     21  C19 <0> d          -0.013   1.076   0.008  0.00  0.00     0.037 A 
ATOM     22  C18 <0> d          -1.218   1.751   0.017  0.00  0.00     0.003 A 
ATOM     23  C17 <0> d          -1.237   3.133   0.031  0.00  0.00     0.001 A 
ATOM     24  C16 <0> d          -0.051   3.844   0.023  0.00  0.00     0.010 A 
BRANCH  20  25
ATOM     25  O3  <0> d           2.366   1.125  -0.014  0.00  0.00    -0.360 OA
ATOM     26  H18 <0> d           2.701   0.938  -0.902  0.00  0.00     0.217 HD
ENDBRANCH  20  25
ENDBRANCH   9  19
TORSDOF 4
