REMARK  4 active torsions:
REMARK  status: ('A' for Active; 'I' for Inactive)
REMARK    1  A    between atoms: S1_2  and  C2_3 
REMARK    2  A    between atoms: C4_8  and  C13_20 
REMARK    3  A    between atoms: C6_10  and  C7_12 
REMARK    4  A    between atoms: C12_17  and  O1_18 
ROOT
ATOM      1  C2  <0> d           0.877  -0.427   1.472  0.00  0.00     0.225 A 
ATOM      2  N1  <0> d           1.378   0.447   2.358  0.00  0.00    -0.035 NA
ATOM      3  C3  <0> d           1.964  -0.204   3.328  0.00  0.00     0.722 A 
ATOM      4  N2  <0> d           1.845  -1.531   3.078  0.00  0.00    -0.087 N 
ATOM      5  N3  <0> d           1.138  -1.649   1.880  0.00  0.00    -0.129 NA
ATOM      6  C4  <0> d           2.374  -2.583   3.945  0.00  0.00     0.164 C 
ATOM      7  C5  <0> d           2.631  -1.994   5.338  0.00  0.00     0.063 C 
ATOM      8  C6  <0> d           3.427  -0.691   5.209  0.00  0.00     0.138 C 
ATOM      9  N4  <0> d           2.617   0.283   4.452  0.00  0.00    -0.214 N 
ATOM     10  H8  <0> d           2.546   1.211   4.723  0.00  0.00     0.178 HD
ENDROOT
BRANCH   8  11
ATOM     11  C7  <0> d           4.719  -0.956   4.479  0.00  0.00     0.001 A 
ATOM     12  C12 <0> d           5.798  -1.506   5.156  0.00  0.00     0.074 A 
ATOM     13  C11 <0> d           6.984  -1.754   4.481  0.00  0.00     0.040 A 
ATOM     14  C10 <0> d           7.093  -1.445   3.139  0.00  0.00     0.045 A 
ATOM     15  C9  <0> d           6.016  -0.891   2.466  0.00  0.00     0.117 A 
ATOM     16  C8  <0> d           4.830  -0.647   3.137  0.00  0.00     0.054 A 
ATOM     17  F1  <0> d           6.124  -0.588   1.154  0.00  0.00    -0.206 F 
BRANCH  12  18
ATOM     18  O1  <0> d           5.691  -1.805   6.477  0.00  0.00    -0.360 OA
ATOM     19  H12 <0> d           5.377  -2.702   6.654  0.00  0.00     0.217 HD
ENDBRANCH  12  18
ENDBRANCH   8  11
BRANCH   6  20
ATOM     20  C13 <0> d           1.373  -3.705   4.045  0.00  0.00    -0.033 A 
ATOM     21  C18 <0> d           1.718  -4.978   3.632  0.00  0.00     0.009 A 
ATOM     22  C17 <0> d           0.801  -6.008   3.728  0.00  0.00     0.001 A 
ATOM     23  C16 <0> d          -0.463  -5.764   4.229  0.00  0.00     0.000 A 
ATOM     24  C15 <0> d          -0.810  -4.490   4.638  0.00  0.00     0.001 A 
ATOM     25  C14 <0> d           0.108  -3.460   4.546  0.00  0.00     0.009 A 
ENDBRANCH   6  20
BRANCH   1  26
ATOM     26  S1  <0> d           0.002  -0.004   0.002  0.00  0.00    -0.092 SA
ATOM     27  C1  <0> d          -0.022   1.810   0.012  0.00  0.00     0.099 C 
ENDBRANCH   1  26
TORSDOF 4
