REMARK  6 active torsions:
REMARK  status: ('A' for Active; 'I' for Inactive)
REMARK    1  A    between atoms: C7_7  and  N4_28 
REMARK    2  A    between atoms: C8_9  and  S2_13 
REMARK    3  A    between atoms: S2_13  and  C10_14 
REMARK    4  A    between atoms: C10_14  and  C11_15 
REMARK       I    between atoms: C11_15  and  N3_17 
REMARK    5  A    between atoms: N3_17  and  C12_18 
REMARK    6  A    between atoms: N3_17  and  C16_25 
ROOT
ATOM      1  C1  <0> d           1.573   2.575   2.144  0.00  0.00     0.005 C 
ATOM      2  C2  <0> d           3.079   2.814   2.284  0.00  0.00     0.005 C 
ATOM      3  C3  <0> d           3.581   2.070   3.529  0.00  0.00     0.047 C 
ATOM      4  C4  <0> d           3.039   0.674   3.498  0.00  0.00    -0.008 A 
ATOM      5  C5  <0> d           2.035   0.202   2.726  0.00  0.00    -0.028 A 
ATOM      6  C6  <0> d           1.694  -1.203   2.885  0.00  0.00     0.053 A 
ATOM      7  C7  <0> d           0.680  -1.925   2.190  0.00  0.00     0.138 A 
ATOM      8  N1  <0> d           0.557  -3.210   2.509  0.00  0.00    -0.205 NA
ATOM      9  C8  <0> d           1.309  -3.822   3.413  0.00  0.00     0.191 A 
ATOM     10  N2  <0> d           2.273  -3.203   4.098  0.00  0.00    -0.215 NA
ATOM     11  C9  <0> d           2.457  -1.923   3.838  0.00  0.00     0.115 A 
ATOM     12  S1  <0> d           3.576  -0.714   4.467  0.00  0.00    -0.073 SA
ATOM     13  C19 <0> d           1.313   1.122   1.745  0.00  0.00     0.041 C 
ENDROOT
BRANCH   9  14
ATOM     14  S2  <0> d           1.022  -5.533   3.725  0.00  0.00    -0.081 SA
BRANCH  14  15
ATOM     15  C10 <0> d          -0.340  -5.961   2.606  0.00  0.00     0.185 C 
BRANCH  15  16
ATOM     16  C11 <0> d          -0.689  -7.417   2.774  0.00  0.00     0.230 C 
ATOM     17  O1  <0> d          -0.142  -8.077   3.632  0.00  0.00    -0.273 OA
ATOM     18  N3  <0> d          -1.609  -7.987   1.970  0.00  0.00    -0.341 N 
BRANCH  18  19
ATOM     19  C12 <0> d          -2.035  -9.368   2.208  0.00  0.00     0.102 C 
ATOM     20  C15 <0> d          -2.585  -9.495   3.649  0.00  0.00     0.165 C 
ATOM     21  S3  <0> d          -2.144 -11.221   4.100  0.00  0.00     0.146 S 
ATOM     22  C14 <0> d          -1.228 -11.710   2.578  0.00  0.00     0.142 C 
ATOM     23  O2  <0> d          -3.333 -11.994   4.192  0.00  0.00    -0.228 OA
ATOM     24  O3  <0> d          -1.240 -11.196   5.196  0.00  0.00    -0.228 OA
ATOM     25  C13 <0> d          -0.835 -10.312   2.021  0.00  0.00     0.041 C 
ENDBRANCH  18  19
BRANCH  18  26
ATOM     26  C16 <0> d          -2.182  -7.224   0.858  0.00  0.00     0.087 A 
ATOM     27  C18 <0> d          -2.110  -7.847  -0.537  0.00  0.00     0.027 A 
ATOM     28  C17 <0> d          -3.448  -7.778   0.201  0.00  0.00     0.027 A 
ENDBRANCH  18  26
ENDBRANCH  15  16
ENDBRANCH  14  15
ENDBRANCH   9  14
BRANCH   7  29
ATOM     29  N4  <0> d          -0.126  -1.325   1.240  0.00  0.00    -0.383 N 
ATOM     30  H21 <0> d           0.178  -0.528   0.778  0.00  0.00     0.157 HD
ATOM     31  H22 <0> d          -0.997  -1.700   1.036  0.00  0.00     0.157 HD
ENDBRANCH   7  29
TORSDOF 6
