REMARK  5 active torsions:
REMARK  status: ('A' for Active; 'I' for Inactive)
REMARK    1  A    between atoms: C4_4  and  C5_7 
REMARK       I    between atoms: C5_7  and  N3_9 
REMARK    2  A    between atoms: N3_9  and  N4_10 
REMARK    3  A    between atoms: C6_11  and  C7_12 
REMARK    4  A    between atoms: C8_13  and  O3_22 
REMARK    5  A    between atoms: C9_14  and  O2_20 
ROOT
ATOM      1  C7  <0> d          -4.642  -4.713  -1.319  0.00  0.00     0.038 A 
ATOM      2  C8  <0> d          -5.039  -3.446  -0.873  0.00  0.00     0.112 A 
ATOM      3  C9  <0> d          -5.915  -3.337   0.200  0.00  0.00     0.103 A 
ATOM      4  C10 <0> d          -6.391  -4.479   0.826  0.00  0.00     0.060 A 
ATOM      5  C11 <0> d          -5.999  -5.732   0.386  0.00  0.00     0.032 A 
ATOM      6  C12 <0> d          -5.135  -5.856  -0.683  0.00  0.00     0.043 A 
ATOM      7 Br1  <0> d          -4.611  -7.572  -1.282  0.00  0.00    -0.049 Br
ATOM      8 Br2  <0> d          -6.657  -7.280   1.250  0.00  0.00    -0.050 Br
ENDROOT
BRANCH   1   9
ATOM      9  C6  <0> d          -3.714  -4.840  -2.457  0.00  0.00     0.154 C 
ATOM     10  N4  <0> d          -2.558  -4.250  -2.421  0.00  0.00    -0.184 NA
BRANCH  10  11
ATOM     11  N3  <0> d          -2.139  -3.602  -1.251  0.00  0.00    -0.245 N 
ATOM     12  C5  <0> d          -0.992  -2.894  -1.248  0.00  0.00     0.268 C 
ATOM     13  O1  <0> d          -0.370  -2.741  -2.278  0.00  0.00    -0.269 OA
ATOM     14  H6  <0> d          -2.674  -3.663  -0.444  0.00  0.00     0.192 HD
BRANCH  12  15
ATOM     15  C4  <0> d          -0.483  -2.291   0.036  0.00  0.00     0.249 A 
ATOM     16  C3  <0> d          -1.121  -0.936   0.284  0.00  0.00     0.040 A 
ATOM     17  C2  <0> d          -0.088  -0.090   0.290  0.00  0.00     0.051 A 
ATOM     18  C1  <0> d          -0.202   1.397   0.502  0.00  0.00     0.072 C 
ATOM     19  N2  <0> d           1.072  -0.749   0.076  0.00  0.00    -0.160 NA
ATOM     20  N1  <0> d           0.950  -1.968  -0.068  0.00  0.00    -0.174 NA
ENDBRANCH  12  15
ENDBRANCH  10  11
ENDBRANCH   1   9
BRANCH   2  21
ATOM     21  O3  <0> d          -4.570  -2.328  -1.488  0.00  0.00    -0.357 OA
ATOM     22  H12 <0> d          -5.120  -2.023  -2.223  0.00  0.00     0.217 HD
ENDBRANCH   2  21
BRANCH   3  23
ATOM     23  O2  <0> d          -6.304  -2.110   0.638  0.00  0.00    -0.353 OA
ATOM     24  C13 <0> d          -7.206  -2.072   1.746  0.00  0.00     0.210 C 
ENDBRANCH   3  23
TORSDOF 5
