REMARK  4 active torsions:
REMARK  status: ('A' for Active; 'I' for Inactive)
REMARK    1  A    between atoms: C5_5  and  O1_8 
REMARK    2  A    between atoms: O1_8  and  C8_9 
REMARK    3  A    between atoms: C8_9  and  C9_10 
REMARK    4  A    between atoms: C14_15  and  N1_16 
ROOT
ATOM      1  C9  <0> d           2.560  -6.035   0.538  0.00  0.00    -0.005 A 
ATOM      2  C10 <0> d           1.484  -6.641  -0.083  0.00  0.00     0.051 A 
ATOM      3  C11 <0> d           1.404  -8.023  -0.148  0.00  0.00     0.102 A 
ATOM      4  C12 <0> d           2.409  -8.803   0.413  0.00  0.00     0.104 A 
ATOM      5  C13 <0> d           3.487  -8.196   1.038  0.00  0.00     0.069 A 
ATOM      6  C14 <0> d           3.566  -6.812   1.097  0.00  0.00     0.037 A 
ATOM      7  O2  <0> d           2.352 -10.162   0.353  0.00  0.00    -0.346 OA
ATOM      8  C15 <0> d           1.077 -10.740   0.049  0.00  0.00     0.202 C 
ATOM      9  C16 <0> d           0.474  -9.976  -1.137  0.00  0.00     0.202 C 
ATOM     10  O3  <0> d           0.334  -8.602  -0.761  0.00  0.00    -0.346 OA
ENDROOT
BRANCH   1  11
ATOM     11  C8  <0> d           2.643  -4.532   0.605  0.00  0.00     0.209 C 
BRANCH  11  12
ATOM     12  O1  <0> d           1.498  -3.963  -0.034  0.00  0.00    -0.381 OA
BRANCH  12  13
ATOM     13  C5  <0> d           1.479  -2.534  -0.026  0.00  0.00     0.121 C 
ATOM     14  C4  <0> d           0.739  -2.027  -1.265  0.00  0.00     0.032 C 
ATOM     15  C3  <0> d           0.718  -0.497  -1.257  0.00  0.00     0.007 C 
ATOM     16  C2  <0> d           0.002  -0.004   0.002  0.00  0.00    -0.019 C 
ATOM     17  C1  <0> d          -0.019   1.526   0.010  0.00  0.00     0.010 C 
ATOM     18  C7  <0> d           0.742  -0.511   1.242  0.00  0.00     0.007 C 
ATOM     19  C6  <0> d           0.763  -2.041   1.233  0.00  0.00     0.032 C 
ENDBRANCH  12  13
ENDBRANCH  11  12
ENDBRANCH   1  11
BRANCH   6  20
ATOM     20  N1  <0> d           4.657  -6.199   1.723  0.00  0.00    -0.399 N 
ATOM     21  H18 <0> d           4.710  -5.231   1.767  0.00  0.00     0.156 HD
ATOM     22  H19 <0> d           5.360  -6.741   2.113  0.00  0.00     0.156 HD
ENDBRANCH   6  20
TORSDOF 4
