REMARK  3 active torsions:
REMARK  status: ('A' for Active; 'I' for Inactive)
REMARK    1  A    between atoms: C6_6  and  N2_10 
REMARK    2  A    between atoms: N2_10  and  S1_11 
REMARK    3  A    between atoms: S1_11  and  C9_14 
ROOT
ATOM      1  N2  <0> d           3.069  -3.276   0.232  0.00  0.00    -0.314 N 
ATOM      2  H16 <0> d           3.994  -2.998   0.143  0.00  0.00     0.172 HD
ENDROOT
BRANCH   1   3
ATOM      3  C6  <0> d           2.052  -2.311   0.657  0.00  0.00     0.097 C 
ATOM      4  C5  <0> d           2.387  -0.928   0.088  0.00  0.00     0.064 C 
ATOM      5  C3  <0> d           1.394   0.092   0.641  0.00  0.00     0.127 C 
ATOM      6  C2  <0> d           1.519   1.478  -0.004  0.00  0.00     0.039 C 
ATOM      7  N1  <0> d           1.363   0.129   2.106  0.00  0.00    -0.066 N 
ATOM      8  C4  <0> d           0.002  -0.004   0.002  0.00  0.00     0.039 C 
ATOM      9  C1  <0> d          -0.019   1.534   0.011  0.00  0.00     0.005 C 
ATOM     10  C8  <0> d           0.992  -1.194   2.625  0.00  0.00     0.235 C 
ATOM     11  H15 <0> d           2.275   0.382   2.454  0.00  0.00     0.278 HD
ATOM     12  H23 <0> d           0.686   0.811   2.410  0.00  0.00     0.278 HD
ATOM     13  C7  <0> d           2.028  -2.230   2.186  0.00  0.00     0.053 C 
ENDBRANCH   1   3
BRANCH   1  14
ATOM     14  S1  <0> d           2.639  -4.841  -0.098  0.00  0.00     0.232 S 
ATOM     15  O1  <0> d           3.856  -5.485  -0.449  0.00  0.00    -0.206 OA
ATOM     16  O2  <0> d           1.900  -5.261   1.041  0.00  0.00    -0.206 OA
BRANCH  14  17
ATOM     17  C9  <0> d           1.550  -4.731  -1.544  0.00  0.00     0.144 C 
ATOM     18  C12 <0> d           1.065  -6.149  -1.931  0.00  0.00     0.162 C 
ATOM     19  S2  <0> d           0.881  -6.030  -3.756  0.00  0.00     0.145 S 
ATOM     20  C11 <0> d           1.483  -4.308  -4.012  0.00  0.00     0.142 C 
ATOM     21  O3  <0> d          -0.500  -6.091  -4.087  0.00  0.00    -0.228 OA
ATOM     22  O4  <0> d           1.788  -6.934  -4.372  0.00  0.00    -0.228 OA
ATOM     23  C10 <0> d           2.321  -4.104  -2.717  0.00  0.00     0.037 C 
ENDBRANCH  14  17
ENDBRANCH   1  14
TORSDOF 3
