REMARK  2 active torsions:
REMARK  status: ('A' for Active; 'I' for Inactive)
REMARK    1  A    between atoms: C4_4  and  N5_16 
REMARK    2  A    between atoms: N5_16  and  N6_17 
ROOT
ATOM      1  C1  <0> d           1.423   1.615  -0.003  0.00  0.00     0.012 C 
ATOM      2  C2  <0> d          -0.013   1.086   0.008  0.00  0.00     0.020 C 
ATOM      3  C3  <0> d          -0.729   1.579   1.267  0.00  0.00     0.031 C 
ATOM      4  C4  <0> d          -0.750   3.109   1.275  0.00  0.00     0.121 C 
ATOM      5  C5  <0> d          -1.490   3.616   0.036  0.00  0.00     0.157 C 
ATOM      6  C6  <0> d          -0.773   3.123  -1.223  0.00  0.00     0.082 C 
ATOM      7  C7  <0> d          -0.753   1.593  -1.232  0.00  0.00     0.143 C 
ATOM      8  C8  <0> d          -0.064   1.118  -2.443  0.00  0.00     0.085 C 
ATOM      9  N1  <0> d           0.468   0.752  -3.377  0.00  0.00    -0.195 NA
ATOM     10  C9  <0> d          -2.134   1.083  -1.221  0.00  0.00     0.085 C 
ATOM     11  N2  <0> d          -3.199   0.690  -1.213  0.00  0.00    -0.195 NA
ATOM     12  C10 <0> d          -2.871   3.106   0.046  0.00  0.00     0.086 C 
ATOM     13  N3  <0> d          -3.936   2.713   0.054  0.00  0.00    -0.195 NA
ATOM     14  C11 <0> d          -1.510   5.088   0.044  0.00  0.00     0.086 C 
ATOM     15  N4  <0> d          -1.525   6.224   0.050  0.00  0.00    -0.195 NA
ENDROOT
BRANCH   4  16
ATOM     16  N5  <0> d          -1.437   3.583   2.484  0.00  0.00    -0.147 NA
ATOM     17  H10 <0> d          -1.925   4.546   2.274  0.00  0.00     0.154 HD
BRANCH  16  18
ATOM     18  N6  <0> d          -0.499   3.763   3.580  0.00  0.00    -0.017 N 
ATOM     19  C12 <0> d          -0.494   5.157   4.044  0.00  0.00     0.292 C 
ATOM     20  C13 <0> d          -0.797   2.842   4.685  0.00  0.00     0.292 C 
ATOM     21  H17 <0> d           0.503   3.525   3.195  0.00  0.00     0.301 HD
ENDBRANCH  16  18
ENDBRANCH   4  16
TORSDOF 2
