REMARK  4 active torsions:
REMARK  status: ('A' for Active; 'I' for Inactive)
REMARK    1  A    between atoms: C2_2  and  C3_3 
REMARK    2  A    between atoms: C3_3  and  C5_5 
REMARK    3  A    between atoms: N1_7  and  S1_8 
REMARK    4  A    between atoms: S1_8  and  C6_11 
ROOT
ATOM      1  S1  <0> d           1.518  -4.386   0.874  0.00  0.00     0.304 S 
ATOM      2  O2  <0> d           1.576  -4.745   2.248  0.00  0.00    -0.197 OA
ATOM      3  O3  <0> d           0.437  -4.763   0.033  0.00  0.00    -0.197 OA
ENDROOT
BRANCH   1   4
ATOM      4  N1  <0> d           1.612  -2.733   0.812  0.00  0.00    -0.134 NA
ATOM      5  C5  <0> d           0.657  -2.014   1.298  0.00  0.00     0.193 C 
ATOM      6  O1  <0> d          -0.418  -2.609   1.856  0.00  0.00    -0.174 OA
BRANCH   5   7
ATOM      7  C3  <0> d           0.742  -0.511   1.242  0.00  0.00     0.062 C 
ATOM      8  C4  <0> d           2.210  -0.086   1.169  0.00  0.00     0.018 C 
BRANCH   7   9
ATOM      9  C2  <0> d           0.002  -0.004   0.002  0.00  0.00     0.008 C 
ATOM     10  C1  <0> d          -0.019   1.526   0.010  0.00  0.00     0.006 C 
ENDBRANCH   7   9
ENDBRANCH   5   7
ENDBRANCH   1   4
BRANCH   1  11
ATOM     11  C6  <0> d           2.982  -5.019   0.126  0.00  0.00     0.191 A 
ATOM     12  N3  <0> d           3.943  -5.723   0.745  0.00  0.00    -0.339 N 
ATOM     13  C8  <0> d           4.874  -6.029  -0.116  0.00  0.00     0.184 A 
ATOM     14  H14 <0> d           3.943  -5.968   1.683  0.00  0.00     0.167 HD
ATOM     15  N2  <0> d           4.537  -5.516  -1.321  0.00  0.00    -0.336 N 
ATOM     16  C7  <0> d           3.337  -4.876  -1.167  0.00  0.00     0.146 A 
ATOM     17  C9  <0> d           5.311  -5.626  -2.560  0.00  0.00     0.158 C 
ATOM     18 Cl1  <0> d           2.444  -4.041  -2.399  0.00  0.00    -0.061 Cl
ENDBRANCH   1  11
TORSDOF 4
