REMARK  3 active torsions:
REMARK  status: ('A' for Active; 'I' for Inactive)
REMARK    1  A    between atoms: C2_2  and  C8_11 
REMARK    2  A    between atoms: C8_11  and  C9_12 
REMARK    3  A    between atoms: C8_11  and  N1_19 
ROOT
ATOM      1  C8  <0> d           1.147   3.597   0.010  0.00  0.00     0.221 C 
ENDROOT
BRANCH   1   2
ATOM      2  C2  <0> d           1.171   2.090   0.002  0.00  0.00    -0.023 A 
ATOM      3  C1  <0> d          -0.017   1.381   0.010  0.00  0.00     0.049 A 
ATOM      4  C6  <0> d           0.002  -0.004   0.002  0.00  0.00     0.107 A 
ATOM      5  C5  <0> d           1.219  -0.680  -0.014  0.00  0.00     0.126 A 
ATOM      6  O1  <0> d          -1.007  -0.923   0.006  0.00  0.00    -0.323 OA
ATOM      7  C4  <0> d           2.406   0.036  -0.021  0.00  0.00     0.070 A 
ATOM      8  O2  <0> d           0.973  -2.023  -0.020  0.00  0.00    -0.321 OA
ATOM      9  C3  <0> d           2.379   1.419  -0.013  0.00  0.00     0.036 A 
ATOM     10 Cl1  <0> d           3.926  -0.802  -0.041  0.00  0.00    -0.081 Cl
ATOM     11  C7  <0> d          -0.404  -2.159  -0.419  0.00  0.00     0.352 C 
ENDBRANCH   1   2
BRANCH   1  12
ATOM     12  C9  <0> d           1.376   4.118  -1.410  0.00  0.00     0.035 C 
ATOM     13  C12 <0> d           1.351   5.673  -1.409  0.00  0.00     0.147 C 
ATOM     14  S1  <0> d           2.225   6.026  -2.992  0.00  0.00     0.144 S 
ATOM     15  C11 <0> d           3.129   4.437  -3.201  0.00  0.00     0.141 C 
ATOM     16  O3  <0> d           1.265   6.152  -4.032  0.00  0.00    -0.228 OA
ATOM     17  O4  <0> d           3.167   7.069  -2.779  0.00  0.00    -0.228 OA
ATOM     18  C10 <0> d           2.755   3.662  -1.915  0.00  0.00     0.023 C 
ENDBRANCH   1  12
BRANCH   1  19
ATOM     19  N1  <0> d           2.208   4.098   0.893  0.00  0.00    -0.071 N 
ATOM     20  H13 <0> d           2.192   5.107   0.899  0.00  0.00     0.275 HD
ATOM     21  H14 <0> d           2.057   3.754   1.830  0.00  0.00     0.275 HD
ATOM     22  H15 <0> d           3.104   3.778   0.558  0.00  0.00     0.275 HD
ENDBRANCH   1  19
TORSDOF 3
