REMARK  6 active torsions:
REMARK  status: ('A' for Active; 'I' for Inactive)
REMARK    1  A    between atoms: C2_2  and  C3_3 
REMARK    2  A    between atoms: C3_3  and  N1_4 
REMARK    3  A    between atoms: C4_5  and  N2_6 
REMARK    4  A    between atoms: C5_7  and  C15_20 
REMARK       I    between atoms: C15_20  and  N5_22 
REMARK    5  A    between atoms: N5_22  and  C16_23 
REMARK    6  A    between atoms: C20_27  and  C22_29 
ROOT
ATOM      1  N1  <0> d          -1.213  -1.932   0.050  0.00  0.00    -0.316 N 
ATOM      2  C4  <0> d          -1.713  -2.451  -1.056  0.00  0.00     0.118 A 
ATOM      3  C5  <0> d          -2.048  -3.821  -1.138  0.00  0.00     0.077 A 
ATOM      4  C6  <0> d          -1.844  -4.641  -0.026  0.00  0.00     0.042 A 
ATOM      5  C7  <0> d          -1.315  -4.061   1.125  0.00  0.00     0.080 A 
ATOM      6  C8  <0> d          -0.996  -2.676   1.136  0.00  0.00     0.149 A 
ATOM      7  N3  <0> d          -0.485  -2.141   2.249  0.00  0.00    -0.212 NA
ATOM      8  C9  <0> d          -0.260  -2.860   3.342  0.00  0.00     0.139 A 
ATOM      9  C10 <0> d           0.282  -2.214   4.474  0.00  0.00     0.051 A 
ATOM     10  C11 <0> d           0.522  -2.929   5.607  0.00  0.00     0.005 A 
ATOM     11  C12 <0> d           0.227  -4.301   5.637  0.00  0.00     0.018 A 
ATOM     12  C13 <0> d          -0.292  -4.906   4.547  0.00  0.00     0.102 A 
ATOM     13  N4  <0> d          -0.537  -4.200   3.405  0.00  0.00    -0.273 N 
ATOM     14  C14 <0> d          -1.067  -4.842   2.338  0.00  0.00     0.267 A 
ATOM     15  O1  <0> d          -1.318  -6.032   2.381  0.00  0.00    -0.267 OA
ENDROOT
BRANCH   3  16
ATOM     16  C15 <0> d          -2.605  -4.378  -2.381  0.00  0.00     0.260 C 
ATOM     17  O2  <0> d          -2.691  -3.681  -3.375  0.00  0.00    -0.267 OA
ATOM     18  N5  <0> d          -3.019  -5.659  -2.419  0.00  0.00    -0.323 N 
ATOM     19  H14 <0> d          -3.021  -6.193  -1.609  0.00  0.00     0.169 HD
BRANCH  18  20
ATOM     20  C16 <0> d          -3.446  -6.221  -3.627  0.00  0.00     0.035 A 
ATOM     21  C21 <0> d          -4.452  -7.178  -3.632  0.00  0.00     0.045 A 
ATOM     22  C20 <0> d          -4.875  -7.726  -4.827  0.00  0.00     0.050 A 
ATOM     23  C19 <0> d          -4.290  -7.332  -6.016  0.00  0.00     0.016 A 
ATOM     24  C18 <0> d          -3.284  -6.383  -6.014  0.00  0.00     0.003 A 
ATOM     25  C17 <0> d          -2.860  -5.827  -4.823  0.00  0.00     0.029 A 
BRANCH  22  26
ATOM     26  C22 <0> d          -5.972  -8.760  -4.834  0.00  0.00     0.417 C 
ATOM     27  F1  <0> d          -6.220  -9.168  -6.150  0.00  0.00    -0.166 F 
ATOM     28  F2  <0> d          -5.577  -9.864  -4.071  0.00  0.00    -0.166 F 
ATOM     29  F3  <0> d          -7.136  -8.209  -4.289  0.00  0.00    -0.166 F 
ENDBRANCH  22  26
ENDBRANCH  18  20
ENDBRANCH   3  16
BRANCH   2  30
ATOM     30  N2  <0> d          -1.913  -1.639  -2.153  0.00  0.00    -0.384 N 
ATOM     31  H8  <0> d          -2.122  -0.700  -2.029  0.00  0.00     0.157 HD
ATOM     32  H19 <0> d          -1.845  -2.007  -3.047  0.00  0.00     0.157 HD
ENDBRANCH   2  30
BRANCH   1  33
ATOM     33  C3  <0> d          -0.883  -0.505   0.084  0.00  0.00     0.132 C 
BRANCH  33  34
ATOM     34  C2  <0> d           0.564  -0.306  -0.374  0.00  0.00     0.016 C 
ATOM     35  C1  <0> d           0.909   1.185  -0.339  0.00  0.00     0.006 C 
ENDBRANCH  33  34
ENDBRANCH   1  33
TORSDOF 6
