REMARK  5 active torsions:
REMARK  status: ('A' for Active; 'I' for Inactive)
REMARK    1  A    between atoms: C2_2  and  C3_3 
REMARK    2  A    between atoms: C3_3  and  C4_4 
REMARK    3  A    between atoms: C3_3  and  O1_6 
REMARK    4  A    between atoms: C4_4  and  N1_5 
REMARK    5  A    between atoms: O1_6  and  C5_7 
ROOT
ATOM      1  O1  <0> d          -2.089  -0.158  -1.200  0.00  0.00    -0.343 OA
ENDROOT
BRANCH   1   2
ATOM      2  C3  <0> d          -1.445  -0.541   0.017  0.00  0.00     0.154 C 
BRANCH   2   3
ATOM      3  C2  <0> d           0.021  -0.107  -0.023  0.00  0.00     0.029 C 
ATOM      4  C1  <0> d           0.100   1.421  -0.058  0.00  0.00     0.007 C 
ENDBRANCH   2   3
BRANCH   2   5
ATOM      5  C4  <0> d          -1.523  -2.061   0.178  0.00  0.00     0.261 C 
BRANCH   5   6
ATOM      6  N1  <0> d          -2.931  -2.478   0.216  0.00  0.00    -0.077 N 
ATOM      7  H9  <0> d          -3.392  -2.033   0.995  0.00  0.00     0.274 HD
ATOM      8  H10 <0> d          -3.385  -2.207  -0.643  0.00  0.00     0.274 HD
ATOM      9  H14 <0> d          -2.982  -3.480   0.322  0.00  0.00     0.274 HD
ENDBRANCH   5   6
ENDBRANCH   2   5
ENDBRANCH   1   2
BRANCH   1  10
ATOM     10  C5  <0> d          -2.833   0.979  -1.172  0.00  0.00     0.086 A 
ATOM     11  C10 <0> d          -3.576   1.351  -2.284  0.00  0.00     0.045 A 
ATOM     12  C9  <0> d          -4.336   2.505  -2.252  0.00  0.00     0.041 A 
ATOM     13 Br1  <0> d          -3.553   0.276  -3.840  0.00  0.00    -0.048 Br
ATOM     14  C8  <0> d          -4.349   3.294  -1.116  0.00  0.00     0.012 A 
ATOM     15  C7  <0> d          -3.605   2.928  -0.008  0.00  0.00     0.022 A 
ATOM     16 Br2  <0> d          -5.384   4.876  -1.077  0.00  0.00    -0.051 Br
ATOM     17  C6  <0> d          -2.848   1.772  -0.034  0.00  0.00     0.039 A 
ENDBRANCH   1  10
TORSDOF 5
