REMARK  6 active torsions:
REMARK  status: ('A' for Active; 'I' for Inactive)
REMARK    1  A    between atoms: C6_6  and  C13_16 
REMARK    2  A    between atoms: C10_10  and  O3_15 
REMARK    3  A    between atoms: C11_11  and  O2_14 
REMARK    4  A    between atoms: C19_23  and  S1_25 
REMARK    5  A    between atoms: S1_25  and  C20_26 
REMARK    6  A    between atoms: C20_26  and  C21_27 
ROOT
ATOM      1  C1  <0> d          -0.019   1.536   0.011  0.00  0.00     0.038 C 
ATOM      2  C2  <0> d           0.002  -0.004   0.002  0.00  0.00     0.029 C 
ATOM      3  C3  <0> d          -1.437  -0.497  -0.059  0.00  0.00     0.091 C 
ATOM      4  C4  <0> d          -1.637  -1.843   0.630  0.00  0.00     0.145 C 
ATOM      5  C5  <0> d          -1.066  -2.979  -0.214  0.00  0.00     0.076 C 
ATOM      6  C6  <0> d          -1.253  -4.309   0.521  0.00  0.00     0.059 C 
ATOM      7  C7  <0> d          -2.645  -4.410   1.086  0.00  0.00    -0.013 A 
ATOM      8  C8  <0> d          -3.110  -5.638   1.529  0.00  0.00     0.013 A 
ATOM      9  C9  <0> d          -4.387  -5.766   2.038  0.00  0.00     0.040 A 
ATOM     10  C10 <0> d          -5.215  -4.657   2.122  0.00  0.00     0.101 A 
ATOM     11  C11 <0> d          -4.752  -3.421   1.696  0.00  0.00     0.133 A 
ATOM     12  C12 <0> d          -3.462  -3.296   1.180  0.00  0.00     0.115 A 
ATOM     13  O1  <0> d          -3.044  -2.065   0.788  0.00  0.00    -0.316 OA
ATOM     14  N1  <0> d          -1.001  -1.827   1.948  0.00  0.00    -0.339 N 
ATOM     15  C19 <0> d           0.232  -1.236   2.088  0.00  0.00     0.139 C 
ATOM     16  N2  <0> d           0.712  -0.445   1.192  0.00  0.00    -0.362 N 
ATOM     17  C23 <0> d           0.766  -0.449  -1.248  0.00  0.00     0.038 C 
ATOM     18  H18 <0> d          -1.439  -2.233   2.716  0.00  0.00     0.164 HD
ATOM     19  H27 <0> d           1.620  -0.116   1.326  0.00  0.00     0.162 HD
ENDROOT
BRANCH   6  20
ATOM     20  C13 <0> d          -1.019  -5.434  -0.453  0.00  0.00    -0.049 A 
ATOM     21  C18 <0> d          -0.013  -6.354  -0.219  0.00  0.00     0.008 A 
ATOM     22  C17 <0> d           0.199  -7.388  -1.111  0.00  0.00     0.001 A 
ATOM     23  C16 <0> d          -0.589  -7.498  -2.242  0.00  0.00     0.000 A 
ATOM     24  C15 <0> d          -1.591  -6.576  -2.479  0.00  0.00     0.001 A 
ATOM     25  C14 <0> d          -1.806  -5.544  -1.585  0.00  0.00     0.008 A 
ENDBRANCH   6  20
BRANCH  15  26
ATOM     26  S1  <0> d           1.179  -1.569   3.536  0.00  0.00    -0.091 SA
BRANCH  26  27
ATOM     27  C20 <0> d           2.696  -0.602   3.300  0.00  0.00     0.108 C 
BRANCH  27  28
ATOM     28  C21 <0> d           3.607  -0.800   4.484  0.00  0.00    -0.026 C 
ATOM     29  C22 <0> d           4.764  -1.394   4.327  0.00  0.00     0.007 C 
ENDBRANCH  27  28
ENDBRANCH  26  27
ENDBRANCH  15  26
BRANCH  11  30
ATOM     30  O2  <0> d          -5.556  -2.325   1.784  0.00  0.00    -0.356 OA
ATOM     31  H11 <0> d          -5.477  -1.846   2.620  0.00  0.00     0.218 HD
ENDBRANCH  11  30
BRANCH  10  32
ATOM     32  O3  <0> d          -6.472  -4.783   2.625  0.00  0.00    -0.358 OA
ATOM     33  H12 <0> d          -6.529  -4.651   3.581  0.00  0.00     0.217 HD
ENDBRANCH  10  32
TORSDOF 6
