REMARK  4 active torsions:
REMARK  status: ('A' for Active; 'I' for Inactive)
REMARK    1  A    between atoms: O1_2  and  N1_3 
REMARK       I    between atoms: N1_3  and  C2_4 
REMARK    2  A    between atoms: C2_4  and  C3_6 
REMARK    3  A    between atoms: C5_8  and  C10_18 
REMARK    4  A    between atoms: N2_9  and  C6_11 
ROOT
ATOM      1  C3  <0> d          -2.815  -2.510  -0.264  0.00  0.00     0.148 A 
ATOM      2  C4  <0> d          -2.956  -3.876   0.064  0.00  0.00     0.071 A 
ATOM      3  C5  <0> d          -4.284  -4.049   0.339  0.00  0.00     0.066 A 
ATOM      4  N2  <0> d          -4.882  -2.834   0.175  0.00  0.00    -0.263 N 
ATOM      5  N3  <0> d          -4.009  -1.958  -0.169  0.00  0.00    -0.166 NA
ENDROOT
BRANCH   3   6
ATOM      6  C10 <0> d          -4.946  -5.312   0.735  0.00  0.00    -0.008 A 
ATOM      7  C15 <0> d          -6.100  -5.282   1.519  0.00  0.00     0.015 A 
ATOM      8  C14 <0> d          -6.716  -6.462   1.881  0.00  0.00     0.024 A 
ATOM      9  C13 <0> d          -6.184  -7.675   1.478  0.00  0.00     0.034 A 
ATOM     10  C12 <0> d          -5.036  -7.711   0.705  0.00  0.00     0.024 A 
ATOM     11 Cl1  <0> d          -6.960  -9.156   1.944  0.00  0.00    -0.084 Cl
ATOM     12  C11 <0> d          -4.415  -6.537   0.332  0.00  0.00     0.015 A 
ENDBRANCH   3   6
BRANCH   4  13
ATOM     13  C6  <0> d          -6.309  -2.567   0.370  0.00  0.00     0.125 C 
ATOM     14  C9  <0> d          -6.515  -1.720   1.658  0.00  0.00     0.167 C 
ATOM     15  S1  <0> d          -8.194  -1.030   1.344  0.00  0.00     0.146 S 
ATOM     16  C8  <0> d          -8.258  -1.206  -0.486  0.00  0.00     0.142 C 
ATOM     17  O3  <0> d          -9.164  -1.891   1.925  0.00  0.00    -0.228 OA
ATOM     18  O4  <0> d          -8.197   0.351   1.676  0.00  0.00    -0.228 OA
ATOM     19  C7  <0> d          -6.855  -1.764  -0.823  0.00  0.00     0.043 C 
ENDBRANCH   4  13
BRANCH   1  20
ATOM     20  C2  <0> d          -1.561  -1.825  -0.638  0.00  0.00     0.295 C 
ATOM     21  N1  <0> d          -1.572  -0.507  -0.922  0.00  0.00    -0.230 N 
ATOM     22  H5  <0> d          -2.403  -0.009  -0.881  0.00  0.00     0.197 HD
ATOM     23  O2  <0> d          -0.519  -2.449  -0.689  0.00  0.00    -0.264 OA
BRANCH  21  24
ATOM     24  O1  <0> d          -0.369   0.150  -1.281  0.00  0.00    -0.282 OA
ATOM     25  C1  <0> d          -0.528   1.543  -1.555  0.00  0.00     0.237 C 
ENDBRANCH  21  24
ENDBRANCH   1  20
TORSDOF 4
