REMARK  4 active torsions:
REMARK  status: ('A' for Active; 'I' for Inactive)
REMARK    1  A    between atoms: C2_2  and  N1_3 
REMARK    2  A    between atoms: C5_7  and  C6_8 
REMARK    3  A    between atoms: C6_8  and  N3_9 
REMARK    4  A    between atoms: C11_14  and  C12_18 
ROOT
ATOM      1  N3  <0> d           3.790   4.695  -3.848  0.00  0.00    -0.061 N 
ATOM      2  C7  <0> d           5.249   4.519  -3.874  0.00  0.00     0.241 C 
ATOM      3  C8  <0> d           5.791   4.486  -2.438  0.00  0.00     0.087 C 
ATOM      4  C9  <0> d           4.953   3.510  -1.650  0.00  0.00     0.039 A 
ATOM      5  C10 <0> d           3.745   3.053  -2.076  0.00  0.00     0.021 A 
ATOM      6  C11 <0> d           3.258   2.171  -1.117  0.00  0.00     0.096 A 
ATOM      7  N4  <0> d           4.135   2.103  -0.144  0.00  0.00    -0.176 NA
ATOM      8  N5  <0> d           5.215   2.940  -0.466  0.00  0.00    -0.281 N 
ATOM      9  H1  <0> d           6.152   3.172   0.061  0.00  0.00     0.189 HD
ATOM     10  C20 <0> d           3.108   3.477  -3.376  0.00  0.00     0.278 C 
ATOM     11  H24 <0> d           3.567   5.501  -3.134  0.00  0.00     0.280 HD
ENDROOT
BRANCH   6  12
ATOM     12  C12 <0> d           1.948   1.429  -1.182  0.00  0.00     0.207 C 
ATOM     13  O2  <0> d           2.148   0.062  -0.807  0.00  0.00    -0.335 OA
ATOM     14  C19 <0> d           1.032  -0.666  -0.529  0.00  0.00     0.103 A 
ATOM     15  C14 <0> d          -0.178  -0.038  -0.260  0.00  0.00     0.102 A 
ATOM     16  C18 <0> d           1.109  -2.051  -0.512  0.00  0.00     0.040 A 
ATOM     17  O1  <0> d          -0.277   1.319  -0.276  0.00  0.00    -0.345 OA
ATOM     18  C15 <0> d          -1.301  -0.799   0.028  0.00  0.00     0.039 A 
ATOM     19  C13 <0> d           0.949   2.055  -0.200  0.00  0.00     0.214 C 
ATOM     20  C16 <0> d          -1.217  -2.178   0.044  0.00  0.00     0.003 A 
ATOM     21  C17 <0> d          -0.014  -2.803  -0.226  0.00  0.00     0.003 A 
ENDBRANCH   6  12
BRANCH   1  22
ATOM     22  C6  <0> d           3.285   5.103  -5.165  0.00  0.00     0.293 C 
BRANCH  22  23
ATOM     23  C5  <0> d           3.521   3.995  -6.159  0.00  0.00     0.056 A 
ATOM     24  N1  <0> d           2.693   2.934  -6.409  0.00  0.00    -0.343 N 
ATOM     25  C3  <0> d           3.281   2.186  -7.368  0.00  0.00     0.209 A 
ATOM     26  N2  <0> d           4.415   2.743  -7.696  0.00  0.00    -0.254 NA
ATOM     27  C4  <0> d           4.588   3.856  -6.969  0.00  0.00     0.144 A 
BRANCH  24  28
ATOM     28  C2  <0> d           1.410   2.660  -5.758  0.00  0.00     0.125 C 
ATOM     29  C1  <0> d           0.296   3.408  -6.493  0.00  0.00     0.027 C 
ENDBRANCH  24  28
ENDBRANCH  22  23
ENDBRANCH   1  22
TORSDOF 4
