REMARK  7 active torsions:
REMARK  status: ('A' for Active; 'I' for Inactive)
REMARK    1  A    between atoms: N1_2  and  C2_3 
REMARK    2  A    between atoms: N1_2  and  S1_7 
REMARK    3  A    between atoms: C2_3  and  C3_4 
REMARK    4  A    between atoms: S1_7  and  C5_10 
REMARK    5  A    between atoms: C12_17  and  C14_20 
REMARK       I    between atoms: C14_20  and  N4_22 
REMARK    6  A    between atoms: N4_22  and  C16_24 
REMARK    7  A    between atoms: C16_24  and  C17_25 
ROOT
ATOM      1  C3  <0> d          -0.009   0.489   2.732  0.00  0.00     0.144 C 
ATOM      2  C4  <0> d           0.233  -0.074   4.071  0.00  0.00     0.060 C 
ATOM      3  N2  <0> d           0.420  -0.508   5.104  0.00  0.00    -0.197 NA
ENDROOT
BRANCH   1   4
ATOM      4  C2  <0> d           1.275   0.403   1.903  0.00  0.00     0.149 C 
BRANCH   4   5
ATOM      5  N1  <0> d           1.034   0.963   0.571  0.00  0.00    -0.310 N 
ATOM      6  C1  <0> d           1.155   2.407   0.351  0.00  0.00     0.163 C 
BRANCH   5   7
ATOM      7  S1  <0> d           0.625  -0.035  -0.685  0.00  0.00     0.260 S 
ATOM      8  O1  <0> d           0.051  -1.200  -0.108  0.00  0.00    -0.200 OA
ATOM      9  O2  <0> d          -0.067   0.767  -1.632  0.00  0.00    -0.200 OA
BRANCH   7  10
ATOM     10  C5  <0> d           2.126  -0.543  -1.456  0.00  0.00     0.080 A 
ATOM     11  C10 <0> d           2.756  -1.672  -1.026  0.00  0.00     0.042 A 
ATOM     12  C9  <0> d           3.950  -2.077  -1.640  0.00  0.00     0.030 A 
ATOM     13  C8  <0> d           4.490  -1.309  -2.700  0.00  0.00     0.045 A 
ATOM     14  C11 <0> d           4.630  -3.242  -1.220  0.00  0.00     0.136 A 
ATOM     15  C7  <0> d           3.812  -0.151  -3.116  0.00  0.00     0.032 A 
ATOM     16  N3  <0> d           5.630  -1.686  -3.293  0.00  0.00    -0.364 N 
ATOM     17  C6  <0> d           2.652   0.212  -2.502  0.00  0.00     0.027 A 
ATOM     18  C13 <0> d           6.280  -2.760  -2.924  0.00  0.00     0.108 A 
ATOM     19  H22 <0> d           5.996  -1.130  -4.039  0.00  0.00     0.165 HD
ATOM     20  C12 <0> d           5.817  -3.580  -1.882  0.00  0.00     0.084 A 
ATOM     21  O4  <0> d           4.152  -4.006  -0.211  0.00  0.00    -0.190 OA
BRANCH  20  22
ATOM     22  C14 <0> d           6.571  -4.783  -1.490  0.00  0.00     0.258 C 
ATOM     23  O3  <0> d           6.830  -4.984  -0.318  0.00  0.00    -0.267 OA
ATOM     24  N4  <0> d           6.976  -5.661  -2.429  0.00  0.00    -0.348 N 
ATOM     25  C15 <0> d           6.752  -5.371  -3.847  0.00  0.00     0.153 C 
BRANCH  24  26
ATOM     26  C16 <0> d           7.639  -6.905  -2.031  0.00  0.00     0.164 C 
BRANCH  26  27
ATOM     27  C17 <0> d           6.606  -7.983  -1.829  0.00  0.00    -0.040 A 
ATOM     28  C22 <0> d           6.233  -8.791  -2.887  0.00  0.00     0.009 A 
ATOM     29  C21 <0> d           5.286  -9.780  -2.701  0.00  0.00     0.001 A 
ATOM     30  C20 <0> d           4.710  -9.961  -1.458  0.00  0.00     0.000 A 
ATOM     31  C19 <0> d           5.082  -9.153  -0.400  0.00  0.00     0.001 A 
ATOM     32  C18 <0> d           6.034  -8.168  -0.584  0.00  0.00     0.009 A 
ENDBRANCH  26  27
ENDBRANCH  24  26
ENDBRANCH  20  22
ENDBRANCH   7  10
ENDBRANCH   5   7
ENDBRANCH   4   5
ENDBRANCH   1   4
TORSDOF 7
