REMARK  2 active torsions:
REMARK  status: ('A' for Active; 'I' for Inactive)
REMARK    1  A    between atoms: C4_4  and  S1_8 
REMARK    2  A    between atoms: S1_8  and  C6_9 
ROOT
ATOM      1  C6  <0> d          -2.056  -3.938   2.533  0.00  0.00     0.168 A 
ATOM      2  N1  <0> d          -2.751  -4.635   3.481  0.00  0.00    -0.333 N 
ATOM      3  H3  <0> d          -3.527  -4.322   3.971  0.00  0.00     0.168 HD
ATOM      4  C7  <0> d          -2.141  -5.872   3.610  0.00  0.00     0.063 A 
ATOM      5  C8  <0> d          -2.387  -6.988   4.396  0.00  0.00     0.032 A 
ATOM      6  C9  <0> d          -1.574  -8.097   4.288  0.00  0.00     0.002 A 
ATOM      7  C10 <0> d          -0.511  -8.105   3.398  0.00  0.00     0.002 A 
ATOM      8  C11 <0> d          -0.252  -7.006   2.609  0.00  0.00     0.034 A 
ATOM      9  C12 <0> d          -1.066  -5.875   2.706  0.00  0.00     0.086 A 
ATOM     10  N2  <0> d          -1.070  -4.671   2.076  0.00  0.00    -0.223 NA
ENDROOT
BRANCH   1  11
ATOM     11  S1  <0> d          -2.432  -2.301   2.001  0.00  0.00    -0.077 SA
BRANCH  11  12
ATOM     12  C4  <0> d          -1.172  -1.948   0.744  0.00  0.00     0.157 C 
ATOM     13  C3  <0> d          -1.440  -0.575   0.077  0.00  0.00     0.058 C 
ATOM     14  C2  <0> d           0.002  -0.004   0.002  0.00  0.00     0.129 C 
ATOM     15  C1  <0> d          -0.019   1.526   0.010  0.00  0.00     0.040 C 
ATOM     16  O2  <0> d           0.613  -0.514   1.206  0.00  0.00    -0.315 OA
ATOM     17  C5  <0> d           0.192  -1.783   1.387  0.00  0.00     0.273 C 
ATOM     18  O1  <0> d           0.805  -2.649   1.965  0.00  0.00    -0.264 OA
ENDBRANCH  11  12
ENDBRANCH   1  11
TORSDOF 2
