REMARK  3 active torsions:
REMARK  status: ('A' for Active; 'I' for Inactive)
REMARK    1  A    between atoms: C5_5  and  C14_16 
REMARK       I    between atoms: N1_7  and  C7_8 
REMARK    2  A    between atoms: C7_8  and  C8_10 
REMARK    3  A    between atoms: C8_10  and  C9_11 
REMARK       I    between atoms: C14_16  and  N2_18 
ROOT
ATOM      1  C1  <0> d          -0.017   1.526   0.009  0.00  0.00     0.032 C 
ATOM      2  C2  <0> d           0.003  -0.004   0.001  0.00  0.00     0.083 C 
ATOM      3  C3  <0> d          -1.426  -0.537   0.144  0.00  0.00     0.026 C 
ATOM      4  C4  <0> d          -1.387  -2.061   0.276  0.00  0.00     0.018 C 
ATOM      5  C5  <0> d          -0.600  -2.447   1.530  0.00  0.00     0.096 C 
ATOM      6  C6  <0> d           0.838  -1.935   1.403  0.00  0.00     0.140 C 
ATOM      7  N1  <0> d           0.808  -0.492   1.130  0.00  0.00    -0.347 N 
ATOM      8  C7  <0> d           1.502   0.368   1.901  0.00  0.00     0.220 C 
ATOM      9  O1  <0> d           1.393   1.563   1.725  0.00  0.00    -0.273 OA
ENDROOT
BRANCH   8  10
ATOM     10  C8  <0> d           2.412  -0.154   2.982  0.00  0.00     0.111 C 
BRANCH  10  11
ATOM     11  C9  <0> d           3.074   1.021   3.704  0.00  0.00     0.017 C 
ATOM     12  C13 <0> d           2.047   1.801   4.492  0.00  0.00    -0.026 C 
ATOM     13  C12 <0> d           2.492   2.084   5.688  0.00  0.00    -0.030 C 
ATOM     14  C11 <0> d           3.888   1.544   5.893  0.00  0.00     0.027 C 
ATOM     15  C10 <0> d           4.078   0.507   4.762  0.00  0.00     0.012 C 
ENDBRANCH  10  11
ENDBRANCH   8  10
BRANCH   5  16
ATOM     16  C14 <0> d          -0.590  -3.946   1.677  0.00  0.00     0.221 C 
ATOM     17  O2  <0> d          -1.157  -4.639   0.859  0.00  0.00    -0.273 OA
ATOM     18  N2  <0> d           0.048  -4.518   2.718  0.00  0.00    -0.370 N 
ATOM     19  H21 <0> d           0.501  -3.963   3.372  0.00  0.00     0.159 HD
ATOM     20  H22 <0> d           0.054  -5.483   2.812  0.00  0.00     0.159 HD
ENDBRANCH   5  16
TORSDOF 3
