REMARK  5 active torsions:
REMARK  status: ('A' for Active; 'I' for Inactive)
REMARK    1  A    between atoms: C3_3  and  C9_12 
REMARK    2  A    between atoms: N1_4  and  C5_6 
REMARK    3  A    between atoms: C9_12  and  N4_26 
REMARK    4  A    between atoms: C18_21  and  C19_22 
REMARK    5  A    between atoms: C18_21  and  N5_28 
ROOT
ATOM      1  C10 <0> d          -0.550   3.023   1.373  0.00  0.00     0.236 C 
ATOM      2  C11 <0> d          -0.487   3.255   2.904  0.00  0.00     0.040 C 
ATOM      3  C12 <0> d           0.305   2.014   3.374  0.00  0.00     0.009 C 
ATOM      4  C13 <0> d          -0.163   0.901   2.424  0.00  0.00     0.246 C 
ATOM      5  C14 <0> d          -0.054   1.677   4.816  0.00  0.00     0.014 C 
ATOM      6  C15 <0> d           0.442   2.799   5.735  0.00  0.00     0.029 C 
ATOM      7  C16 <0> d           1.947   2.986   5.532  0.00  0.00     0.235 C 
ATOM      8  C17 <0> d           1.800   2.257   3.225  0.00  0.00     0.246 C 
ATOM      9  N4  <0> d          -0.716   1.565   1.227  0.00  0.00    -0.065 N 
ATOM     10  H32 <0> d          -1.715   1.343   1.147  0.00  0.00     0.280 HD
ATOM     11  N5  <0> d           2.202   3.361   4.125  0.00  0.00    -0.070 N 
ATOM     12  H33 <0> d           1.648   4.195   3.897  0.00  0.00     0.279 HD
ENDROOT
BRANCH   9  13
ATOM     13  C9  <0> d          -0.013   1.086   0.008  0.00  0.00     0.292 C 
BRANCH  13  14
ATOM     14  C3  <0> d          -0.742   1.585  -1.213  0.00  0.00     0.059 A 
ATOM     15  C2  <0> d          -0.448   2.703  -1.907  0.00  0.00     0.029 A 
ATOM     16  C1  <0> d          -1.370   2.796  -2.970  0.00  0.00     0.020 A 
ATOM     17  C4  <0> d          -2.197   1.736  -2.883  0.00  0.00     0.115 A 
ATOM     18  N1  <0> d          -1.819   0.986  -1.805  0.00  0.00    -0.157 N 
BRANCH  18  19
ATOM     19  C5  <0> d          -2.428  -0.193  -1.380  0.00  0.00     0.732 A 
ATOM     20  N3  <0> d          -3.468  -0.661  -2.052  0.00  0.00    -0.074 NA
ATOM     21  C8  <0> d          -4.070  -1.777  -1.676  0.00  0.00     0.138 A 
ATOM     22  C7  <0> d          -3.599  -2.458  -0.564  0.00  0.00     0.040 A 
ATOM     23  C6  <0> d          -2.508  -1.939   0.116  0.00  0.00     0.138 A 
ATOM     24  N2  <0> d          -1.950  -0.821  -0.317  0.00  0.00    -0.074 NA
ENDBRANCH  18  19
ENDBRANCH  13  14
ENDBRANCH   9  13
BRANCH  11  25
ATOM     25  C18 <0> d           3.635   3.670   3.936  0.00  0.00     0.239 C 
BRANCH  25  26
ATOM     26  C19 <0> d           3.969   4.949   4.707  0.00  0.00     0.011 C 
ATOM     27  C22 <0> d           5.460   5.320   4.667  0.00  0.00     0.006 C 
ATOM     28  C21 <0> d           5.012   6.783   4.511  0.00  0.00     0.001 C 
ATOM     29  C20 <0> d           3.708   6.236   3.906  0.00  0.00     0.006 C 
ENDBRANCH  25  26
ENDBRANCH  11  25
TORSDOF 5
