REMARK  6 active torsions:
REMARK  status: ('A' for Active; 'I' for Inactive)
REMARK    1  A    between atoms: C2_2  and  N1_3 
REMARK    2  A    between atoms: N1_3  and  C3_4 
REMARK    3  A    between atoms: N1_3  and  C13_14 
REMARK    4  A    between atoms: C14_15  and  N6_27 
REMARK    5  A    between atoms: C15_16  and  N4_20 
REMARK    6  A    between atoms: N4_20  and  C17_21 
ROOT
ATOM      1  C13 <0> d           0.925  -1.480  -2.925  0.00  0.00     0.162 A 
ATOM      2  C14 <0> d          -0.046  -2.479  -2.824  0.00  0.00     0.117 A 
ATOM      3  C15 <0> d          -0.963  -2.615  -3.868  0.00  0.00     0.137 A 
ATOM      4  N2  <0> d          -0.878  -1.793  -4.912  0.00  0.00    -0.335 N 
ATOM      5  C16 <0> d           0.054  -0.863  -4.968  0.00  0.00     0.211 A 
ATOM      6  N3  <0> d           0.935  -0.698  -4.002  0.00  0.00    -0.224 NA
ATOM      7  H21 <0> d          -1.511  -1.880  -5.642  0.00  0.00     0.168 HD
ENDROOT
BRANCH   1   8
ATOM      8  N1  <0> d           1.862  -1.302  -1.914  0.00  0.00    -0.329 N 
BRANCH   8   9
ATOM      9  C2  <0> d           1.530  -0.487  -0.743  0.00  0.00     0.126 C 
ATOM     10  C1  <0> d           1.972   0.958  -0.985  0.00  0.00     0.027 C 
ENDBRANCH   8   9
BRANCH   8  11
ATOM     11  C3  <0> d           3.118  -1.898  -2.015  0.00  0.00     0.047 A 
ATOM     12  C8  <0> d           4.184  -1.213  -2.635  0.00  0.00     0.001 A 
ATOM     13  C7  <0> d           5.454  -1.837  -2.721  0.00  0.00    -0.024 A 
ATOM     14  C9  <0> d           4.013   0.076  -3.162  0.00  0.00     0.014 A 
ATOM     15  C6  <0> d           5.626  -3.130  -2.198  0.00  0.00     0.012 A 
ATOM     16  C12 <0> d           6.517  -1.151  -3.333  0.00  0.00     0.012 A 
ATOM     17  C5  <0> d           4.578  -3.770  -1.610  0.00  0.00     0.003 A 
ATOM     18  C4  <0> d           3.328  -3.166  -1.515  0.00  0.00     0.030 A 
ATOM     19  C11 <0> d           6.312   0.093  -3.844  0.00  0.00     0.001 A 
ATOM     20  C10 <0> d           5.064   0.708  -3.753  0.00  0.00     0.001 A 
ENDBRANCH   8  11
ENDBRANCH   1   8
BRANCH   2  21
ATOM     21  N6  <0> d          -0.098  -3.324  -1.705  0.00  0.00    -0.393 N 
ATOM     22  H19 <0> d           0.487  -3.162  -0.948  0.00  0.00     0.156 HD
ATOM     23  H20 <0> d          -0.719  -4.069  -1.688  0.00  0.00     0.156 HD
ENDBRANCH   2  21
BRANCH   3  24
ATOM     24  N4  <0> d          -1.950  -3.594  -3.818  0.00  0.00    -0.340 N 
ATOM     25  H14 <0> d          -2.065  -4.125  -3.015  0.00  0.00     0.167 HD
BRANCH  24  26
ATOM     26  C17 <0> d          -2.772  -3.810  -4.921  0.00  0.00     0.036 A 
ATOM     27  C21 <0> d          -4.133  -4.071  -4.760  0.00  0.00     0.048 A 
ATOM     28  C20 <0> d          -4.914  -4.274  -5.878  0.00  0.00     0.118 A 
ATOM     29  N5  <0> d          -4.387  -4.234  -7.087  0.00  0.00    -0.273 NA
ATOM     30  C19 <0> d          -3.103  -3.996  -7.282  0.00  0.00     0.118 A 
ATOM     31  C18 <0> d          -2.256  -3.777  -6.217  0.00  0.00     0.048 A 
ENDBRANCH  24  26
ENDBRANCH   3  24
TORSDOF 6
