REMARK  9 active torsions:
REMARK  status: ('A' for Active; 'I' for Inactive)
REMARK    1  A    between atoms: C8_8  and  N5_29 
REMARK    2  A    between atoms: C9_10  and  C10_12 
REMARK    3  A    between atoms: C10_12  and  N3_13 
REMARK       I    between atoms: N4_16  and  C15_19 
REMARK    4  A    between atoms: C15_19  and  C16_21 
REMARK    5  A    between atoms: C19_24  and  O2_27 
REMARK    6  A    between atoms: N5_29  and  C23_30 
REMARK    7  A    between atoms: C23_30  and  C24_31 
REMARK    8  A    between atoms: C24_31  and  C25_32 
REMARK    9  A    between atoms: C25_32  and  O3_33 
ROOT
ATOM      1  C1  <0> d          -1.562  -3.047  -2.150  0.00  0.00     0.048 C 
ATOM      2  C2  <0> d          -1.397  -1.585  -1.824  0.00  0.00    -0.061 A 
ATOM      3  C3  <0> d          -2.523  -0.809  -1.562  0.00  0.00     0.009 A 
ATOM      4  C4  <0> d          -2.409   0.516  -1.263  0.00  0.00     0.031 A 
ATOM      5  C5  <0> d          -1.140   1.109  -1.218  0.00  0.00     0.047 A 
ATOM      6  C6  <0> d           0.004   0.318  -1.485  0.00  0.00     0.037 A 
ATOM      7  C7  <0> d          -0.147  -1.040  -1.788  0.00  0.00     0.024 A 
ATOM      8  C8  <0> d           1.275   0.941  -1.434  0.00  0.00     0.138 A 
ATOM      9  N1  <0> d           1.327   2.233  -1.139  0.00  0.00    -0.215 NA
ATOM     10  C9  <0> d           0.230   2.932  -0.897  0.00  0.00     0.132 A 
ATOM     11  N2  <0> d          -0.972   2.408  -0.930  0.00  0.00    -0.342 N 
ATOM     12  H34 <0> d          -1.846   3.042  -0.719  0.00  0.00     0.167 HD
ENDROOT
BRANCH  10  13
ATOM     13  C10 <0> d           0.368   4.396  -0.569  0.00  0.00     0.313 C 
BRANCH  13  14
ATOM     14  N3  <0> d           0.511   4.561   0.884  0.00  0.00    -0.061 N 
ATOM     15  C14 <0> d           0.883   5.941   1.223  0.00  0.00     0.255 C 
ATOM     16  C13 <0> d           1.199   6.028   2.720  0.00  0.00     0.154 C 
ATOM     17  N4  <0> d           0.054   5.491   3.471  0.00  0.00    -0.345 N 
ATOM     18  C12 <0> d          -0.465   4.167   3.095  0.00  0.00     0.154 C 
ATOM     19  C15 <0> d          -0.505   6.193   4.477  0.00  0.00     0.253 C 
ATOM     20  C11 <0> d          -0.715   4.153   1.584  0.00  0.00     0.255 C 
ATOM     21  O1  <0> d          -0.021   7.254   4.820  0.00  0.00    -0.267 OA
ATOM     22  H35 <0> d           1.325   3.902   1.222  0.00  0.00     0.280 HD
BRANCH  19  23
ATOM     23  C16 <0> d          -1.705   5.673   5.162  0.00  0.00     0.032 A 
ATOM     24  C21 <0> d          -1.732   4.355   5.625  0.00  0.00     0.020 A 
ATOM     25  C20 <0> d          -2.853   3.874   6.264  0.00  0.00     0.038 A 
ATOM     26  C19 <0> d          -3.957   4.698   6.447  0.00  0.00     0.068 A 
ATOM     27  C18 <0> d          -3.935   6.009   5.987  0.00  0.00     0.038 A 
ATOM     28  C17 <0> d          -2.815   6.500   5.353  0.00  0.00     0.020 A 
BRANCH  26  29
ATOM     29  O2  <0> d          -5.061   4.220   7.077  0.00  0.00    -0.356 OA
ATOM     30  C22 <0> d          -6.160   5.120   7.232  0.00  0.00     0.210 C 
ENDBRANCH  26  29
ENDBRANCH  19  23
ENDBRANCH  13  14
ENDBRANCH  10  13
BRANCH   8  31
ATOM     31  N5  <0> d           2.425   0.224  -1.684  0.00  0.00    -0.374 N 
ATOM     32  H24 <0> d           2.364  -0.847  -1.928  0.00  0.00     0.161 HD
BRANCH  31  33
ATOM     33  C23 <0> d           3.730   0.888  -1.626  0.00  0.00     0.123 C 
BRANCH  33  34
ATOM     34  C24 <0> d           4.832  -0.124  -1.942  0.00  0.00     0.046 C 
BRANCH  34  35
ATOM     35  C25 <0> d           6.195   0.570  -1.881  0.00  0.00     0.168 C 
BRANCH  35  36
ATOM     36  O3  <0> d           7.225  -0.376  -2.175  0.00  0.00    -0.396 OA
ATOM     37  C26 <0> d           8.544   0.173  -2.145  0.00  0.00     0.201 C 
ENDBRANCH  35  36
ENDBRANCH  34  35
ENDBRANCH  33  34
ENDBRANCH  31  33
ENDBRANCH   8  31
TORSDOF 9
