REMARK  6 active torsions:
REMARK  status: ('A' for Active; 'I' for Inactive)
REMARK    1  A    between atoms: C2_2  and  C3_3 
REMARK    2  A    between atoms: C3_3  and  C4_4 
REMARK    3  A    between atoms: C7_7  and  C10_10 
REMARK    4  A    between atoms: C10_10  and  C11_11 
REMARK    5  A    between atoms: C10_10  and  N3_19 
REMARK    6  A    between atoms: C11_11  and  N1_12 
ROOT
ATOM      1  C10 <0> d          -2.718   2.950   4.762  0.00  0.00     0.234 C 
ENDROOT
BRANCH   1   2
ATOM      2  C7  <0> d          -2.012   2.463   3.523  0.00  0.00    -0.026 A 
ATOM      3  C6  <0> d          -1.010   3.227   2.953  0.00  0.00     0.010 A 
ATOM      4  C5  <0> d          -0.360   2.779   1.819  0.00  0.00     0.007 A 
ATOM      5  C4  <0> d          -0.718   1.572   1.248  0.00  0.00    -0.058 A 
ATOM      6  C9  <0> d          -1.719   0.808   1.818  0.00  0.00     0.007 A 
ATOM      7  C8  <0> d          -2.366   1.254   2.955  0.00  0.00     0.010 A 
BRANCH   5   8
ATOM      8  C3  <0> d          -0.013   1.086   0.008  0.00  0.00     0.038 C 
BRANCH   8   9
ATOM      9  C2  <0> d          -0.753   1.593  -1.232  0.00  0.00     0.000 C 
ATOM     10  C1  <0> d          -0.037   1.099  -2.490  0.00  0.00     0.005 C 
ENDBRANCH   8   9
ENDBRANCH   5   8
ENDBRANCH   1   2
BRANCH   1  11
ATOM     11  C11 <0> d          -3.778   3.982   4.373  0.00  0.00     0.174 C 
BRANCH  11  12
ATOM     12  N1  <0> d          -4.381   4.543   5.585  0.00  0.00    -0.266 N 
ATOM     13  C14 <0> d          -3.922   5.626   6.221  0.00  0.00     0.325 A 
ATOM     14  N2  <0> d          -4.655   5.934   7.306  0.00  0.00    -0.334 N 
ATOM     15  O2  <0> d          -2.951   6.261   5.860  0.00  0.00    -0.247 OA
ATOM     16  C13 <0> d          -5.727   4.927   7.390  0.00  0.00     0.227 A 
ATOM     17  H17 <0> d          -4.590   6.731   8.061  0.00  0.00     0.164 HD
ATOM     18  C12 <0> d          -5.472   4.034   6.192  0.00  0.00     0.245 A 
ATOM     19  O1  <0> d          -6.114   3.063   5.852  0.00  0.00    -0.271 OA
ENDBRANCH  11  12
ENDBRANCH   1  11
BRANCH   1  20
ATOM     20  N3  <0> d          -1.743   3.567   5.671  0.00  0.00    -0.069 N 
ATOM     21  H18 <0> d          -2.258   3.922   6.575  0.00  0.00     0.275 HD
ATOM     22  H19 <0> d          -1.259   4.417   5.167  0.00  0.00     0.275 HD
ATOM     23  H20 <0> d          -0.981   2.825   5.950  0.00  0.00     0.275 HD
ENDBRANCH   1  20
TORSDOF 6
