REMARK  4 active torsions:
REMARK  status: ('A' for Active; 'I' for Inactive)
REMARK    1  A    between atoms: C4_4  and  S1_8 
REMARK    2  A    between atoms: S1_8  and  C6_9 
REMARK    3  A    between atoms: C9_13  and  C11_16 
REMARK    4  A    between atoms: N2_24  and  N3_25 
ROOT
ATOM      1  C6  <0> d           3.336  -3.847  -0.475  0.00  0.00     0.188 A 
ATOM      2  N1  <0> d           2.361  -4.522   0.097  0.00  0.00    -0.215 NA
ATOM      3  C7  <0> d           2.556  -5.759   0.540  0.00  0.00     0.117 A 
ATOM      4  C8  <0> d           3.800  -6.404   0.425  0.00  0.00     0.081 A 
ATOM      5  C9  <0> d           3.843  -7.760   0.964  0.00  0.00    -0.001 A 
ATOM      6  C10 <0> d           2.721  -8.278   1.517  0.00  0.00     0.065 A 
ATOM      7  S2  <0> d           1.530  -6.963   1.344  0.00  0.00    -0.080 SA
ATOM      8  C17 <0> d           4.839  -5.648  -0.199  0.00  0.00     0.278 A 
ATOM      9  O3  <0> d           5.950  -6.127  -0.343  0.00  0.00    -0.266 OA
ATOM     10  N2  <0> d           4.573  -4.402  -0.632  0.00  0.00    -0.220 N 
ENDROOT
BRANCH   1  11
ATOM     11  S1  <0> d           3.038  -2.209  -1.052  0.00  0.00    -0.075 SA
BRANCH  11  12
ATOM     12  C4  <0> d           1.299  -1.907  -0.636  0.00  0.00     0.157 C 
ATOM     13  C3  <0> d           0.836  -0.537  -1.194  0.00  0.00     0.058 C 
ATOM     14  C2  <0> d           0.002  -0.004   0.002  0.00  0.00     0.129 C 
ATOM     15  C1  <0> d          -0.019   1.526   0.010  0.00  0.00     0.040 C 
ATOM     16  O2  <0> d           0.724  -0.512   1.144  0.00  0.00    -0.315 OA
ATOM     17  C5  <0> d           1.127  -1.767   0.865  0.00  0.00     0.273 C 
ATOM     18  O1  <0> d           1.320  -2.640   1.677  0.00  0.00    -0.264 OA
ENDBRANCH  11  12
ENDBRANCH   1  11
BRANCH  10  19
ATOM     19  N3  <0> d           5.562  -3.677  -1.235  0.00  0.00    -0.238 NA
ATOM     20  H14 <0> d           6.420  -4.206  -1.285  0.00  0.00     0.143 HD
ATOM     21  H15 <0> d           5.275  -3.366  -2.151  0.00  0.00     0.143 HD
ENDBRANCH  10  19
BRANCH   5  22
ATOM     22  C11 <0> d           5.093  -8.555   0.907  0.00  0.00    -0.024 A 
ATOM     23  C16 <0> d           5.574  -9.185   2.054  0.00  0.00     0.012 A 
ATOM     24  C15 <0> d           6.735  -9.929   1.994  0.00  0.00     0.001 A 
ATOM     25  C14 <0> d           7.428 -10.040   0.801  0.00  0.00     0.000 A 
ATOM     26  C13 <0> d           6.958  -9.412  -0.339  0.00  0.00     0.001 A 
ATOM     27  C12 <0> d           5.795  -8.671  -0.292  0.00  0.00     0.012 A 
ENDBRANCH   5  22
TORSDOF 4
