REMARK  7 active torsions:
REMARK  status: ('A' for Active; 'I' for Inactive)
REMARK    1  A    between atoms: O1_2  and  C2_3 
REMARK    2  A    between atoms: C2_3  and  C3_5 
REMARK    3  A    between atoms: C4_6  and  C7_10 
REMARK    4  A    between atoms: C10_13  and  C11_15 
REMARK    5  A    between atoms: C11_15  and  C12_16 
REMARK    6  A    between atoms: C11_15  and  N1_20 
REMARK    7  A    between atoms: C12_16  and  C13_17 
ROOT
ATOM      1  C7  <0> d           1.904  -2.274  -3.298  0.00  0.00     0.087 A 
ATOM      2  C8  <0> d           3.138  -2.625  -3.755  0.00  0.00     0.040 A 
ATOM      3  C9  <0> d           3.380  -1.851  -4.905  0.00  0.00     0.038 A 
ATOM      4  C10 <0> d           2.295  -1.072  -5.093  0.00  0.00     0.084 A 
ATOM      5  O3  <0> d           1.404  -1.334  -4.124  0.00  0.00    -0.312 OA
ENDROOT
BRANCH   1   6
ATOM      6  C4  <0> d           1.231  -2.828  -2.110  0.00  0.00     0.021 A 
ATOM      7  C3  <0> d           0.657  -2.015  -1.121  0.00  0.00     0.093 A 
ATOM      8  S1  <0> d           0.024  -3.225   0.025  0.00  0.00    -0.095 SA
ATOM      9  C6  <0> d           0.486  -4.627  -0.775  0.00  0.00     0.051 A 
ATOM     10  C5  <0> d           1.117  -4.194  -1.887  0.00  0.00     0.023 A 
BRANCH   7  11
ATOM     11  C2  <0> d           0.602  -0.603  -1.049  0.00  0.00     0.300 C 
ATOM     12  O2  <0> d           1.095   0.071  -1.934  0.00  0.00    -0.259 OA
BRANCH  11  13
ATOM     13  O1  <0> d           0.002  -0.004   0.002  0.00  0.00    -0.322 OA
ATOM     14  C1  <0> d          -0.017   1.425   0.010  0.00  0.00     0.213 C 
ENDBRANCH  11  13
ENDBRANCH   7  11
ENDBRANCH   1   6
BRANCH   4  15
ATOM     15  C11 <0> d           2.111  -0.077  -6.210  0.00  0.00     0.250 C 
BRANCH  15  16
ATOM     16  C12 <0> d           2.410   1.332  -5.692  0.00  0.00     0.152 C 
BRANCH  16  17
ATOM     17  C13 <0> d           2.346   2.311  -6.835  0.00  0.00     0.174 C 
ATOM     18  O4  <0> d           2.085   1.919  -7.960  0.00  0.00    -0.648 OA
ATOM     19  O5  <0> d           2.555   3.496  -6.636  0.00  0.00    -0.648 OA
ENDBRANCH  16  17
ENDBRANCH  15  16
BRANCH  15  20
ATOM     20  N1  <0> d           0.726  -0.136  -6.695  0.00  0.00    -0.069 N 
ATOM     21  H11 <0> d           0.529  -1.065  -7.037  0.00  0.00     0.275 HD
ATOM     22  H12 <0> d           0.095   0.085  -5.940  0.00  0.00     0.275 HD
ATOM     23  H13 <0> d           0.603   0.530  -7.443  0.00  0.00     0.275 HD
ENDBRANCH  15  20
ENDBRANCH   4  15
TORSDOF 7
