REMARK  4 active torsions:
REMARK  status: ('A' for Active; 'I' for Inactive)
REMARK    1  A    between atoms: C2_2  and  O1_3 
REMARK    2  A    between atoms: O1_3  and  N1_4 
REMARK    3  A    between atoms: C4_6  and  O3_25 
REMARK    4  A    between atoms: C9_11  and  S1_19 
ROOT
ATOM      1  N1  <0> d          -1.431  -1.912   0.005  0.00  0.00    -0.221 N 
ATOM      2  C3  <0> d          -1.488  -2.697  -1.107  0.00  0.00     0.070 A 
ATOM      3  C4  <0> d          -1.561  -3.993  -0.716  0.00  0.00     0.099 A 
ATOM      4  C5  <0> d          -1.552  -4.012   0.683  0.00  0.00     0.009 A 
ATOM      5  C6  <0> d          -1.473  -2.716   1.122  0.00  0.00     0.102 A 
ATOM      6  C7  <0> d          -1.454  -2.233   2.512  0.00  0.00     0.102 A 
ATOM      7  C8  <0> d          -0.862  -2.967   3.617  0.00  0.00     0.059 A 
ATOM      8  C9  <0> d          -0.819  -2.336   4.887  0.00  0.00     0.029 A 
ATOM      9  C10 <0> d          -1.401  -1.057   5.032  0.00  0.00     0.010 A 
ATOM     10  C11 <0> d          -1.373  -0.389   6.265  0.00  0.00     0.015 A 
ATOM     11  C12 <0> d          -1.970   0.831   6.387  0.00  0.00     0.001 A 
ATOM     12  C13 <0> d          -2.604   1.425   5.300  0.00  0.00     0.002 A 
ATOM     13  C14 <0> d          -2.637   0.808   4.085  0.00  0.00     0.032 A 
ATOM     14  C15 <0> d          -2.022  -0.445   3.918  0.00  0.00     0.069 A 
ATOM     15  N2  <0> d          -2.013  -1.042   2.725  0.00  0.00    -0.245 NA
ATOM     16  C17 <0> d          -0.363  -4.278   3.574  0.00  0.00     0.163 C 
ATOM     17  O2  <0> d           0.138  -4.680   4.605  0.00  0.00    -0.292 OA
ATOM     18  C18 <0> d          -0.362  -5.230   2.461  0.00  0.00     0.089 C 
ATOM     19  C19 <0> d          -1.601  -5.207   1.585  0.00  0.00     0.052 C 
ATOM     20  C20 <0> d          -1.472  -2.207  -2.532  0.00  0.00     0.074 C 
ENDROOT
BRANCH   1  21
ATOM     21  O1  <0> d          -1.339  -0.499   0.012  0.00  0.00    -0.273 OA
BRANCH  21  22
ATOM     22  C2  <0> d           0.002  -0.004   0.002  0.00  0.00     0.197 C 
ATOM     23  C1  <0> d          -0.019   1.526   0.010  0.00  0.00     0.036 C 
ENDBRANCH  21  22
ENDBRANCH   1  21
BRANCH   3  24
ATOM     24  O3  <0> d          -1.632  -5.079  -1.535  0.00  0.00    -0.358 OA
ATOM     25  H17 <0> d          -0.770  -5.444  -1.778  0.00  0.00     0.217 HD
ENDBRANCH   3  24
BRANCH   8  26
ATOM     26  S1  <0> d          -0.054  -3.134   6.259  0.00  0.00    -0.132 SA
ATOM     27  C16 <0> d           1.673  -2.586   6.178  0.00  0.00     0.095 C 
ENDBRANCH   8  26
TORSDOF 4
