REMARK  2 active torsions:
REMARK  status: ('A' for Active; 'I' for Inactive)
REMARK    1  A    between atoms: N2_7  and  S1_8 
REMARK    2  A    between atoms: S1_8  and  C6_11 
ROOT
ATOM      1  C6  <0> d           0.203   0.458   3.628  0.00  0.00     0.082 A 
ATOM      2  C7  <0> d          -0.883   1.314   3.650  0.00  0.00     0.028 A 
ATOM      3  C8  <0> d          -1.794   1.256   4.689  0.00  0.00     0.040 A 
ATOM      4  C9  <0> d          -1.619   0.338   5.710  0.00  0.00     0.096 A 
ATOM      5  C10 <0> d          -0.524  -0.524   5.688  0.00  0.00     0.070 A 
ATOM      6  C11 <0> d           0.383  -0.465   4.642  0.00  0.00     0.057 A 
ATOM      7  N3  <0> d          -0.356  -1.448   6.729  0.00  0.00    -0.323 N 
ATOM      8  C12 <0> d          -1.397  -1.703   7.551  0.00  0.00     0.246 C 
ATOM      9  O3  <0> d          -1.267  -2.474   8.478  0.00  0.00    -0.271 OA
ATOM     10  C13 <0> d          -2.723  -1.025   7.312  0.00  0.00     0.278 C 
ATOM     11  O4  <0> d          -2.505   0.267   6.739  0.00  0.00    -0.340 OA
ATOM     12  H15 <0> d           0.494  -1.896   6.858  0.00  0.00     0.169 HD
ENDROOT
BRANCH   1  13
ATOM     13  S1  <0> d           1.358   0.539   2.299  0.00  0.00     0.261 S 
ATOM     14  O1  <0> d           2.578  -0.001   2.788  0.00  0.00    -0.200 OA
ATOM     15  O2  <0> d           1.267   1.851   1.762  0.00  0.00    -0.200 OA
BRANCH  13  16
ATOM     16  N2  <0> d           0.822  -0.493   1.121  0.00  0.00    -0.299 N 
ATOM     17  C2  <0> d          -0.205  -0.072   0.156  0.00  0.00     0.117 C 
ATOM     18  C1  <0> d          -0.447   1.433   0.286  0.00  0.00     0.034 C 
ATOM     19  C3  <0> d           0.289  -0.394  -1.258  0.00  0.00     0.257 C 
ATOM     20  N1  <0> d           0.649  -1.815  -1.338  0.00  0.00    -0.072 N 
ATOM     21  C4  <0> d           1.785  -2.094  -0.450  0.00  0.00     0.253 C 
ATOM     22  H7  <0> d          -0.141  -2.377  -1.059  0.00  0.00     0.277 HD
ATOM     23  H18 <0> d           0.903  -2.043  -2.288  0.00  0.00     0.277 HD
ATOM     24  C5  <0> d           1.364  -1.857   1.005  0.00  0.00     0.163 C 
ENDBRANCH  13  16
ENDBRANCH   1  13
TORSDOF 2
