REMARK  4 active torsions:
REMARK  status: ('A' for Active; 'I' for Inactive)
REMARK    1  A    between atoms: C2_2  and  C3_3 
REMARK    2  A    between atoms: C2_2  and  N4_29 
REMARK       I    between atoms: C3_3  and  N1_5 
REMARK    3  A    between atoms: N1_5  and  C4_6 
REMARK    4  A    between atoms: C16_20  and  C19_23 
REMARK       I    between atoms: C19_23  and  N3_25 
ROOT
ATOM      1  C4  <0> d          -0.703   2.182   5.970  0.00  0.00     0.098 A 
ATOM      2  C5  <0> d          -0.321   2.099   7.299  0.00  0.00     0.085 A 
ATOM      3  C6  <0> d          -1.145   2.783   8.286  0.00  0.00    -0.021 A 
ATOM      4  C7  <0> d          -2.219   3.428   7.781  0.00  0.00    -0.007 A 
ATOM      5  S1  <0> d          -2.133   3.158   6.032  0.00  0.00    -0.075 SA
ATOM      6  C8  <0> d          -3.257   4.204   8.531  0.00  0.00     0.047 C 
ATOM      7  C9  <0> d          -2.564   5.179   9.491  0.00  0.00     0.005 C 
ATOM      8  C10 <0> d          -2.341   4.470  10.823  0.00  0.00     0.001 C 
ATOM      9  C11 <0> d          -2.082   2.983  10.590  0.00  0.00     0.005 C 
ATOM     10  C12 <0> d          -0.811   2.784   9.772  0.00  0.00     0.041 C 
ATOM     11  C13 <0> d           0.846   1.367   7.689  0.00  0.00     0.103 C 
ATOM     12  N2  <0> d           1.771   0.785   7.999  0.00  0.00    -0.191 NA
ENDROOT
BRANCH   1  13
ATOM     13  N1  <0> d          -0.087   1.624   4.859  0.00  0.00    -0.318 N 
ATOM     14  C3  <0> d          -0.610   1.815   3.631  0.00  0.00     0.253 C 
ATOM     15  O1  <0> d          -1.620   2.474   3.498  0.00  0.00    -0.271 OA
ATOM     16  H5  <0> d           0.720   1.097   4.965  0.00  0.00     0.169 HD
BRANCH  14  17
ATOM     17  C2  <0> d           0.059   1.209   2.425  0.00  0.00     0.275 C 
ATOM     18  C1  <0> d           0.102  -0.313   2.576  0.00  0.00     0.050 C 
BRANCH  17  19
ATOM     19  N4  <0> d          -0.701   1.589   1.216  0.00  0.00    -0.059 N 
ATOM     20  C14 <0> d          -0.013   1.086   0.008  0.00  0.00     0.236 C 
ATOM     21  C15 <0> d          -0.752   1.593  -1.232  0.00  0.00     0.042 C 
ATOM     22  C16 <0> d          -2.194   1.077  -1.207  0.00  0.00     0.081 C 
ATOM     23  C17 <0> d          -2.872   1.544   0.085  0.00  0.00     0.042 C 
ATOM     24  C18 <0> d          -2.071   1.038   1.287  0.00  0.00     0.236 C 
ATOM     25  H27 <0> d          -0.756   2.613   1.166  0.00  0.00     0.280 HD
BRANCH  22  26
ATOM     26  C19 <0> d          -2.944   1.621  -2.395  0.00  0.00     0.219 C 
ATOM     27  O2  <0> d          -2.382   2.349  -3.186  0.00  0.00    -0.273 OA
ATOM     28  N3  <0> d          -4.240   1.298  -2.580  0.00  0.00    -0.370 N 
ATOM     29  H25 <0> d          -4.689   0.715  -1.947  0.00  0.00     0.159 HD
ATOM     30  H26 <0> d          -4.723   1.647  -3.345  0.00  0.00     0.159 HD
ENDBRANCH  22  26
ENDBRANCH  17  19
ENDBRANCH  14  17
ENDBRANCH   1  13
TORSDOF 4
