REMARK  6 active torsions:
REMARK  status: ('A' for Active; 'I' for Inactive)
REMARK    1  A    between atoms: C7_11  and  C8_13 
REMARK    2  A    between atoms: C8_13  and  S2_14 
REMARK    3  A    between atoms: S2_14  and  C9_15 
REMARK    4  A    between atoms: C9_15  and  C11_17 
REMARK       I    between atoms: C11_17  and  N3_19 
REMARK    5  A    between atoms: N3_19  and  N4_20 
REMARK       I    between atoms: N4_20  and  C12_21 
REMARK    6  A    between atoms: C12_21  and  C13_23 
ROOT
ATOM      1  C9  <0> d          -4.191   1.830   0.032  0.00  0.00     0.137 C 
ATOM      2  C10 <0> d          -4.277   2.628  -1.271  0.00  0.00     0.031 C 
ENDROOT
BRANCH   1   3
ATOM      3  S2  <0> d          -2.689   0.813   0.019  0.00  0.00    -0.147 SA
BRANCH   3   4
ATOM      4  C8  <0> d          -1.338   2.024   0.019  0.00  0.00     0.153 C 
BRANCH   4   5
ATOM      5  C7  <0> d          -0.016   1.302   0.009  0.00  0.00     0.117 A 
ATOM      6  N1  <0> d           1.137   2.020   0.002  0.00  0.00    -0.310 N 
ATOM      7  C6  <0> d           2.339   1.415  -0.012  0.00  0.00     0.260 A 
ATOM      8  H1  <0> d           1.092   2.989   0.008  0.00  0.00     0.170 HD
ATOM      9  C5  <0> d           2.395  -0.017  -0.021  0.00  0.00     0.075 A 
ATOM     10  O1  <0> d           3.364   2.075  -0.018  0.00  0.00    -0.267 OA
ATOM     11  C2  <0> d           3.551  -0.893  -0.037  0.00  0.00    -0.031 A 
ATOM     12  C4  <0> d           1.151  -0.673  -0.013  0.00  0.00     0.116 A 
ATOM     13  C1  <0> d           4.944  -0.317  -0.048  0.00  0.00     0.050 C 
ATOM     14  C3  <0> d           3.366  -2.222  -0.042  0.00  0.00    -0.012 A 
ATOM     15  S1  <0> d           1.591  -2.392  -0.026  0.00  0.00    -0.074 SA
ATOM     16  C19 <0> d           4.409  -3.311  -0.058  0.00  0.00     0.057 C 
ATOM     17  N2  <0> d           0.002  -0.004   0.002  0.00  0.00    -0.226 NA
ENDBRANCH   4   5
ENDBRANCH   3   4
ENDBRANCH   1   3
BRANCH   1  18
ATOM     18  C11 <0> d          -5.400   0.939   0.156  0.00  0.00     0.249 C 
ATOM     19  O2  <0> d          -5.319  -0.237  -0.130  0.00  0.00    -0.271 OA
ATOM     20  N3  <0> d          -6.571   1.449   0.586  0.00  0.00    -0.266 N 
ATOM     21  H11 <0> d          -6.636   2.389   0.815  0.00  0.00     0.190 HD
BRANCH  20  22
ATOM     22  N4  <0> d          -7.695   0.621   0.702  0.00  0.00    -0.263 N 
ATOM     23  C12 <0> d          -8.866   1.131   1.131  0.00  0.00     0.271 C 
ATOM     24  O3  <0> d          -8.947   2.309   1.418  0.00  0.00    -0.266 OA
ATOM     25  H12 <0> d          -7.630  -0.320   0.473  0.00  0.00     0.190 HD
BRANCH  23  26
ATOM     26  C13 <0> d         -10.052   0.257   1.254  0.00  0.00     0.051 A 
ATOM     27  C18 <0> d         -11.267   0.782   1.698  0.00  0.00     0.026 A 
ATOM     28  C17 <0> d         -12.371  -0.041   1.810  0.00  0.00     0.020 A 
ATOM     29 Br1  <0> d         -11.402   2.614   2.146  0.00  0.00    -0.050 Br
ATOM     30  C16 <0> d         -12.274  -1.381   1.482  0.00  0.00     0.001 A 
ATOM     31  C15 <0> d         -11.073  -1.907   1.041  0.00  0.00     0.001 A 
ATOM     32  C14 <0> d          -9.964  -1.096   0.920  0.00  0.00     0.018 A 
ENDBRANCH  23  26
ENDBRANCH  20  22
ENDBRANCH   1  18
TORSDOF 6
