REMARK  3 active torsions:
REMARK  status: ('A' for Active; 'I' for Inactive)
REMARK    1  A    between atoms: N1_4  and  C7_9 
REMARK    2  A    between atoms: C7_9  and  C8_10 
REMARK    3  A    between atoms: C10_12  and  O2_15 
ROOT
ATOM      1  C1  <0> d          -0.019   1.526   0.010  0.00  0.00     0.041 C 
ATOM      2  C2  <0> d           0.002  -0.004   0.002  0.00  0.00     0.143 C 
ATOM      3  C3  <0> d           0.686  -0.479  -1.254  0.00  0.00     0.266 C 
ATOM      4  N1  <0> d           0.035  -1.724  -1.706  0.00  0.00    -0.067 N 
ATOM      5  C4  <0> d           0.485  -2.860  -1.017  0.00  0.00     0.237 C 
ATOM      6  C5  <0> d           0.177  -2.772   0.492  0.00  0.00     0.054 C 
ATOM      7  C6  <0> d           1.157  -1.831   1.144  0.00  0.00     0.170 C 
ATOM      8  O1  <0> d           0.679  -0.471   1.186  0.00  0.00    -0.385 OA
ATOM      9  H25 <0> d          -0.961  -1.637  -1.571  0.00  0.00     0.280 HD
ENDROOT
BRANCH   4  10
ATOM     10  C7  <0> d           0.301  -1.904  -3.139  0.00  0.00     0.270 C 
BRANCH  10  11
ATOM     11  C8  <0> d          -0.468  -3.123  -3.652  0.00  0.00     0.248 C 
ATOM     12  N2  <0> d          -1.908  -2.959  -3.376  0.00  0.00     0.092 N 
ATOM     13  C11 <0> d          -2.632  -2.946  -4.669  0.00  0.00     0.302 C 
ATOM     14  H21 <0> d          -2.247  -3.696  -2.777  0.00  0.00     0.316 HD
ATOM     15  C10 <0> d          -1.707  -3.708  -5.650  0.00  0.00     0.151 C 
ATOM     16  C9  <0> d          -0.303  -3.243  -5.181  0.00  0.00     0.071 C 
BRANCH  15  17
ATOM     17  O2  <0> d          -1.954  -3.312  -7.000  0.00  0.00    -0.389 OA
ATOM     18  C12 <0> d          -2.818  -4.196  -7.716  0.00  0.00     0.202 C 
ENDBRANCH  15  17
ENDBRANCH  10  11
ENDBRANCH   4  10
TORSDOF 3
