REMARK  3 active torsions:
REMARK  status: ('A' for Active; 'I' for Inactive)
REMARK    1  A    between atoms: C3_3  and  C10_12 
REMARK       I    between atoms: C10_12  and  N1_14 
REMARK    2  A    between atoms: N1_14  and  C11_15 
REMARK    3  A    between atoms: C11_15  and  C13_17 
ROOT
ATOM      1  C10 <0> d          -1.972  -0.134  -1.209  0.00  0.00     0.250 C 
ATOM      2  O3  <0> d          -2.412  -0.939  -2.002  0.00  0.00    -0.271 OA
ATOM      3  N1  <0> d          -2.048   1.185  -1.476  0.00  0.00    -0.350 N 
ATOM      4  H11 <0> d          -1.632   1.826  -0.878  0.00  0.00     0.163 HD
ENDROOT
BRANCH   3   5
ATOM      5  C11 <0> d          -2.759   1.652  -2.668  0.00  0.00     0.113 C 
ATOM      6  C12 <0> d          -4.252   1.778  -2.355  0.00  0.00     0.037 C 
BRANCH   5   7
ATOM      7  C13 <0> d          -2.218   2.995  -3.083  0.00  0.00    -0.034 A 
ATOM      8  C19 <0> d          -2.049   3.256  -4.398  0.00  0.00     0.041 A 
ATOM      9  C18 <0> d          -1.529   4.557  -4.814  0.00  0.00     0.063 A 
ATOM     10  C16 <0> d          -1.188   5.560  -3.756  0.00  0.00     0.063 A 
ATOM     11  N3  <0> d          -1.258   5.117  -5.966  0.00  0.00    -0.306 N 
ATOM     12  C15 <0> d          -1.396   5.194  -2.357  0.00  0.00     0.032 A 
ATOM     13  N2  <0> d          -0.745   6.625  -4.376  0.00  0.00    -0.307 N 
ATOM     14  C14 <0> d          -1.885   3.972  -2.053  0.00  0.00     0.011 A 
ATOM     15  C17 <0> d          -0.776   6.383  -5.730  0.00  0.00     0.325 A 
ATOM     16  H18 <0> d          -0.446   7.445  -3.953  0.00  0.00     0.170 HD
ATOM     17  O4  <0> d          -0.430   7.169  -6.586  0.00  0.00    -0.247 OA
ATOM     18  H19 <0> d          -1.376   4.709  -6.838  0.00  0.00     0.170 HD
ENDBRANCH   5   7
ENDBRANCH   3   5
BRANCH   1  19
ATOM     19  C3  <0> d          -1.339  -0.608   0.074  0.00  0.00     0.249 C 
ATOM     20  C2  <0> d          -2.410  -1.232   0.979  0.00  0.00     0.163 C 
ATOM     21  C1  <0> d          -3.042  -2.434   0.276  0.00  0.00     0.043 C 
ATOM     22  O2  <0> d          -1.780  -1.659   2.192  0.00  0.00    -0.340 OA
ATOM     23  C9  <0> d          -0.924  -0.777   2.780  0.00  0.00     0.102 A 
ATOM     24  C4  <0> d          -0.411   0.299   2.067  0.00  0.00     0.103 A 
ATOM     25  C8  <0> d          -0.561  -0.963   4.105  0.00  0.00     0.039 A 
ATOM     26  O1  <0> d          -0.759   0.503   0.766  0.00  0.00    -0.331 OA
ATOM     27  C5  <0> d           0.466   1.180   2.683  0.00  0.00     0.040 A 
ATOM     28  C6  <0> d           0.826   0.988   4.003  0.00  0.00     0.003 A 
ATOM     29  C7  <0> d           0.313  -0.081   4.713  0.00  0.00     0.003 A 
ENDBRANCH   1  19
TORSDOF 3
