REMARK  8 active torsions:
REMARK  status: ('A' for Active; 'I' for Inactive)
REMARK    1  A    between atoms: C11_14  and  C19_26 
REMARK    2  A    between atoms: C12_15  and  N3_16 
REMARK    3  A    between atoms: N4_17  and  C13_18 
REMARK    4  A    between atoms: C13_18  and  C14_19 
REMARK    5  A    between atoms: C14_19  and  C15_20 
REMARK    6  A    between atoms: C15_20  and  N5_21 
REMARK       I    between atoms: C19_26  and  N7_28 
REMARK    7  A    between atoms: N7_28  and  C20_29 
REMARK    8  A    between atoms: C20_29  and  C22_31 
ROOT
ATOM      1  C1  <0> d           2.136   1.805   0.711  0.00  0.00     0.052 C 
ATOM      2  C2  <0> d           1.630   0.416   0.417  0.00  0.00    -0.015 A 
ATOM      3  C3  <0> d           1.690  -0.080  -0.849  0.00  0.00     0.012 A 
ATOM      4  C4  <0> d           1.216  -1.374  -1.110  0.00  0.00     0.018 A 
ATOM      5  C5  <0> d           0.703  -2.122  -0.110  0.00  0.00     0.102 A 
ATOM      6  N1  <0> d           0.637  -1.636   1.164  0.00  0.00    -0.272 N 
ATOM      7  C6  <0> d           1.097  -0.379   1.454  0.00  0.00     0.145 A 
ATOM      8  N2  <0> d           1.055   0.126   2.682  0.00  0.00    -0.211 NA
ATOM      9  C7  <0> d           0.566  -0.562   3.718  0.00  0.00     0.149 A 
ATOM     10  C8  <0> d           0.075  -1.878   3.499  0.00  0.00     0.080 A 
ATOM     11  C9  <0> d           0.116  -2.417   2.139  0.00  0.00     0.267 A 
ATOM     12  O1  <0> d          -0.291  -3.539   1.895  0.00  0.00    -0.267 OA
ATOM     13  C10 <0> d          -0.439  -2.612   4.565  0.00  0.00     0.042 A 
ATOM     14  C11 <0> d          -0.451  -2.014   5.827  0.00  0.00     0.076 A 
ATOM     15  C12 <0> d           0.053  -0.702   5.973  0.00  0.00     0.118 A 
ATOM     16  N4  <0> d           0.534  -0.033   4.943  0.00  0.00    -0.316 N 
ENDROOT
BRANCH  14  17
ATOM     17  C19 <0> d          -0.983  -2.741   6.990  0.00  0.00     0.256 C 
ATOM     18  O2  <0> d          -0.901  -2.254   8.102  0.00  0.00    -0.268 OA
ATOM     19  N7  <0> d          -1.561  -3.947   6.824  0.00  0.00    -0.348 N 
ATOM     20  H19 <0> d          -1.626  -4.336   5.938  0.00  0.00     0.163 HD
BRANCH  19  21
ATOM     21  C20 <0> d          -2.090  -4.671   7.983  0.00  0.00     0.114 C 
ATOM     22  C21 <0> d          -3.514  -4.193   8.276  0.00  0.00     0.037 C 
BRANCH  21  23
ATOM     23  C22 <0> d          -2.108  -6.149   7.686  0.00  0.00    -0.036 A 
ATOM     24  C27 <0> d          -1.752  -7.055   8.668  0.00  0.00     0.009 A 
ATOM     25  C26 <0> d          -1.772  -8.411   8.397  0.00  0.00     0.001 A 
ATOM     26  C25 <0> d          -2.139  -8.860   7.143  0.00  0.00     0.000 A 
ATOM     27  C24 <0> d          -2.490  -7.953   6.160  0.00  0.00     0.001 A 
ATOM     28  C23 <0> d          -2.474  -6.598   6.431  0.00  0.00     0.009 A 
ENDBRANCH  21  23
ENDBRANCH  19  21
ENDBRANCH  14  17
BRANCH  15  29
ATOM     29  N3  <0> d           0.043  -0.110   7.219  0.00  0.00    -0.384 N 
ATOM     30  H9  <0> d           0.120  -0.656   8.017  0.00  0.00     0.157 HD
ATOM     31  H28 <0> d          -0.041   0.853   7.297  0.00  0.00     0.157 HD
ENDBRANCH  15  29
BRANCH  16  32
ATOM     32  C13 <0> d           1.045   1.325   5.148  0.00  0.00     0.134 C 
BRANCH  32  33
ATOM     33  C14 <0> d          -0.090   2.332   4.954  0.00  0.00     0.040 C 
BRANCH  33  34
ATOM     34  C15 <0> d           0.444   3.750   5.168  0.00  0.00     0.131 C 
BRANCH  34  35
ATOM     35  N5  <0> d          -0.643   4.714   4.983  0.00  0.00    -0.352 N 
ATOM     36  C18 <0> d          -1.480   5.173   5.939  0.00  0.00     0.182 A 
ATOM     37  N6  <0> d          -2.312   6.018   5.395  0.00  0.00    -0.361 N 
ATOM     38  C17 <0> d          -2.046   6.122   4.085  0.00  0.00     0.106 A 
ATOM     39  H29 <0> d          -3.016   6.494   5.864  0.00  0.00     0.166 HD
ATOM     40  C16 <0> d          -1.005   5.314   3.807  0.00  0.00     0.108 A 
ENDBRANCH  34  35
ENDBRANCH  33  34
ENDBRANCH  32  33
ENDBRANCH  16  32
TORSDOF 8
