REMARK  2 active torsions:
REMARK  status: ('A' for Active; 'I' for Inactive)
REMARK    1  A    between atoms: C7_7  and  N1_8 
REMARK       I    between atoms: N1_8  and  C8_9 
REMARK    2  A    between atoms: C8_9  and  C9_11 
ROOT
ATOM      1  C9  <0> d          -0.109   0.182   4.852  0.00  0.00     0.225 C 
ATOM      2  C10 <0> d           0.348  -0.690   5.994  0.00  0.00     0.267 C 
ATOM      3  O2  <0> d          -0.460  -1.332   6.631  0.00  0.00    -0.269 OA
ATOM      4  N2  <0> d           1.660  -0.755   6.303  0.00  0.00    -0.322 N 
ATOM      5  C11 <0> d           2.561   0.088   5.638  0.00  0.00     0.068 A 
ATOM      6  C12 <0> d           3.928  -0.105   5.761  0.00  0.00     0.032 A 
ATOM      7  C13 <0> d           4.804   0.727   5.088  0.00  0.00     0.002 A 
ATOM      8  C14 <0> d           4.319   1.750   4.294  0.00  0.00     0.003 A 
ATOM      9  C15 <0> d           2.957   1.951   4.171  0.00  0.00     0.039 A 
ATOM     10  C16 <0> d           2.074   1.126   4.846  0.00  0.00     0.098 A 
ATOM     11  O3  <0> d           0.733   1.333   4.759  0.00  0.00    -0.319 OA
ATOM     12  C17 <0> d          -1.553   0.625   5.097  0.00  0.00     0.068 C 
ATOM     13  H8  <0> d           1.976  -1.377   6.977  0.00  0.00     0.169 HD
ENDROOT
BRANCH   1  14
ATOM     14  C8  <0> d          -0.036  -0.598   3.564  0.00  0.00     0.267 C 
ATOM     15  N1  <0> d           0.098   0.050   2.390  0.00  0.00    -0.323 N 
ATOM     16  H7  <0> d           0.214   1.013   2.378  0.00  0.00     0.169 HD
ATOM     17  O1  <0> d          -0.098  -1.810   3.585  0.00  0.00    -0.269 OA
BRANCH  15  18
ATOM     18  C7  <0> d           0.068  -0.666   1.189  0.00  0.00     0.046 A 
ATOM     19  C2  <0> d           1.243  -0.888   0.482  0.00  0.00    -0.035 A 
ATOM     20  C1  <0> d           2.551  -0.356   1.008  0.00  0.00     0.050 C 
ATOM     21  C3  <0> d           1.211  -1.600  -0.701  0.00  0.00     0.009 A 
ATOM     22  C4  <0> d           0.011  -2.088  -1.185  0.00  0.00     0.001 A 
ATOM     23  C5  <0> d          -1.161  -1.864  -0.486  0.00  0.00     0.009 A 
ATOM     24  C6  <0> d          -1.136  -1.153   0.698  0.00  0.00    -0.035 A 
ATOM     25  C18 <0> d          -2.414  -0.909   1.458  0.00  0.00     0.050 C 
ENDBRANCH  15  18
ENDBRANCH   1  14
TORSDOF 2
