REMARK  3 active torsions:
REMARK  status: ('A' for Active; 'I' for Inactive)
REMARK    1  A    between atoms: C2_2  and  C6_8 
REMARK    2  A    between atoms: C6_8  and  C7_9 
REMARK    3  A    between atoms: C6_8  and  N3_21 
ROOT
ATOM      1  C7  <0> d           1.470   4.070  -1.390  0.00  0.00     0.016 A 
ATOM      2  C8  <0> d           2.756   4.367  -1.802  0.00  0.00     0.022 A 
ATOM      3  C9  <0> d           2.983   4.829  -3.083  0.00  0.00    -0.030 A 
ATOM      4  C10 <0> d           1.919   4.995  -3.960  0.00  0.00     0.044 A 
ATOM      5  C11 <0> d           0.628   4.696  -3.546  0.00  0.00     0.073 A 
ATOM      6  C12 <0> d           0.407   4.229  -2.263  0.00  0.00     0.127 A 
ATOM      7  F1  <0> d          -0.848   3.932  -1.860  0.00  0.00    -0.205 F 
ATOM      8  N2  <0> d           2.150   5.462  -5.258  0.00  0.00    -0.327 N 
ATOM      9  C13 <0> d           3.383   5.403  -5.794  0.00  0.00     0.222 C 
ATOM     10  O1  <0> d           3.570   5.826  -6.915  0.00  0.00    -0.273 OA
ATOM     11  C14 <0> d           4.533   4.820  -5.018  0.00  0.00     0.108 C 
ATOM     12  C15 <0> d           4.383   5.154  -3.534  0.00  0.00     0.050 C 
ATOM     13  H7  <0> d           1.417   5.830  -5.775  0.00  0.00     0.169 HD
ENDROOT
BRANCH   1  14
ATOM     14  C6  <0> d           1.226   3.566   0.009  0.00  0.00     0.254 C 
BRANCH  14  15
ATOM     15  C2  <0> d           1.194   2.059   0.002  0.00  0.00    -0.005 A 
ATOM     16  C1  <0> d          -0.017   1.383   0.010  0.00  0.00     0.031 A 
ATOM     17  C5  <0> d           0.002  -0.004   0.002  0.00  0.00     0.029 A 
ATOM     18  C4  <0> d           1.219  -0.661  -0.013  0.00  0.00     0.135 A 
ATOM     19 Br1  <0> d          -1.615  -0.984   0.013  0.00  0.00    -0.050 Br
ATOM     20  N1  <0> d           2.351   0.016  -0.020  0.00  0.00    -0.271 NA
ATOM     21  C3  <0> d           2.370   1.334  -0.013  0.00  0.00     0.126 A 
ENDBRANCH  14  15
BRANCH  14  22
ATOM     22  N3  <0> d           2.305   4.028   0.891  0.00  0.00    -0.067 N 
ATOM     23  H12 <0> d           2.142   3.691   1.828  0.00  0.00     0.275 HD
ATOM     24  H13 <0> d           3.189   3.675   0.556  0.00  0.00     0.275 HD
ATOM     25  H14 <0> d           2.327   5.037   0.896  0.00  0.00     0.275 HD
ENDBRANCH  14  22
ENDBRANCH   1  14
TORSDOF 3
