REMARK  3 active torsions:
REMARK  status: ('A' for Active; 'I' for Inactive)
REMARK    1  A    between atoms: C5_5  and  C6_7 
REMARK    2  A    between atoms: C9_11  and  O3_21 
REMARK    3  A    between atoms: C10_12  and  O2_19 
ROOT
ATOM      1  C6  <0> d           1.043  -4.062  -0.027  0.00  0.00     0.228 C 
ATOM      2  N1  <0> d           0.094  -4.948   0.658  0.00  0.00    -0.363 N 
ATOM      3  C7  <0> d           0.040  -4.915   2.050  0.00  0.00     0.048 A 
ATOM      4  C8  <0> d          -1.123  -5.197   2.741  0.00  0.00     0.069 A 
ATOM      5  C9  <0> d          -1.127  -5.145   4.127  0.00  0.00     0.103 A 
ATOM      6  C10 <0> d           0.034  -4.808   4.825  0.00  0.00     0.102 A 
ATOM      7  C11 <0> d           1.201  -4.527   4.144  0.00  0.00     0.059 A 
ATOM      8  C12 <0> d           1.214  -4.580   2.749  0.00  0.00     0.061 A 
ATOM      9  C13 <0> d           2.434  -4.299   1.976  0.00  0.00     0.257 C 
ATOM     10  O1  <0> d           3.516  -4.255   2.531  0.00  0.00    -0.267 OA
ATOM     11  N2  <0> d           2.339  -4.092   0.650  0.00  0.00    -0.326 N 
ATOM     12  C14 <0> d           3.563  -3.893  -0.130  0.00  0.00     0.155 C 
ATOM     13  H7  <0> d          -0.482  -5.543   0.153  0.00  0.00     0.162 HD
ENDROOT
BRANCH   1  14
ATOM     14  C5  <0> d           0.507  -2.653  -0.016  0.00  0.00     0.025 A 
ATOM     15  C4  <0> d          -0.780  -2.230  -0.007  0.00  0.00     0.019 A 
ATOM     16  C3  <0> d          -1.039  -0.872   0.002  0.00  0.00     0.015 A 
ATOM     17  C2  <0> d           0.002  -0.004   0.002  0.00  0.00    -0.021 A 
ATOM     18  C1  <0> d          -0.018   1.503   0.010  0.00  0.00     0.056 C 
ATOM     19  S1  <0> d           1.404  -1.109  -0.018  0.00  0.00    -0.096 SA
ENDBRANCH   1  14
BRANCH   5  20
ATOM     20  O3  <0> d          -2.268  -5.422   4.809  0.00  0.00    -0.353 OA
ATOM     21  C16 <0> d          -3.421  -5.759   4.035  0.00  0.00     0.210 C 
ENDBRANCH   5  20
BRANCH   6  22
ATOM     22  O2  <0> d           0.015  -4.757   6.185  0.00  0.00    -0.353 OA
ATOM     23  C15 <0> d           1.237  -4.407   6.838  0.00  0.00     0.210 C 
ENDBRANCH   6  22
TORSDOF 3
