REMARK  4 active torsions:
REMARK  status: ('A' for Active; 'I' for Inactive)
REMARK    1  A    between atoms: C2_2  and  C3_3 
REMARK    2  A    between atoms: C2_2  and  N2_7 
REMARK       I    between atoms: C3_3  and  N1_5 
REMARK    3  A    between atoms: N2_7  and  C5_8 
REMARK    4  A    between atoms: C5_8  and  C6_9 
ROOT
ATOM      1  N2  <0> d           0.690  -0.478  -1.207  0.00  0.00    -0.057 N 
ATOM      2  H9  <0> d           1.608  -0.063  -1.256  0.00  0.00     0.278 HD
ATOM      3  H14 <0> d           0.776  -1.482  -1.172  0.00  0.00     0.278 HD
ENDROOT
BRANCH   1   4
ATOM      4  C2  <0> d           0.002  -0.004   0.002  0.00  0.00     0.273 C 
ATOM      5  C1  <0> d          -0.019   1.526   0.010  0.00  0.00     0.050 C 
BRANCH   4   6
ATOM      6  C3  <0> d           0.731  -0.503   1.223  0.00  0.00     0.247 C 
ATOM      7  O1  <0> d           1.725  -1.187   1.099  0.00  0.00    -0.271 OA
ATOM      8  N1  <0> d           0.278  -0.191   2.453  0.00  0.00    -0.364 N 
ATOM      9  C4  <0> d           0.986  -0.676   3.640  0.00  0.00     0.149 C 
ATOM     10  H5  <0> d          -0.517   0.356   2.553  0.00  0.00     0.161 HD
ENDBRANCH   4   6
ENDBRANCH   1   4
BRANCH   1  11
ATOM     11  C5  <0> d          -0.086  -0.093  -2.394  0.00  0.00     0.298 C 
BRANCH  11  12
ATOM     12  C6  <0> d           0.620  -0.579  -3.634  0.00  0.00     0.080 A 
ATOM     13  O2  <0> d           1.537   0.107  -4.335  0.00  0.00    -0.307 OA
ATOM     14  C9  <0> d           1.953  -0.635  -5.374  0.00  0.00     0.117 A 
ATOM     15  C8  <0> d           1.292  -1.808  -5.351  0.00  0.00     0.046 A 
ATOM     16  I1  <0> d           3.382  -0.063  -6.795  0.00  0.00    -0.016 I 
ATOM     17  C7  <0> d           0.433  -1.771  -4.229  0.00  0.00     0.037 A 
ENDBRANCH  11  12
ENDBRANCH   1  11
TORSDOF 4
