REMARK  6 active torsions:
REMARK  status: ('A' for Active; 'I' for Inactive)
REMARK    1  A    between atoms: C2_2  and  C3_3 
REMARK    2  A    between atoms: C4_4  and  C17_21 
REMARK    3  A    between atoms: C6_6  and  C7_8 
REMARK       I    between atoms: C7_8  and  N1_10 
REMARK    4  A    between atoms: N1_10  and  C8_11 
REMARK    5  A    between atoms: C16_19  and  O3_20 
REMARK    6  A    between atoms: C17_21  and  N2_22 
ROOT
ATOM      1  C7  <0> d          -4.433  -1.648   1.646  0.00  0.00     0.276 C 
ATOM      2  O2  <0> d          -5.494  -2.037   1.194  0.00  0.00    -0.265 OA
ATOM      3  N1  <0> d          -4.251  -1.586   2.980  0.00  0.00    -0.344 N 
ATOM      4  H9  <0> d          -3.406  -1.276   3.340  0.00  0.00     0.163 HD
ENDROOT
BRANCH   1   5
ATOM      5  C6  <0> d          -3.353  -1.246   0.739  0.00  0.00     0.143 A 
ATOM      6  C5  <0> d          -3.404  -1.259  -0.625  0.00  0.00     0.054 A 
ATOM      7  C4  <0> d          -2.159  -0.797  -1.080  0.00  0.00     0.000 A 
ATOM      8  C3  <0> d          -1.412  -0.526   0.013  0.00  0.00     0.061 A 
ATOM      9  O1  <0> d          -2.133  -0.802   1.107  0.00  0.00    -0.309 OA
BRANCH   7  10
ATOM     10  C17 <0> d          -1.735  -0.634  -2.517  0.00  0.00     0.275 C 
BRANCH  10  11
ATOM     11  N2  <0> d          -0.909  -1.781  -2.917  0.00  0.00    -0.067 N 
ATOM     12  C21 <0> d          -0.385  -1.580  -4.285  0.00  0.00     0.235 C 
ATOM     13  C20 <0> d          -0.357  -2.962  -4.966  0.00  0.00     0.029 C 
ATOM     14  C19 <0> d          -0.924  -3.942  -3.913  0.00  0.00     0.029 C 
ATOM     15  C18 <0> d          -1.737  -3.013  -2.977  0.00  0.00     0.235 C 
ATOM     16  H27 <0> d          -0.147  -1.905  -2.268  0.00  0.00     0.280 HD
ENDBRANCH  10  11
ENDBRANCH   7  10
BRANCH   8  17
ATOM     17  C2  <0> d           0.002  -0.004   0.002  0.00  0.00     0.061 C 
ATOM     18  C1  <0> d          -0.019   1.526   0.010  0.00  0.00     0.012 C 
ENDBRANCH   8  17
ENDBRANCH   1   5
BRANCH   3  19
ATOM     19  C8  <0> d          -5.330  -1.988   3.885  0.00  0.00     0.147 C 
ATOM     20  C16 <0> d          -4.753  -2.399   5.257  0.00  0.00     0.149 C 
ATOM     21  C15 <0> d          -4.821  -1.075   6.052  0.00  0.00     0.073 C 
ATOM     22  C14 <0> d          -5.948  -0.288   5.417  0.00  0.00    -0.047 A 
ATOM     23  C9  <0> d          -6.240  -0.812   4.172  0.00  0.00    -0.027 A 
ATOM     24  C13 <0> d          -6.660   0.801   5.891  0.00  0.00     0.008 A 
ATOM     25  C10 <0> d          -7.244  -0.246   3.404  0.00  0.00     0.010 A 
ATOM     26  C11 <0> d          -7.953   0.840   3.878  0.00  0.00     0.001 A 
ATOM     27  C12 <0> d          -7.660   1.365   5.123  0.00  0.00     0.001 A 
BRANCH  20  28
ATOM     28  O3  <0> d          -3.403  -2.847   5.126  0.00  0.00    -0.393 OA
ATOM     29  H16 <0> d          -2.995  -3.116   5.961  0.00  0.00     0.210 HD
ENDBRANCH  20  28
ENDBRANCH   3  19
TORSDOF 6
