REMARK  6 active torsions:
REMARK  status: ('A' for Active; 'I' for Inactive)
REMARK    1  A    between atoms: C4_4  and  O3_28 
REMARK    2  A    between atoms: C7_7  and  N1_8 
REMARK       I    between atoms: N1_8  and  C8_9 
REMARK    3  A    between atoms: C8_9  and  C9_11 
REMARK       I    between atoms: C9_11  and  N2_13 
REMARK    4  A    between atoms: N2_13  and  C10_14 
REMARK    5  A    between atoms: C10_14  and  C11_15 
REMARK    6  A    between atoms: C11_15  and  N3_18 
ROOT
ATOM      1  C9  <0> d          -0.161   0.070   4.875  0.00  0.00     0.309 C 
ATOM      2  O2  <0> d          -0.159   1.283   4.886  0.00  0.00    -0.262 OA
ATOM      3  N2  <0> d          -0.250  -0.615   6.033  0.00  0.00    -0.350 N 
ATOM      4  H8  <0> d          -0.251  -1.585   6.024  0.00  0.00     0.162 HD
ENDROOT
BRANCH   3   5
ATOM      5  C10 <0> d          -0.345   0.106   7.305  0.00  0.00     0.161 C 
BRANCH   5   6
ATOM      6  C11 <0> d          -0.435  -0.899   8.455  0.00  0.00     0.137 C 
ATOM      7  C12 <0> d          -0.534  -0.146   9.783  0.00  0.00     0.048 C 
ATOM      8  C13 <0> d          -1.675  -1.775   8.271  0.00  0.00     0.048 C 
BRANCH   6   9
ATOM      9  N3  <0> d           0.766  -1.745   8.460  0.00  0.00    -0.057 N 
ATOM     10  C22 <0> d           1.962  -0.899   8.513  0.00  0.00     0.275 C 
ATOM     11  C21 <0> d           3.200  -1.742   8.673  0.00  0.00    -0.026 A 
ATOM     12  C16 <0> d           3.138  -3.043   9.125  0.00  0.00    -0.049 A 
ATOM     13  C20 <0> d           4.429  -1.181   8.357  0.00  0.00     0.009 A 
ATOM     14  C15 <0> d           1.823  -3.692   9.474  0.00  0.00     0.067 C 
ATOM     15  C17 <0> d           4.303  -3.781   9.267  0.00  0.00     0.007 A 
ATOM     16  C14 <0> d           0.746  -2.620   9.642  0.00  0.00     0.241 C 
ATOM     17  C18 <0> d           5.525  -3.221   8.954  0.00  0.00     0.001 A 
ATOM     18  C19 <0> d           5.588  -1.917   8.497  0.00  0.00     0.001 A 
ATOM     19  H30 <0> d           0.787  -2.307   7.623  0.00  0.00     0.281 HD
ENDBRANCH   6   9
ENDBRANCH   5   6
ENDBRANCH   3   5
BRANCH   1  20
ATOM     20  C8  <0> d          -0.063  -0.665   3.579  0.00  0.00     0.313 C 
ATOM     21  N1  <0> d           0.026   0.019   2.421  0.00  0.00    -0.319 N 
ATOM     22  H7  <0> d           0.092   0.987   2.434  0.00  0.00     0.169 HD
ATOM     23  O1  <0> d          -0.065  -1.879   3.567  0.00  0.00    -0.262 OA
BRANCH  21  24
ATOM     24  C7  <0> d           0.024  -0.665   1.202  0.00  0.00     0.041 A 
ATOM     25  C2  <0> d          -0.589  -0.102   0.090  0.00  0.00    -0.033 A 
ATOM     26  C1  <0> d          -1.250   1.248   0.196  0.00  0.00     0.050 C 
ATOM     27  C3  <0> d          -0.586  -0.776  -1.115  0.00  0.00     0.045 A 
ATOM     28  C4  <0> d           0.023  -2.019  -1.214  0.00  0.00     0.068 A 
ATOM     29  C5  <0> d           0.630  -2.585  -0.102  0.00  0.00     0.039 A 
ATOM     30  C6  <0> d           0.628  -1.913   1.104  0.00  0.00     0.033 A 
BRANCH  28  31
ATOM     31  O3  <0> d           0.025  -2.682  -2.401  0.00  0.00    -0.356 OA
ATOM     32  C23 <0> d           0.670  -3.957  -2.430  0.00  0.00     0.210 C 
ENDBRANCH  28  31
ENDBRANCH  21  24
ENDBRANCH   1  20
TORSDOF 6
