REMARK  5 active torsions:
REMARK  status: ('A' for Active; 'I' for Inactive)
REMARK    1  A    between atoms: C2_2  and  C3_3 
REMARK    2  A    between atoms: C3_3  and  C10_16 
REMARK    3  A    between atoms: C4_4  and  C5_5 
REMARK       I    between atoms: C5_5  and  N1_7 
REMARK    4  A    between atoms: N1_7  and  C6_8 
REMARK    5  A    between atoms: C6_8  and  C7_9 
ROOT
ATOM      1  C5  <0> d          -3.394  -1.355  -1.136  0.00  0.00     0.242 C 
ATOM      2  O1  <0> d          -3.986  -1.485  -0.081  0.00  0.00    -0.269 OA
ATOM      3  N1  <0> d          -4.002  -1.677  -2.295  0.00  0.00    -0.350 N 
ATOM      4  H7  <0> d          -3.529  -1.574  -3.135  0.00  0.00     0.163 HD
ENDROOT
BRANCH   1   5
ATOM      5  C4  <0> d          -2.020  -0.848  -1.146  0.00  0.00     0.082 C 
ATOM      6  C3  <0> d          -1.412  -0.526   0.013  0.00  0.00    -0.043 C 
BRANCH   6   7
ATOM      7  C2  <0> d           0.002  -0.004   0.002  0.00  0.00     0.035 C 
ATOM      8  C1  <0> d          -0.019   1.526   0.010  0.00  0.00     0.010 C 
ENDBRANCH   6   7
BRANCH   6   9
ATOM      9  C10 <0> d          -2.129  -0.683   1.289  0.00  0.00    -0.030 A 
ATOM     10  C15 <0> d          -2.502  -1.955   1.733  0.00  0.00     0.012 A 
ATOM     11  C14 <0> d          -3.168  -2.095   2.932  0.00  0.00     0.001 A 
ATOM     12  C13 <0> d          -3.477  -0.979   3.690  0.00  0.00     0.000 A 
ATOM     13  C12 <0> d          -3.116   0.284   3.255  0.00  0.00     0.001 A 
ATOM     14  C11 <0> d          -2.445   0.440   2.060  0.00  0.00     0.012 A 
ENDBRANCH   6   9
ENDBRANCH   1   5
BRANCH   3  15
ATOM     15  C6  <0> d          -5.376  -2.185  -2.284  0.00  0.00     0.203 C 
BRANCH  15  16
ATOM     16  C7  <0> d          -5.818  -2.467  -3.697  0.00  0.00     0.146 A 
ATOM     17  N4  <0> d          -7.048  -2.953  -4.068  0.00  0.00    -0.312 N 
ATOM     18  C8  <0> d          -7.071  -3.070  -5.410  0.00  0.00     0.195 A 
ATOM     19  C9  <0> d          -8.149  -3.284  -3.159  0.00  0.00     0.160 C 
ATOM     20  N3  <0> d          -5.866  -2.672  -5.871  0.00  0.00    -0.251 N 
ATOM     21  S1  <0> d          -8.383  -3.629  -6.357  0.00  0.00    -0.039 SA
ATOM     22  N2  <0> d          -5.099  -2.297  -4.759  0.00  0.00    -0.157 NA
ATOM     23  H13 <0> d          -5.584  -2.649  -6.798  0.00  0.00     0.191 HD
ENDBRANCH  15  16
ENDBRANCH   3  15
TORSDOF 5
