REMARK  5 active torsions:
REMARK  status: ('A' for Active; 'I' for Inactive)
REMARK    1  A    between atoms: N1_4  and  C14_19 
REMARK    2  A    between atoms: C6_7  and  N2_8 
REMARK    3  A    between atoms: N3_9  and  C8_12 
REMARK    4  A    between atoms: C8_12  and  C9_13 
REMARK    5  A    between atoms: C14_19  and  C15_20 
ROOT
ATOM      1  C1  <0> d          -0.018   1.503   0.010  0.00  0.00     0.051 C 
ATOM      2  C2  <0> d           0.002  -0.004   0.002  0.00  0.00    -0.022 A 
ATOM      3  C3  <0> d           0.009  -0.799  -1.081  0.00  0.00     0.017 A 
ATOM      4  N1  <0> d           0.029  -2.113  -0.692  0.00  0.00    -0.328 N 
ATOM      5  C4  <0> d           0.036  -2.198   0.673  0.00  0.00     0.146 A 
ATOM      6  C5  <0> d           0.025  -0.882   1.171  0.00  0.00     0.062 A 
ATOM      7  C6  <0> d           0.034  -0.687   2.560  0.00  0.00     0.117 A 
ATOM      8  N3  <0> d           0.056  -1.759   3.347  0.00  0.00    -0.323 N 
ATOM      9  C7  <0> d           0.069  -2.978   2.838  0.00  0.00     0.213 A 
ATOM     10  N4  <0> d           0.053  -3.207   1.543  0.00  0.00    -0.225 NA
ATOM     11  C19 <0> d          -0.004  -0.318  -2.509  0.00  0.00     0.069 C 
ENDROOT
BRANCH   8  12
ATOM     12  C8  <0> d           0.067  -1.585   4.802  0.00  0.00     0.170 C 
BRANCH  12  13
ATOM     13  C9  <0> d          -1.347  -1.422   5.298  0.00  0.00    -0.037 A 
ATOM     14  C13 <0> d          -2.099  -2.525   5.674  0.00  0.00     0.028 A 
ATOM     15  C12 <0> d          -3.390  -2.336   6.130  0.00  0.00     0.116 A 
ATOM     16  N5  <0> d          -3.910  -1.126   6.200  0.00  0.00    -0.273 NA
ATOM     17  C11 <0> d          -3.227  -0.056   5.846  0.00  0.00     0.116 A 
ATOM     18  C10 <0> d          -1.928  -0.167   5.386  0.00  0.00     0.028 A 
ENDBRANCH  12  13
ENDBRANCH   8  12
BRANCH   7  19
ATOM     19  N2  <0> d           0.021   0.587   3.098  0.00  0.00    -0.384 N 
ATOM     20  H4  <0> d           0.005   1.360   2.513  0.00  0.00     0.157 HD
ATOM     21  H20 <0> d           0.027   0.708   4.060  0.00  0.00     0.157 HD
ENDBRANCH   7  19
BRANCH   4  22
ATOM     22  C14 <0> d           0.041  -3.259  -1.605  0.00  0.00     0.195 C 
BRANCH  22  23
ATOM     23  C15 <0> d           1.466  -3.632  -1.924  0.00  0.00     0.070 A 
ATOM     24  O1  <0> d           2.195  -3.148  -2.943  0.00  0.00    -0.325 OA
ATOM     25  C18 <0> d           3.420  -3.699  -2.918  0.00  0.00     0.142 A 
ATOM     26  C17 <0> d           3.481  -4.553  -1.881  0.00  0.00     0.027 A 
ATOM     27  C16 <0> d           2.221  -4.510  -1.240  0.00  0.00     0.036 A 
ENDBRANCH  22  23
ENDBRANCH   4  22
TORSDOF 5
