REMARK  4 active torsions:
REMARK  status: ('A' for Active; 'I' for Inactive)
REMARK    1  A    between atoms: C5_6  and  C6_7 
REMARK       I    between atoms: C6_7  and  N1_9 
REMARK    2  A    between atoms: N1_9  and  N2_10 
REMARK       I    between atoms: N2_10  and  C7_11 
REMARK    3  A    between atoms: C7_11  and  C8_13 
REMARK    4  A    between atoms: C10_16  and  C11_18 
ROOT
ATOM      1  N2  <0> d           0.058  -0.732   4.900  0.00  0.00    -0.262 N 
ATOM      2  C7  <0> d           0.080  -1.625   5.909  0.00  0.00     0.279 C 
ATOM      3  O2  <0> d           0.094  -2.817   5.666  0.00  0.00    -0.265 OA
ATOM      4  H7  <0> d           0.046   0.219   5.094  0.00  0.00     0.190 HD
ENDROOT
BRANCH   2   5
ATOM      5  C8  <0> d           0.086  -1.161   7.298  0.00  0.00     0.100 A 
ATOM      6  S2  <0> d           0.069   0.507   7.945  0.00  0.00    -0.060 SA
ATOM      7  C10 <0> d           0.089   0.069   9.679  0.00  0.00     0.132 A 
ATOM      8  N3  <0> d           0.113  -1.262   9.619  0.00  0.00    -0.242 NA
ATOM      9  C9  <0> d           0.113  -1.893   8.479  0.00  0.00     0.054 A 
ATOM     10  C16 <0> d           0.140  -3.399   8.441  0.00  0.00     0.072 C 
BRANCH   7  11
ATOM     11  C11 <0> d           0.085   0.946  10.857  0.00  0.00     0.111 A 
ATOM     12  O3  <0> d           0.105   0.542  12.144  0.00  0.00    -0.313 OA
ATOM     13  C14 <0> d           0.098   1.617  12.948  0.00  0.00     0.050 A 
ATOM     14  C13 <0> d           0.062   2.729  12.184  0.00  0.00     0.035 A 
ATOM     15  C15 <0> d           0.119   1.587  14.454  0.00  0.00     0.076 C 
ATOM     16  C12 <0> d           0.053   2.309  10.842  0.00  0.00     0.042 A 
ENDBRANCH   7  11
ENDBRANCH   2   5
BRANCH   1  17
ATOM     17  N1  <0> d           0.051  -1.176   3.571  0.00  0.00    -0.263 N 
ATOM     18  C6  <0> d           0.030  -0.283   2.562  0.00  0.00     0.277 C 
ATOM     19  O1  <0> d           0.015   0.910   2.805  0.00  0.00    -0.265 OA
ATOM     20  H6  <0> d           0.063  -2.126   3.378  0.00  0.00     0.190 HD
BRANCH  18  21
ATOM     21  C5  <0> d           0.023  -0.748   1.172  0.00  0.00     0.080 A 
ATOM     22  C2  <0> d           0.002  -0.004   0.002  0.00  0.00    -0.039 A 
ATOM     23  C1  <0> d          -0.018   1.503   0.010  0.00  0.00     0.050 C 
ATOM     24  C3  <0> d           0.007  -0.729  -1.166  0.00  0.00     0.015 A 
ATOM     25  C4  <0> d           0.026  -2.083  -1.101  0.00  0.00     0.051 A 
ATOM     26  S1  <0> d           0.038  -2.416   0.545  0.00  0.00    -0.096 SA
ENDBRANCH  18  21
ENDBRANCH   1  17
TORSDOF 4
