REMARK  1 active torsions:
REMARK  status: ('A' for Active; 'I' for Inactive)
REMARK    1  A    between atoms: C2_2  and  N1_4 
ROOT
ATOM      1  N1  <0> d          -2.103   1.072   1.277  0.00  0.00    -0.314 N 
ATOM      2  C4  <0> d          -3.259   1.829   1.292  0.00  0.00     0.152 A 
ATOM      3  C5  <0> d          -3.536   3.212   1.302  0.00  0.00     0.280 A 
ATOM      4  O1  <0> d          -2.627   4.023   1.298  0.00  0.00    -0.265 OA
ATOM      5  N2  <0> d          -4.820   3.627   1.317  0.00  0.00    -0.273 N 
ATOM      6  H1  <0> d          -5.021   4.606   1.324  0.00  0.00     0.173 HD
ATOM      7  C6  <0> d          -5.833   2.743   1.322  0.00  0.00     0.330 A 
ATOM      8  O2  <0> d          -6.978   3.153   1.335  0.00  0.00    -0.246 OA
ATOM      9  N3  <0> d          -5.612   1.415   1.313  0.00  0.00    -0.286 N 
ATOM     10  C7  <0> d          -4.315   0.927   1.298  0.00  0.00     0.169 A 
ATOM     11  N4  <0> d          -3.788  -0.300   1.286  0.00  0.00    -0.203 NA
ATOM     12  C8  <0> d          -2.481  -0.222   1.268  0.00  0.00     0.180 A 
ATOM     13 Br1  <0> d          -1.302  -1.700   1.238  0.00  0.00    -0.008 Br
ATOM     14  C9  <0> d          -6.744   0.485   1.319  0.00  0.00     0.163 C 
ENDROOT
BRANCH   1  15
ATOM     15  C2  <0> d          -0.729   1.579   1.267  0.00  0.00     0.084 C 
ATOM     16  C1  <0> d          -0.013   1.086   0.008  0.00  0.00     0.032 C 
ATOM     17  C3  <0> d           0.011   1.072   2.506  0.00  0.00     0.032 C 
ENDBRANCH   1  15
TORSDOF 1
