REMARK  7 active torsions:
REMARK  status: ('A' for Active; 'I' for Inactive)
REMARK    1  A    between atoms: O1_2  and  C2_3 
REMARK    2  A    between atoms: C7_8  and  N1_9 
REMARK       I    between atoms: N1_9  and  C8_10 
REMARK    3  A    between atoms: C8_10  and  C9_12 
REMARK    4  A    between atoms: C9_12  and  S1_13 
REMARK    5  A    between atoms: S1_13  and  C10_14 
REMARK    6  A    between atoms: C11_17  and  C12_20 
REMARK    7  A    between atoms: N4_18  and  N5_19 
ROOT
ATOM      1  C10 <0> d          -1.385  -7.534   1.658  0.00  0.00     0.206 A 
ATOM      2  N2  <0> d          -1.980  -6.969   2.685  0.00  0.00    -0.121 NA
ATOM      3  N3  <0> d          -2.514  -7.866   3.434  0.00  0.00    -0.127 NA
ATOM      4  C11 <0> d          -2.293  -9.058   2.932  0.00  0.00     0.179 A 
ATOM      5  N4  <0> d          -1.568  -8.882   1.776  0.00  0.00    -0.235 N 
ENDROOT
BRANCH   1   6
ATOM      6  S1  <0> d          -0.520  -6.706   0.366  0.00  0.00    -0.080 SA
BRANCH   6   7
ATOM      7  C9  <0> d          -0.648  -4.951   0.806  0.00  0.00     0.185 C 
BRANCH   7   8
ATOM      8  C8  <0> d           0.060  -4.119  -0.233  0.00  0.00     0.232 C 
ATOM      9  N1  <0> d           0.095  -2.777  -0.112  0.00  0.00    -0.324 N 
ATOM     10  H8  <0> d          -0.265  -2.352   0.681  0.00  0.00     0.169 HD
ATOM     11  O2  <0> d           0.599  -4.658  -1.176  0.00  0.00    -0.272 OA
BRANCH   9  12
ATOM     12  C7  <0> d           0.652  -1.997  -1.134  0.00  0.00     0.068 A 
ATOM     13  C2  <0> d           1.159  -0.731  -0.849  0.00  0.00     0.095 A 
ATOM     14  C3  <0> d           1.713   0.034  -1.862  0.00  0.00     0.039 A 
ATOM     15  C4  <0> d           1.756  -0.456  -3.154  0.00  0.00     0.003 A 
ATOM     16  C5  <0> d           1.248  -1.710  -3.439  0.00  0.00     0.002 A 
ATOM     17  C6  <0> d           0.694  -2.480  -2.434  0.00  0.00     0.032 A 
BRANCH  13  18
ATOM     18  O1  <0> d           1.116  -0.251   0.423  0.00  0.00    -0.354 OA
ATOM     19  C1  <0> d           1.655   1.055   0.641  0.00  0.00     0.210 C 
ENDBRANCH  13  18
ENDBRANCH   9  12
ENDBRANCH   7   8
ENDBRANCH   6   7
ENDBRANCH   1   6
BRANCH   5  20
ATOM     20  N5  <0> d          -1.121  -9.853   0.926  0.00  0.00    -0.239 NA
ATOM     21  H11 <0> d          -0.204 -10.176   1.195  0.00  0.00     0.143 HD
ATOM     22  H12 <0> d          -1.775 -10.621   0.878  0.00  0.00     0.143 HD
ENDBRANCH   5  20
BRANCH   4  23
ATOM     23  C12 <0> d          -2.743 -10.347   3.499  0.00  0.00     0.014 A 
ATOM     24  C17 <0> d          -3.728 -10.372   4.487  0.00  0.00     0.034 A 
ATOM     25  C16 <0> d          -4.148 -11.580   5.008  0.00  0.00     0.011 A 
ATOM     26  C15 <0> d          -3.586 -12.763   4.560  0.00  0.00     0.019 A 
ATOM     27 Br1  <0> d          -5.488 -11.618   6.342  0.00  0.00    -0.051 Br
ATOM     28  C14 <0> d          -2.605 -12.744   3.585  0.00  0.00     0.002 A 
ATOM     29  C13 <0> d          -2.181 -11.544   3.052  0.00  0.00     0.015 A 
ENDBRANCH   4  23
TORSDOF 7
