REMARK  3 active torsions:
REMARK  status: ('A' for Active; 'I' for Inactive)
REMARK    1  A    between atoms: C6_6  and  S1_7 
REMARK    2  A    between atoms: S1_7  and  N1_10 
REMARK    3  A    between atoms: C8_12  and  O3_14 
ROOT
ATOM      1  C1  <0> d          -0.017   1.378   0.010  0.00  0.00     0.028 A 
ATOM      2  C2  <0> d           1.169   2.091   0.002  0.00  0.00     0.040 A 
ATOM      3  C3  <0> d           2.378   1.419  -0.013  0.00  0.00     0.096 A 
ATOM      4  C4  <0> d           2.397   0.025  -0.021  0.00  0.00     0.070 A 
ATOM      5  C5  <0> d           1.207  -0.684  -0.013  0.00  0.00     0.057 A 
ATOM      6  C6  <0> d           0.002  -0.004   0.002  0.00  0.00     0.082 A 
ATOM      7  N2  <0> d           3.629  -0.644  -0.038  0.00  0.00    -0.323 N 
ATOM      8  C10 <0> d           4.751   0.043   0.269  0.00  0.00     0.246 C 
ATOM      9  O4  <0> d           5.831  -0.507   0.231  0.00  0.00    -0.271 OA
ATOM     10  C11 <0> d           4.655   1.496   0.659  0.00  0.00     0.278 C 
ATOM     11  O5  <0> d           3.552   2.104  -0.020  0.00  0.00    -0.340 OA
ATOM     12  H10 <0> d           3.675  -1.586  -0.267  0.00  0.00     0.169 HD
ENDROOT
BRANCH   6  13
ATOM     13  S1  <0> d          -1.513  -0.903   0.013  0.00  0.00     0.261 S 
ATOM     14  O1  <0> d          -1.222  -2.184   0.554  0.00  0.00    -0.200 OA
ATOM     15  O2  <0> d          -2.492  -0.042   0.578  0.00  0.00    -0.200 OA
BRANCH  13  16
ATOM     16  N1  <0> d          -1.950  -1.144  -1.566  0.00  0.00    -0.302 N 
ATOM     17  C9  <0> d          -1.709  -2.176  -2.586  0.00  0.00     0.168 C 
ATOM     18  C8  <0> d          -1.894  -1.092  -3.653  0.00  0.00     0.155 C 
ATOM     19  C7  <0> d          -2.745  -0.418  -2.568  0.00  0.00     0.168 C 
BRANCH  18  20
ATOM     20  O3  <0> d          -0.695  -0.387  -3.980  0.00  0.00    -0.392 OA
ATOM     21  H9  <0> d          -0.162  -0.815  -4.664  0.00  0.00     0.210 HD
ENDBRANCH  18  20
ENDBRANCH  13  16
ENDBRANCH   6  13
TORSDOF 3
