REMARK  7 active torsions:
REMARK  status: ('A' for Active; 'I' for Inactive)
REMARK    1  A    between atoms: C3_3  and  S1_9 
REMARK    2  A    between atoms: S1_9  and  N3_12 
REMARK    3  A    between atoms: N3_12  and  C6_13 
REMARK    4  A    between atoms: C6_13  and  C7_14 
REMARK    5  A    between atoms: C7_14  and  C8_15 
REMARK    6  A    between atoms: C10_18  and  C11_20 
REMARK    7  A    between atoms: C11_20  and  O3_21 
ROOT
ATOM      1  N3  <0> d           1.569  -0.072  -3.243  0.00  0.00    -0.315 N 
ATOM      2  H8  <0> d           1.914   0.806  -3.466  0.00  0.00     0.172 HD
ENDROOT
BRANCH   1   3
ATOM      3  S1  <0> d          -0.008  -0.247  -2.770  0.00  0.00     0.262 S 
ATOM      4  O1  <0> d          -0.548  -1.312  -3.541  0.00  0.00    -0.200 OA
ATOM      5  O2  <0> d          -0.578   1.055  -2.765  0.00  0.00    -0.200 OA
BRANCH   3   6
ATOM      6  C3  <0> d           0.008  -0.796  -1.095  0.00  0.00     0.129 A 
ATOM      7  C2  <0> d           0.002  -0.004   0.002  0.00  0.00     0.049 A 
ATOM      8  C1  <0> d          -0.018   1.503   0.010  0.00  0.00     0.071 C 
ATOM      9  N2  <0> d           0.024  -0.805   1.088  0.00  0.00    -0.281 N 
ATOM     10  N1  <0> d           0.035  -2.134   0.643  0.00  0.00    -0.178 NA
ATOM     11  H1  <0> d           0.029  -0.513   2.013  0.00  0.00     0.189 HD
ATOM     12  C4  <0> d           0.028  -2.127  -0.666  0.00  0.00     0.076 A 
ATOM     13  C5  <0> d           0.040  -3.343  -1.556  0.00  0.00     0.074 C 
ENDBRANCH   3   6
ENDBRANCH   1   3
BRANCH   1  14
ATOM     14  C6  <0> d           2.444  -1.245  -3.324  0.00  0.00     0.138 C 
BRANCH  14  15
ATOM     15  C7  <0> d           3.699  -0.890  -4.123  0.00  0.00     0.080 C 
BRANCH  15  16
ATOM     16  C8  <0> d           4.599  -2.096  -4.207  0.00  0.00     0.043 A 
ATOM     17  N4  <0> d           5.007  -2.728  -3.125  0.00  0.00    -0.248 NA
ATOM     18  C10 <0> d           5.785  -3.779  -3.201  0.00  0.00     0.099 A 
ATOM     19  S2  <0> d           6.023  -3.960  -4.858  0.00  0.00    -0.082 SA
ATOM     20  C9  <0> d           5.032  -2.577  -5.400  0.00  0.00     0.078 A 
BRANCH  18  21
ATOM     21  C11 <0> d           6.337  -4.619  -2.079  0.00  0.00     0.234 C 
BRANCH  21  22
ATOM     22  O3  <0> d           5.432  -5.686  -1.792  0.00  0.00    -0.389 OA
ATOM     23  C12 <0> d           5.864  -6.548  -0.737  0.00  0.00     0.201 C 
ENDBRANCH  21  22
ENDBRANCH  18  21
ENDBRANCH  15  16
ENDBRANCH  14  15
ENDBRANCH   1  14
TORSDOF 7
