REMARK  4 active torsions:
REMARK  status: ('A' for Active; 'I' for Inactive)
REMARK    1  A    between atoms: C6_9  and  C7_10 
REMARK    2  A    between atoms: N3_12  and  S1_13 
REMARK    3  A    between atoms: S1_13  and  C8_16 
REMARK    4  A    between atoms: C11_19  and  C14_22 
ROOT
ATOM      1  C7  <0> d          -3.101   0.761   0.021  0.00  0.00     0.243 C 
ATOM      2  O2  <0> d          -4.441   0.947   0.029  0.00  0.00    -0.167 OA
ATOM      3  N3  <0> d          -2.301   1.787   0.023  0.00  0.00    -0.129 NA
ENDROOT
BRANCH   1   4
ATOM      4  C6  <0> d          -2.545  -0.609   0.011  0.00  0.00     0.148 A 
ATOM      5  C3  <0> d          -1.086  -0.814   0.003  0.00  0.00     0.067 A 
ATOM      6  C2  <0> d           0.002  -0.004   0.002  0.00  0.00     0.090 A 
ATOM      7  C4  <0> d          -0.588  -2.201  -0.007  0.00  0.00     0.169 A 
ATOM      8  C1  <0> d          -0.018   1.503   0.010  0.00  0.00     0.080 C 
ATOM      9  O6  <0> d           1.097  -0.774  -0.013  0.00  0.00    -0.217 OA
ATOM     10  N4  <0> d           0.715  -2.138  -0.013  0.00  0.00    -0.122 NA
ATOM     11  C5  <0> d          -1.590  -3.284  -0.008  0.00  0.00     0.295 A 
ATOM     12  O1  <0> d          -1.242  -4.450  -0.016  0.00  0.00    -0.264 OA
ATOM     13  N1  <0> d          -2.899  -2.960   0.000  0.00  0.00    -0.236 N 
ATOM     14  N2  <0> d          -3.347  -1.641   0.009  0.00  0.00    -0.165 NA
ATOM     15  C16 <0> d          -3.890  -4.038  -0.001  0.00  0.00     0.183 C 
ENDBRANCH   1   4
BRANCH   3  16
ATOM     16  S1  <0> d          -2.924   3.322   0.035  0.00  0.00     0.285 S 
ATOM     17  O3  <0> d          -3.593   3.498  -1.206  0.00  0.00    -0.198 OA
ATOM     18  O4  <0> d          -3.581   3.484   1.285  0.00  0.00    -0.198 OA
BRANCH  16  19
ATOM     19  C8  <0> d          -1.560   4.437   0.035  0.00  0.00     0.081 A 
ATOM     20  C13 <0> d          -1.033   4.880  -1.166  0.00  0.00     0.026 A 
ATOM     21  C12 <0> d           0.031   5.757  -1.174  0.00  0.00     0.017 A 
ATOM     22  C11 <0> d           0.584   6.191   0.035  0.00  0.00     0.009 A 
ATOM     23  C10 <0> d           0.049   5.735   1.244  0.00  0.00     0.017 A 
ATOM     24  C9  <0> d          -1.018   4.862   1.235  0.00  0.00     0.026 A 
BRANCH  22  25
ATOM     25  C14 <0> d           1.722   7.124   0.034  0.00  0.00     0.155 C 
ATOM     26  O5  <0> d           2.199   7.498   1.084  0.00  0.00    -0.293 OA
ATOM     27  C15 <0> d           2.295   7.613  -1.271  0.00  0.00     0.096 C 
ENDBRANCH  22  25
ENDBRANCH  16  19
ENDBRANCH   3  16
TORSDOF 4
