REMARK  2 active torsions:
REMARK  status: ('A' for Active; 'I' for Inactive)
REMARK    1  A    between atoms: C4_4  and  N5_25 
REMARK    2  A    between atoms: C9_9  and  N1_11 
ROOT
ATOM      1  C1  <0> d          -3.060   3.093  -2.740  0.00  0.00     0.001 C 
ATOM      2  C2  <0> d          -2.398   4.470  -2.658  0.00  0.00     0.005 C 
ATOM      3  C3  <0> d          -0.879   4.299  -2.605  0.00  0.00     0.070 C 
ATOM      4  C4  <0> d          -0.495   3.481  -1.370  0.00  0.00     0.241 C 
ATOM      5  C5  <0> d          -1.164   2.102  -1.444  0.00  0.00     0.092 C 
ATOM      6  C6  <0> d          -2.684   2.276  -1.504  0.00  0.00     0.012 C 
ATOM      7  C7  <0> d          -0.803   1.322  -0.173  0.00  0.00     0.186 C 
ATOM      8  C8  <0> d           0.676   1.432   0.080  0.00  0.00     0.110 C 
ATOM      9  C9  <0> d           1.432   2.388  -0.506  0.00  0.00     0.158 C 
ATOM     10  O1  <0> d           0.924   3.294  -1.360  0.00  0.00    -0.294 OA
ATOM     11  C10 <0> d           1.301   0.497   0.966  0.00  0.00     0.102 C 
ATOM     12  N2  <0> d           1.796  -0.245   1.670  0.00  0.00    -0.191 NA
ATOM     13  C11 <0> d          -1.168  -0.093  -0.346  0.00  0.00     0.091 C 
ATOM     14  N3  <0> d          -1.449  -1.186  -0.479  0.00  0.00    -0.195 NA
ATOM     15  C12 <0> d          -1.540   1.883   0.971  0.00  0.00     0.091 C 
ATOM     16  N4  <0> d          -2.108   2.315   1.855  0.00  0.00    -0.195 NA
ENDROOT
BRANCH   9  17
ATOM     17  N1  <0> d           2.772   2.435  -0.217  0.00  0.00    -0.379 N 
ATOM     18  H10 <0> d           3.159   1.790   0.396  0.00  0.00     0.158 HD
ATOM     19  H11 <0> d           3.333   3.112  -0.626  0.00  0.00     0.158 HD
ENDBRANCH   9  17
BRANCH   4  20
ATOM     20  N5  <0> d          -0.917   4.175  -0.134  0.00  0.00    -0.034 N 
ATOM     21  C13 <0> d          -2.141   4.963  -0.389  0.00  0.00     0.265 C 
ATOM     22  C14 <0> d          -2.571   5.639   0.916  0.00  0.00     0.195 C 
ATOM     23  O2  <0> d          -1.502   6.458   1.397  0.00  0.00    -0.388 OA
ATOM     24  C15 <0> d          -0.289   5.740   1.637  0.00  0.00     0.195 C 
ATOM     25  C16 <0> d           0.164   5.065   0.340  0.00  0.00     0.265 C 
ATOM     26  H20 <0> d          -1.116   3.475   0.591  0.00  0.00     0.283 HD
ENDBRANCH   4  20
TORSDOF 2
