REMARK  9 active torsions:
REMARK  status: ('A' for Active; 'I' for Inactive)
REMARK    1  A    between atoms: C2_2  and  C3_3 
REMARK    2  A    between atoms: C2_2  and  O3_18 
REMARK    3  A    between atoms: C3_3  and  N1_4 
REMARK    4  A    between atoms: N1_4  and  C4_5 
REMARK    5  A    between atoms: C4_5  and  C5_6 
REMARK    6  A    between atoms: C5_6  and  C6_7 
REMARK    7  A    between atoms: C5_6  and  O2_17 
REMARK    8  A    between atoms: C6_7  and  O1_8 
REMARK    9  A    between atoms: O1_8  and  C7_9 
ROOT
ATOM      1  C5  <0> d           1.493  -3.996   2.415  0.00  0.00     0.168 C 
ENDROOT
BRANCH   1   2
ATOM      2  C4  <0> d           1.472  -2.466   2.424  0.00  0.00     0.266 C 
BRANCH   2   3
ATOM      3  N1  <0> d           0.762  -1.980   1.234  0.00  0.00    -0.070 N 
ATOM      4  H8  <0> d          -0.185  -2.329   1.241  0.00  0.00     0.277 HD
ATOM      5  H18 <0> d           1.234  -2.305   0.403  0.00  0.00     0.277 HD
BRANCH   3   6
ATOM      6  C3  <0> d           0.742  -0.511   1.242  0.00  0.00     0.263 C 
BRANCH   6   7
ATOM      7  C2  <0> d           0.002  -0.004   0.002  0.00  0.00     0.139 C 
ATOM      8  C1  <0> d          -0.019   1.526   0.010  0.00  0.00     0.041 C 
BRANCH   7   9
ATOM      9  O3  <0> d           0.671  -0.465  -1.174  0.00  0.00    -0.394 OA
ATOM     10  H17 <0> d           1.588  -0.167  -1.247  0.00  0.00     0.210 HD
ENDBRANCH   7   9
ENDBRANCH   6   7
ENDBRANCH   3   6
ENDBRANCH   2   3
ENDBRANCH   1   2
BRANCH   1  11
ATOM     11  C6  <0> d           2.122  -4.505   3.714  0.00  0.00     0.209 C 
BRANCH  11  12
ATOM     12  O1  <0> d           2.036  -5.931   3.758  0.00  0.00    -0.345 OA
BRANCH  12  13
ATOM     13  C7  <0> d           2.553  -6.546   4.855  0.00  0.00     0.112 A 
ATOM     14  C12 <0> d           1.752  -6.780   5.963  0.00  0.00     0.069 A 
ATOM     15  C11 <0> d           2.278  -7.411   7.075  0.00  0.00     0.027 A 
ATOM     16 Cl1  <0> d           0.087  -6.285   5.952  0.00  0.00    -0.081 Cl
ATOM     17  C10 <0> d           3.605  -7.800   7.087  0.00  0.00     0.003 A 
ATOM     18  C9  <0> d           4.407  -7.563   5.986  0.00  0.00     0.027 A 
ATOM     19  C8  <0> d           3.885  -6.937   4.870  0.00  0.00     0.069 A 
ATOM     20 Cl2  <0> d           4.893  -6.641   3.487  0.00  0.00    -0.081 Cl
ENDBRANCH  12  13
ENDBRANCH  11  12
ENDBRANCH   1  11
BRANCH   1  21
ATOM     21  O2  <0> d           2.262  -4.456   1.302  0.00  0.00    -0.392 OA
ATOM     22  H16 <0> d           3.182  -4.158   1.309  0.00  0.00     0.210 HD
ENDBRANCH   1  21
TORSDOF 9
