REMARK  7 active torsions:
REMARK  status: ('A' for Active; 'I' for Inactive)
REMARK    1  A    between atoms: C2_2  and  O1_3 
REMARK    2  A    between atoms: O1_3  and  C3_4 
REMARK    3  A    between atoms: C3_4  and  C4_6 
REMARK    4  A    between atoms: C4_6  and  S1_7 
REMARK    5  A    between atoms: S1_7  and  C5_8 
REMARK    6  A    between atoms: N1_12  and  C9_15 
REMARK    7  A    between atoms: C12_18  and  O5_21 
ROOT
ATOM      1  C5  <0> d           2.171  -4.709  -3.902  0.00  0.00     0.149 A 
ATOM      2  C6  <0> d           2.573  -6.179  -4.137  0.00  0.00     0.128 A 
ATOM      3  C7  <0> d           1.866  -6.539  -5.425  0.00  0.00     0.232 A 
ATOM      4  O3  <0> d           1.914  -7.619  -5.975  0.00  0.00    -0.273 OA
ATOM      5  N1  <0> d           1.179  -5.476  -5.862  0.00  0.00    -0.251 N 
ATOM      6  C8  <0> d           1.280  -4.388  -5.083  0.00  0.00     0.245 A 
ATOM      7  O4  <0> d           0.745  -3.321  -5.289  0.00  0.00    -0.271 OA
ENDROOT
BRANCH   5   8
ATOM      8  C9  <0> d           0.416  -5.497  -7.041  0.00  0.00     0.045 A 
ATOM      9  C14 <0> d          -0.724  -6.284  -7.115  0.00  0.00     0.033 A 
ATOM     10  C13 <0> d          -1.477  -6.300  -8.273  0.00  0.00     0.039 A 
ATOM     11  C12 <0> d          -1.087  -5.539  -9.365  0.00  0.00     0.065 A 
ATOM     12  C11 <0> d           0.056  -4.756  -9.292  0.00  0.00     0.039 A 
ATOM     13  C10 <0> d           0.806  -4.735  -8.133  0.00  0.00     0.033 A 
BRANCH  11  14
ATOM     14  O5  <0> d          -1.825  -5.559 -10.506  0.00  0.00    -0.361 OA
ATOM     15  H15 <0> d          -1.556  -6.242 -11.136  0.00  0.00     0.217 HD
ENDBRANCH  11  14
ENDBRANCH   5   8
BRANCH   1  16
ATOM     16  S1  <0> d           1.254  -4.538  -2.346  0.00  0.00    -0.144 SA
BRANCH  16  17
ATOM     17  C4  <0> d           0.952  -2.754  -2.209  0.00  0.00     0.185 C 
BRANCH  17  18
ATOM     18  C3  <0> d           0.187  -2.470  -0.942  0.00  0.00     0.268 C 
ATOM     19  O2  <0> d          -0.122  -3.378  -0.207  0.00  0.00    -0.264 OA
BRANCH  18  20
ATOM     20  O1  <0> d          -0.150  -1.209  -0.629  0.00  0.00    -0.321 OA
BRANCH  20  21
ATOM     21  C2  <0> d          -0.874  -1.014   0.587  0.00  0.00     0.174 C 
ATOM     22  C1  <0> d          -1.167   0.477   0.772  0.00  0.00     0.034 C 
ENDBRANCH  20  21
ENDBRANCH  18  20
ENDBRANCH  17  18
ENDBRANCH  16  17
ENDBRANCH   1  16
TORSDOF 7
