REMARK  3 active torsions:
REMARK  status: ('A' for Active; 'I' for Inactive)
REMARK    1  A    between atoms: C2_2  and  S1_4 
REMARK    2  A    between atoms: S1_4  and  C4_7 
REMARK    3  A    between atoms: C13_20  and  O5_22 
ROOT
ATOM      1  C4  <0> d          -0.038   0.027   2.837  0.00  0.00     0.078 A 
ATOM      2  C5  <0> d           0.273   1.265   3.371  0.00  0.00     0.044 A 
ATOM      3  C6  <0> d          -0.484   1.721   4.451  0.00  0.00     0.065 A 
ATOM      4  C7  <0> d          -1.526   0.912   4.953  0.00  0.00     0.101 A 
ATOM      5  C8  <0> d          -2.309   1.415   6.090  0.00  0.00     0.092 A 
ATOM      6  C9  <0> d          -2.010   2.648   6.638  0.00  0.00     0.122 A 
ATOM      7  N1  <0> d          -0.980   3.425   6.124  0.00  0.00    -0.243 N 
ATOM      8  C10 <0> d          -0.228   3.022   5.084  0.00  0.00     0.270 A 
ATOM      9  O3  <0> d           0.666   3.736   4.666  0.00  0.00    -0.266 OA
ATOM     10  I1  <0> d          -0.594   5.248   6.979  0.00  0.00     0.068 I 
ATOM     11  C11 <0> d          -2.756   3.127   7.739  0.00  0.00     0.183 C 
ATOM     12  O4  <0> d          -2.523   4.232   8.188  0.00  0.00    -0.291 OA
ATOM     13  C12 <0> d          -3.836   2.281   8.362  0.00  0.00     0.139 C 
ATOM     14  C13 <0> d          -4.443   1.366   7.293  0.00  0.00     0.227 C 
ATOM     15  N2  <0> d          -3.345   0.663   6.612  0.00  0.00    -0.359 N 
ATOM     16  N3  <0> d          -1.780  -0.268   4.401  0.00  0.00    -0.256 NA
ATOM     17  C15 <0> d          -1.081  -0.712   3.378  0.00  0.00     0.140 A 
ATOM     18  H12 <0> d          -3.348  -0.304   6.530  0.00  0.00     0.162 HD
ENDROOT
BRANCH   1  19
ATOM     19  S1  <0> d           0.879  -0.605   1.472  0.00  0.00     0.180 S 
ATOM     20  O1  <0> d           0.754  -2.017   1.573  0.00  0.00    -0.222 OA
ATOM     21  O2  <0> d           2.152   0.018   1.571  0.00  0.00    -0.222 OA
BRANCH  19  22
ATOM     22  C2  <0> d           0.002  -0.004   0.002  0.00  0.00     0.105 C 
ATOM     23  C1  <0> d          -0.019   1.526   0.010  0.00  0.00     0.026 C 
ATOM     24  C3  <0> d           0.718  -0.497  -1.257  0.00  0.00     0.026 C 
ENDBRANCH  19  22
ENDBRANCH   1  19
BRANCH  14  25
ATOM     25  O5  <0> d          -5.314   0.416   7.910  0.00  0.00    -0.371 OA
ATOM     26  C14 <0> d          -6.103  -0.336   6.986  0.00  0.00     0.204 C 
ENDBRANCH  14  25
TORSDOF 3
