REMARK  6 active torsions:
REMARK  status: ('A' for Active; 'I' for Inactive)
REMARK    1  A    between atoms: C2_2  and  N1_3 
REMARK    2  A    between atoms: N1_3  and  C4_5 
REMARK    3  A    between atoms: C4_5  and  C5_6 
REMARK    4  A    between atoms: C5_6  and  N2_7 
REMARK       I    between atoms: N2_7  and  C6_8 
REMARK    5  A    between atoms: C6_8  and  C7_10 
REMARK    6  A    between atoms: N3_14  and  C11_16 
ROOT
ATOM      1  C7  <0> d           1.522  -6.036  -3.818  0.00  0.00     0.105 C 
ATOM      2  C8  <0> d           2.370  -6.703  -2.710  0.00  0.00     0.119 C 
ATOM      3  C9  <0> d           2.943  -7.936  -3.373  0.00  0.00     0.225 C 
ATOM      4  O2  <0> d           3.432  -8.877  -2.785  0.00  0.00    -0.273 OA
ATOM      5  N3  <0> d           2.831  -7.837  -4.709  0.00  0.00    -0.317 N 
ATOM      6  C10 <0> d           2.201  -6.569  -5.099  0.00  0.00     0.146 C 
ENDROOT
BRANCH   1   7
ATOM      7  C6  <0> d           1.620  -4.534  -3.741  0.00  0.00     0.223 C 
ATOM      8  N2  <0> d           1.141  -3.882  -2.663  0.00  0.00    -0.359 N 
ATOM      9  H14 <0> d           0.733  -4.380  -1.937  0.00  0.00     0.162 HD
ATOM     10  O1  <0> d           2.130  -3.912  -4.648  0.00  0.00    -0.273 OA
BRANCH   8  11
ATOM     11  C5  <0> d           1.236  -2.422  -2.588  0.00  0.00     0.150 C 
BRANCH  11  12
ATOM     12  C4  <0> d           0.622  -1.938  -1.272  0.00  0.00     0.254 C 
BRANCH  12  13
ATOM     13  N1  <0> d           0.718  -0.474  -1.197  0.00  0.00    -0.074 N 
ATOM     14  C3  <0> d           2.131  -0.078  -1.136  0.00  0.00     0.269 C 
ATOM     15  H23 <0> d           0.289  -0.067  -2.015  0.00  0.00     0.279 HD
BRANCH  13  16
ATOM     16  C2  <0> d           0.023   0.001   0.007  0.00  0.00     0.230 C 
ATOM     17  C1  <0> d           0.015   1.530   0.021  0.00  0.00     0.034 C 
ENDBRANCH  13  16
ENDBRANCH  12  13
ENDBRANCH  11  12
ENDBRANCH   8  11
ENDBRANCH   1   7
BRANCH   5  18
ATOM     18  C11 <0> d           3.260  -8.816  -5.612  0.00  0.00     0.037 A 
ATOM     19  C16 <0> d           2.995  -8.675  -6.968  0.00  0.00     0.031 A 
ATOM     20  C15 <0> d           3.423  -9.641  -7.858  0.00  0.00     0.021 A 
ATOM     21  C14 <0> d           4.106 -10.753  -7.398  0.00  0.00     0.011 A 
ATOM     22  C13 <0> d           4.367 -10.898  -6.047  0.00  0.00     0.021 A 
ATOM     23 Br1  <0> d           4.686 -12.076  -8.619  0.00  0.00    -0.051 Br
ATOM     24  C12 <0> d           3.946  -9.933  -5.154  0.00  0.00     0.031 A 
ENDBRANCH   5  18
TORSDOF 6
