REMARK  6 active torsions:
REMARK  status: ('A' for Active; 'I' for Inactive)
REMARK    1  A    between atoms: C2_2  and  C3_3 
REMARK    2  A    between atoms: C3_3  and  N1_4 
REMARK       I    between atoms: N1_4  and  C4_5 
REMARK       I    between atoms: C4_5  and  N2_7 
REMARK       I    between atoms: N2_7  and  C5_8 
REMARK    3  A    between atoms: C5_8  and  C6_10 
REMARK    4  A    between atoms: C6_10  and  N3_11 
REMARK    5  A    between atoms: C10_15  and  C11_16 
REMARK       I    between atoms: C11_16  and  N4_18 
REMARK    6  A    between atoms: N4_18  and  C12_19 
ROOT
ATOM      1  N3  <0> d           0.024   0.016   0.036  0.00  0.00    -0.050 N 
ATOM      2  C7  <0> d          -0.077   1.485  -0.047  0.00  0.00     0.236 C 
ATOM      3  C8  <0> d           1.358   2.047   0.031  0.00  0.00     0.030 C 
ATOM      4  C9  <0> d           2.144   0.903   0.724  0.00  0.00     0.045 C 
ATOM      5  C10 <0> d           1.453  -0.352   0.137  0.00  0.00     0.280 C 
ATOM      6  H21 <0> d          -0.517  -0.342   0.923  0.00  0.00     0.281 HD
ENDROOT
BRANCH   1   7
ATOM      7  C6  <0> d          -0.603  -0.621  -1.130  0.00  0.00     0.338 C 
BRANCH   7   8
ATOM      8  C5  <0> d          -2.085  -0.352  -1.113  0.00  0.00     0.251 C 
ATOM      9  N2  <0> d          -2.855  -0.753  -2.144  0.00  0.00    -0.278 N 
ATOM     10  C4  <0> d          -4.181  -0.512  -2.129  0.00  0.00     0.323 C 
ATOM     11  H8  <0> d          -2.400  -1.276  -2.999  0.00  0.00     0.173 HD
ATOM     12  N1  <0> d          -4.950  -0.913  -3.160  0.00  0.00    -0.339 N 
ATOM     13  O1  <0> d          -4.683   0.066  -1.185  0.00  0.00    -0.247 OA
ATOM     14  H7  <0> d          -4.496  -1.436  -4.015  0.00  0.00     0.164 HD
ATOM     15  O2  <0> d          -2.586   0.224  -0.171  0.00  0.00    -0.271 OA
BRANCH  12  16
ATOM     16  C3  <0> d          -6.392  -0.651  -3.144  0.00  0.00     0.150 C 
BRANCH  16  17
ATOM     17  C2  <0> d          -7.016  -1.196  -4.403  0.00  0.00    -0.018 C 
ATOM     18  C1  <0> d          -8.013  -2.041  -4.327  0.00  0.00     0.008 C 
ENDBRANCH  16  17
ENDBRANCH  12  16
ENDBRANCH   7   8
ENDBRANCH   1   7
BRANCH   5  19
ATOM     19  C11 <0> d           1.627  -1.528   1.063  0.00  0.00     0.253 C 
ATOM     20  O3  <0> d           0.660  -2.027   1.598  0.00  0.00    -0.271 OA
ATOM     21  N4  <0> d           2.858  -2.026   1.295  0.00  0.00    -0.324 N 
ATOM     22  H17 <0> d           3.741  -1.535   0.861  0.00  0.00     0.169 HD
BRANCH  21  23
ATOM     23  C12 <0> d           3.012  -3.168   2.091  0.00  0.00     0.056 A 
ATOM     24  C17 <0> d           4.125  -3.984   1.929  0.00  0.00     0.062 A 
ATOM     25  C16 <0> d           4.275  -5.110   2.715  0.00  0.00     0.050 A 
ATOM     26 Cl1  <0> d           5.327  -3.588   0.739  0.00  0.00    -0.082 Cl
ATOM     27  C15 <0> d           3.317  -5.426   3.663  0.00  0.00     0.035 A 
ATOM     28  C14 <0> d           2.208  -4.615   3.825  0.00  0.00     0.026 A 
ATOM     29 Cl2  <0> d           3.508  -6.842   4.649  0.00  0.00    -0.084 Cl
ATOM     30  C13 <0> d           2.056  -3.485   3.046  0.00  0.00     0.033 A 
ENDBRANCH  21  23
ENDBRANCH   5  19
TORSDOF 6
