REMARK  3 active torsions:
REMARK  status: ('A' for Active; 'I' for Inactive)
REMARK    1  A    between atoms: C3_3  and  N1_9 
REMARK    2  A    between atoms: N1_9  and  C7_10 
REMARK    3  A    between atoms: C12_15  and  N2_16 
ROOT
ATOM      1  C7  <0> d           3.513   3.525  -0.106  0.00  0.00     0.061 A 
ATOM      2  C8  <0> d           2.280   4.160  -0.077  0.00  0.00     0.064 A 
ATOM      3  C9  <0> d           2.213   5.541  -0.162  0.00  0.00     0.070 A 
ATOM      4  C10 <0> d           3.382   6.293  -0.276  0.00  0.00     0.098 A 
ATOM      5  C11 <0> d           4.613   5.660  -0.304  0.00  0.00     0.070 A 
ATOM      6  C12 <0> d           4.682   4.277  -0.214  0.00  0.00     0.055 A 
ATOM      7  O1  <0> d           3.300   7.649  -0.360  0.00  0.00    -0.340 OA
ATOM      8  C13 <0> d           2.153   8.183  -1.027  0.00  0.00     0.278 C 
ATOM      9  C14 <0> d           0.910   7.491  -0.530  0.00  0.00     0.246 C 
ATOM     10  O2  <0> d          -0.144   8.090  -0.486  0.00  0.00    -0.271 OA
ATOM     11  N3  <0> d           0.974   6.201  -0.133  0.00  0.00    -0.323 N 
ATOM     12  H11 <0> d           0.176   5.738   0.167  0.00  0.00     0.169 HD
ENDROOT
BRANCH   1  13
ATOM     13  N1  <0> d           3.583   2.127  -0.021  0.00  0.00    -0.353 N 
ATOM     14  H4  <0> d           4.437   1.677  -0.125  0.00  0.00     0.166 HD
BRANCH  13  15
ATOM     15  C3  <0> d           2.424   1.381   0.212  0.00  0.00     0.054 A 
ATOM     16  C2  <0> d           1.504   1.804   1.163  0.00  0.00     0.034 A 
ATOM     17  C1  <0> d           0.359   1.066   1.392  0.00  0.00     0.044 A 
ATOM     18  C6  <0> d           0.127  -0.095   0.675  0.00  0.00     0.118 A 
ATOM     19  C5  <0> d           1.042  -0.520  -0.274  0.00  0.00     0.068 A 
ATOM     20  F1  <0> d          -0.993  -0.815   0.901  0.00  0.00    -0.206 F 
ATOM     21  C4  <0> d           2.189   0.214  -0.507  0.00  0.00     0.063 A 
ATOM     22 Cl1  <0> d           3.335  -0.318  -1.697  0.00  0.00    -0.082 Cl
ENDBRANCH  13  15
ENDBRANCH   1  13
BRANCH   6  23
ATOM     23  N2  <0> d           5.928   3.635  -0.236  0.00  0.00    -0.397 N 
ATOM     24  H7  <0> d           5.976   2.668  -0.177  0.00  0.00     0.156 HD
ATOM     25  H8  <0> d           6.741   4.158  -0.311  0.00  0.00     0.156 HD
ENDBRANCH   6  23
TORSDOF 3
