REMARK  8 active torsions:
REMARK  status: ('A' for Active; 'I' for Inactive)
REMARK    1  A    between atoms: C4_4  and  C5_5 
REMARK    2  A    between atoms: C8_8  and  C9_10 
REMARK    3  A    between atoms: C10_11  and  C11_12 
REMARK       I    between atoms: C11_12  and  N1_14 
REMARK    4  A    between atoms: N1_14  and  C12_15 
REMARK    5  A    between atoms: C12_15  and  C13_16 
REMARK    6  A    between atoms: C13_16  and  C14_17 
REMARK    7  A    between atoms: C14_17  and  N2_18 
REMARK    8  A    between atoms: C17_21  and  C20_24 
REMARK       I    between atoms: C20_24  and  N3_26 
ROOT
ATOM      1  C11 <0> d           2.493  -7.522  -0.873  0.00  0.00     0.241 C 
ATOM      2  O2  <0> d           1.385  -7.877  -1.234  0.00  0.00    -0.269 OA
ATOM      3  N1  <0> d           3.534  -8.374  -0.956  0.00  0.00    -0.358 N 
ATOM      4  H12 <0> d           4.416  -8.091  -0.668  0.00  0.00     0.162 HD
ENDROOT
BRANCH   3   5
ATOM      5  C12 <0> d           3.333  -9.727  -1.480  0.00  0.00     0.124 C 
BRANCH   5   6
ATOM      6  C13 <0> d           4.664 -10.482  -1.466  0.00  0.00     0.047 C 
BRANCH   6   7
ATOM      7  C14 <0> d           4.454 -11.896  -2.013  0.00  0.00     0.236 C 
BRANCH   7   8
ATOM      8  N2  <0> d           5.731 -12.621  -2.000  0.00  0.00    -0.071 N 
ATOM      9  C19 <0> d           5.554 -13.932  -2.635  0.00  0.00     0.235 C 
ATOM     10  C18 <0> d           6.900 -14.659  -2.697  0.00  0.00     0.042 C 
ATOM     11  C17 <0> d           7.439 -14.846  -1.276  0.00  0.00     0.081 C 
ATOM     12  C16 <0> d           7.549 -13.477  -0.598  0.00  0.00     0.042 C 
ATOM     13  C15 <0> d           6.179 -12.794  -0.614  0.00  0.00     0.235 C 
ATOM     14  H30 <0> d           6.422 -12.091  -2.511  0.00  0.00     0.279 HD
BRANCH  11  15
ATOM     15  C20 <0> d           8.800 -15.491  -1.334  0.00  0.00     0.219 C 
ATOM     16  O3  <0> d           9.764 -14.913  -0.878  0.00  0.00    -0.273 OA
ATOM     17  N3  <0> d           8.945 -16.709  -1.892  0.00  0.00    -0.370 N 
ATOM     18  H28 <0> d           8.174 -17.170  -2.256  0.00  0.00     0.159 HD
ATOM     19  H29 <0> d           9.821 -17.124  -1.929  0.00  0.00     0.159 HD
ENDBRANCH  11  15
ENDBRANCH   7   8
ENDBRANCH   6   7
ENDBRANCH   5   6
ENDBRANCH   3   5
BRANCH   1  20
ATOM     20  C10 <0> d           2.687  -6.214  -0.367  0.00  0.00     0.077 C 
ATOM     21  C9  <0> d           1.640  -5.357  -0.284  0.00  0.00     0.042 C 
BRANCH  21  22
ATOM     22  C8  <0> d           1.834  -4.049   0.222  0.00  0.00     0.075 A 
ATOM     23  C7  <0> d           3.028  -3.517   0.663  0.00  0.00     0.040 A 
ATOM     24  C6  <0> d           2.753  -2.203   1.072  0.00  0.00     0.036 A 
ATOM     25  C5  <0> d           1.434  -1.989   0.869  0.00  0.00     0.058 A 
ATOM     26  O1  <0> d           0.883  -3.101   0.363  0.00  0.00    -0.315 OA
BRANCH  25  27
ATOM     27  C4  <0> d           0.700  -0.708   1.168  0.00  0.00     0.047 A 
ATOM     28  C2  <0> d           0.002  -0.004   0.002  0.00  0.00    -0.007 A 
ATOM     29  C1  <0> d          -0.019   1.526   0.010  0.00  0.00     0.011 C 
ATOM     30  C3  <0> d          -0.828  -0.728   1.065  0.00  0.00     0.016 A 
ENDBRANCH  25  27
ENDBRANCH  21  22
ENDBRANCH   1  20
TORSDOF 8
