REMARK  2 active torsions:
REMARK  status: ('A' for Active; 'I' for Inactive)
REMARK    1  A    between atoms: N1_8  and  C8_11 
REMARK    2  A    between atoms: C8_11  and  C9_12 
ROOT
ATOM      1  C1  <0> d          -3.376   1.696   0.029  0.00  0.00     0.052 C 
ATOM      2  C2  <0> d          -2.026   2.364   0.028  0.00  0.00    -0.014 A 
ATOM      3  C3  <0> d          -1.776   3.685   0.038  0.00  0.00     0.058 A 
ATOM      4  O1  <0> d          -0.448   3.897   0.026  0.00  0.00    -0.295 OA
ATOM      5  C4  <0> d           0.225   2.734   0.014  0.00  0.00     0.185 A 
ATOM      6  C5  <0> d          -0.721   1.709   0.018  0.00  0.00     0.069 A 
ATOM      7  C6  <0> d          -0.254   0.321   0.006  0.00  0.00     0.117 A 
ATOM      8  N1  <0> d           1.115   0.117  -0.008  0.00  0.00    -0.323 N 
ATOM      9  C7  <0> d           1.951   1.188  -0.010  0.00  0.00     0.214 A 
ATOM     10  N2  <0> d           1.530   2.418   0.001  0.00  0.00    -0.218 NA
ATOM     11  C15 <0> d          -2.826   4.765   0.052  0.00  0.00     0.077 C 
ATOM     12  H4  <0> d          -0.860  -1.632   0.001  0.00  0.00     0.157 HD
ATOM     13  N3  <0> d          -1.161  -0.657   0.009  0.00  0.00    -0.384 N 
ATOM     14  H16 <0> d          -2.162  -0.429   0.020  0.00  0.00     0.157 HD
ENDROOT
BRANCH   8  15
ATOM     15  C8  <0> d           1.659  -1.244  -0.021  0.00  0.00     0.170 C 
BRANCH  15  16
ATOM     16  C9  <0> d           1.716  -1.748  -1.440  0.00  0.00    -0.040 A 
ATOM     17  C14 <0> d           2.849  -1.536  -2.203  0.00  0.00     0.009 A 
ATOM     18  C13 <0> d           2.903  -1.999  -3.504  0.00  0.00     0.001 A 
ATOM     19  C12 <0> d           1.823  -2.674  -4.043  0.00  0.00     0.000 A 
ATOM     20  C11 <0> d           0.690  -2.886  -3.280  0.00  0.00     0.001 A 
ATOM     21  C10 <0> d           0.639  -2.427  -1.976  0.00  0.00     0.009 A 
ENDBRANCH  15  16
ENDBRANCH   8  15
TORSDOF 2
