REMARK  8 active torsions:
REMARK  status: ('A' for Active; 'I' for Inactive)
REMARK    1  A    between atoms: C3_3  and  N3_24 
REMARK    2  A    between atoms: C6_6  and  C7_7 
REMARK    3  A    between atoms: C7_7  and  C8_8 
REMARK    4  A    between atoms: N1_11  and  C11_15 
REMARK    5  A    between atoms: C11_15  and  C12_16 
REMARK    6  A    between atoms: C11_15  and  C15_21 
REMARK    7  A    between atoms: C12_16  and  C13_17 
REMARK    8  A    between atoms: C13_17  and  C14_18 
REMARK       I    between atoms: C14_18  and  N2_20 
ROOT
ATOM      1  C8  <0> d          -1.239  -2.112  -0.099  0.00  0.00     0.076 A 
ATOM      2  C9  <0> d          -2.364  -3.064  -0.220  0.00  0.00     0.267 A 
ATOM      3  O1  <0> d          -3.521  -2.688  -0.234  0.00  0.00    -0.266 OA
ATOM      4  N1  <0> d          -2.048  -4.345  -0.313  0.00  0.00    -0.283 N 
ATOM      5  C10 <0> d          -0.764  -4.756  -0.297  0.00  0.00     0.149 A 
ATOM      6  S1  <0> d          -0.159  -6.354  -0.405  0.00  0.00    -0.052 SA
ATOM      7  S2  <0> d           0.153  -3.232  -0.146  0.00  0.00    -0.055 SA
ENDROOT
BRANCH   4   8
ATOM      8  C11 <0> d          -3.116  -5.339  -0.434  0.00  0.00     0.196 C 
BRANCH   8   9
ATOM      9  C12 <0> d          -2.949  -6.110  -1.746  0.00  0.00     0.046 C 
BRANCH   9  10
ATOM     10  C13 <0> d          -3.146  -5.157  -2.926  0.00  0.00     0.105 C 
BRANCH  10  11
ATOM     11  C14 <0> d          -2.981  -5.916  -4.218  0.00  0.00     0.215 C 
ATOM     12  O2  <0> d          -2.731  -7.102  -4.196  0.00  0.00    -0.274 OA
ATOM     13  N2  <0> d          -3.112  -5.277  -5.397  0.00  0.00    -0.370 N 
ATOM     14  H11 <0> d          -3.312  -4.328  -5.414  0.00  0.00     0.159 HD
ATOM     15  H12 <0> d          -3.006  -5.765  -6.228  0.00  0.00     0.159 HD
ENDBRANCH  10  11
ENDBRANCH   9  10
ENDBRANCH   8   9
BRANCH   8  16
ATOM     16  C15 <0> d          -3.045  -6.298   0.725  0.00  0.00     0.197 C 
ATOM     17  O3  <0> d          -4.061  -6.827   1.143  0.00  0.00    -0.646 OA
ATOM     18  O4  <0> d          -1.970  -6.546   1.246  0.00  0.00    -0.646 OA
ENDBRANCH   8  16
ENDBRANCH   4   8
BRANCH   1  19
ATOM     19  C7  <0> d          -1.258  -0.760   0.011  0.00  0.00     0.036 C 
BRANCH  19  20
ATOM     20  C6  <0> d          -0.003   0.001  -0.057  0.00  0.00    -0.035 A 
ATOM     21  C1  <0> d           1.190  -0.641  -0.409  0.00  0.00     0.014 A 
ATOM     22  C2  <0> d           2.364   0.080  -0.471  0.00  0.00     0.037 A 
ATOM     23  C3  <0> d           2.364   1.435  -0.185  0.00  0.00     0.102 A 
ATOM     24  C4  <0> d           1.188   2.077   0.164  0.00  0.00     0.037 A 
ATOM     25  C5  <0> d           0.006   1.370   0.230  0.00  0.00     0.014 A 
BRANCH  23  26
ATOM     26  N3  <0> d           3.629   2.201  -0.253  0.00  0.00    -0.116 N 
ATOM     27  O5  <0> d           4.658   1.644  -0.557  0.00  0.00    -0.532 OA
ATOM     28  O6  <0> d           3.633   3.384  -0.005  0.00  0.00    -0.532 OA
ENDBRANCH  23  26
ENDBRANCH  19  20
ENDBRANCH   1  19
TORSDOF 8
