REMARK  6 active torsions:
REMARK  status: ('A' for Active; 'I' for Inactive)
REMARK       I    between atoms: C2_2  and  N1_4 
REMARK    1  A    between atoms: N1_4  and  C3_5 
REMARK    2  A    between atoms: C4_7  and  C6_10 
REMARK    3  A    between atoms: C6_10  and  O2_11 
REMARK    4  A    between atoms: O2_11  and  C7_12 
REMARK    5  A    between atoms: C7_12  and  C8_14 
REMARK    6  A    between atoms: C11_17  and  N3_20 
ROOT
ATOM      1  C7  <0> d          -3.560  -7.511  -0.016  0.00  0.00     0.293 C 
ATOM      2  O3  <0> d          -4.720  -7.233   0.215  0.00  0.00    -0.259 OA
ENDROOT
BRANCH   1   3
ATOM      3  O2  <0> d          -2.669  -6.530  -0.263  0.00  0.00    -0.311 OA
BRANCH   3   4
ATOM      4  C6  <0> d          -3.158  -5.188  -0.238  0.00  0.00     0.238 C 
BRANCH   4   5
ATOM      5  C4  <0> d          -2.028  -4.236  -0.535  0.00  0.00     0.068 A 
ATOM      6  N2  <0> d          -2.219  -2.930  -0.572  0.00  0.00    -0.226 NA
ATOM      7  C3  <0> d          -1.227  -2.106  -0.831  0.00  0.00     0.173 A 
ATOM      8  S1  <0> d           0.082  -3.139  -1.057  0.00  0.00    -0.062 SA
ATOM      9  C5  <0> d          -0.771  -4.683  -0.777  0.00  0.00     0.082 A 
BRANCH   7  10
ATOM     10  N1  <0> d          -1.255  -0.718  -0.906  0.00  0.00    -0.306 N 
ATOM     11  C2  <0> d          -0.128  -0.036  -1.193  0.00  0.00     0.219 C 
ATOM     12  C1  <0> d          -0.158   1.468  -1.274  0.00  0.00     0.117 C 
ATOM     13  O1  <0> d           0.910  -0.633  -1.384  0.00  0.00    -0.274 OA
ATOM     14  H4  <0> d          -2.085  -0.240  -0.753  0.00  0.00     0.171 HD
ENDBRANCH   7  10
ENDBRANCH   4   5
ENDBRANCH   3   4
ENDBRANCH   1   3
BRANCH   1  15
ATOM     15  C8  <0> d          -3.126  -8.921  -0.025  0.00  0.00     0.039 A 
ATOM     16  C13 <0> d          -4.049  -9.939   0.232  0.00  0.00     0.020 A 
ATOM     17  C12 <0> d          -3.641 -11.254   0.217  0.00  0.00     0.031 A 
ATOM     18  C11 <0> d          -2.312 -11.569  -0.042  0.00  0.00     0.045 A 
ATOM     19  C10 <0> d          -1.390 -10.559  -0.292  0.00  0.00     0.031 A 
ATOM     20  C9  <0> d          -1.791  -9.241  -0.284  0.00  0.00     0.020 A 
BRANCH  18  21
ATOM     21  N3  <0> d          -1.901 -12.905  -0.051  0.00  0.00    -0.252 N 
ATOM     22  C17 <0> d          -1.071 -13.414   0.868  0.00  0.00     0.231 A 
ATOM     23  C16 <0> d          -0.836 -14.879   0.569  0.00  0.00     0.113 A 
ATOM     24  O5  <0> d          -0.586 -12.800   1.793  0.00  0.00    -0.273 OA
ATOM     25  C15 <0> d          -1.676 -15.129  -0.700  0.00  0.00     0.113 A 
ATOM     26  C14 <0> d          -2.301 -13.780  -0.982  0.00  0.00     0.231 A 
ATOM     27  O4  <0> d          -3.046 -13.531  -1.906  0.00  0.00    -0.273 OA
ENDBRANCH  18  21
ENDBRANCH   1  15
TORSDOF 6
