REMARK  3 active torsions:
REMARK  status: ('A' for Active; 'I' for Inactive)
REMARK    1  A    between atoms: C7_7  and  N1_8 
REMARK       I    between atoms: N1_8  and  C8_9 
REMARK    2  A    between atoms: C8_9  and  C9_11 
REMARK       I    between atoms: C9_11  and  N2_13 
REMARK    3  A    between atoms: N2_13  and  C10_14 
ROOT
ATOM      1  N1  <0> d           0.026  -0.016   2.416  0.00  0.00    -0.318 N 
ATOM      2  C8  <0> d          -0.056  -0.695   3.577  0.00  0.00     0.314 C 
ATOM      3  O1  <0> d          -0.040  -1.909   3.572  0.00  0.00    -0.262 OA
ATOM      4  H8  <0> d           0.079   0.953   2.424  0.00  0.00     0.169 HD
ENDROOT
BRANCH   2   5
ATOM      5  C9  <0> d          -0.166   0.045   4.869  0.00  0.00     0.310 C 
ATOM      6  O2  <0> d          -0.182   1.259   4.874  0.00  0.00    -0.262 OA
ATOM      7  N2  <0> d          -0.247  -0.634   6.030  0.00  0.00    -0.347 N 
ATOM      8  H9  <0> d          -0.234  -1.604   6.027  0.00  0.00     0.163 HD
BRANCH   7   9
ATOM      9  C10 <0> d          -0.355   0.092   7.298  0.00  0.00     0.112 C 
ATOM     10  C13 <0> d           0.146  -0.785   8.461  0.00  0.00     0.259 C 
ATOM     11  N3  <0> d          -0.988  -0.946   9.400  0.00  0.00    -0.073 N 
ATOM     12  C12 <0> d          -2.217  -0.764   8.587  0.00  0.00     0.236 C 
ATOM     13  C14 <0> d          -0.967  -2.290   9.993  0.00  0.00     0.269 C 
ATOM     14  H19 <0> d          -0.941  -0.244  10.123  0.00  0.00     0.279 HD
ATOM     15  C11 <0> d          -1.837   0.388   7.623  0.00  0.00     0.054 C 
ENDBRANCH   7   9
ENDBRANCH   2   5
BRANCH   1  16
ATOM     16  C7  <0> d           0.033  -0.706   1.201  0.00  0.00     0.042 A 
ATOM     17  C2  <0> d          -0.586  -0.158   0.085  0.00  0.00    -0.035 A 
ATOM     18  C1  <0> d          -1.267   1.182   0.183  0.00  0.00     0.050 C 
ATOM     19  C3  <0> d          -0.571  -0.840  -1.116  0.00  0.00     0.010 A 
ATOM     20  C4  <0> d           0.054  -2.070  -1.207  0.00  0.00     0.020 A 
ATOM     21  C5  <0> d           0.666  -2.622  -0.096  0.00  0.00     0.013 A 
ATOM     22  C6  <0> d           0.655  -1.945   1.109  0.00  0.00     0.049 A 
ATOM     23 Br1  <0> d           1.519  -4.305  -0.225  0.00  0.00    -0.051 Br
ENDBRANCH   1  16
TORSDOF 3
