REMARK  4 active torsions:
REMARK  status: ('A' for Active; 'I' for Inactive)
REMARK    1  A    between atoms: C2_2  and  C4_4 
REMARK    2  A    between atoms: C7_11  and  N5_28 
REMARK    3  A    between atoms: N3_16  and  C14_19 
REMARK    4  A    between atoms: C14_19  and  C15_20 
ROOT
ATOM      1  C4  <0> d          -1.412  -0.526   0.013  0.00  0.00     0.043 A 
ATOM      2  C5  <0> d          -2.073  -1.224  -0.915  0.00  0.00     0.035 A 
ATOM      3  C6  <0> d          -3.368  -1.482  -0.395  0.00  0.00     0.199 A 
ATOM      4  N1  <0> d          -3.470  -0.933   0.779  0.00  0.00    -0.148 NA
ATOM      5  H1  <0> d          -2.024   0.178   1.870  0.00  0.00     0.189 HD
ATOM      6  N2  <0> d          -2.250  -0.316   1.067  0.00  0.00    -0.279 N 
ATOM      7  O1  <0> d          -4.300  -2.206  -1.073  0.00  0.00    -0.272 OA
ATOM      8  C7  <0> d          -3.812  -3.048  -2.004  0.00  0.00     0.161 C 
ATOM      9  C8  <0> d          -2.625  -2.868  -2.620  0.00  0.00     0.086 C 
ATOM     10  C9  <0> d          -1.682  -1.723  -2.295  0.00  0.00     0.038 C 
ATOM     11  C10 <0> d          -1.981  -0.628  -3.315  0.00  0.00     0.048 C 
ATOM     12  C11 <0> d          -0.840   0.379  -3.404  0.00  0.00     0.236 C 
ATOM     13  N3  <0> d           0.340  -0.353  -3.886  0.00  0.00    -0.067 N 
ATOM     14  C12 <0> d           0.806  -1.277  -2.860  0.00  0.00     0.236 C 
ATOM     15  C13 <0> d          -0.252  -2.203  -2.298  0.00  0.00     0.048 C 
ATOM     16  C21 <0> d          -2.297  -3.792  -3.664  0.00  0.00     0.100 C 
ATOM     17  N4  <0> d          -2.037  -4.524  -4.492  0.00  0.00    -0.191 NA
ATOM     18  H26 <0> d           0.092  -0.864  -4.722  0.00  0.00     0.280 HD
ENDROOT
BRANCH   8  19
ATOM     19  N5  <0> d          -4.560  -4.145  -2.343  0.00  0.00    -0.379 N 
ATOM     20  H24 <0> d          -5.417  -4.299  -1.915  0.00  0.00     0.158 HD
ATOM     21  H25 <0> d          -4.233  -4.768  -3.011  0.00  0.00     0.158 HD
ENDBRANCH   8  19
BRANCH   1  22
ATOM     22  C2  <0> d           0.002  -0.004   0.002  0.00  0.00     0.029 C 
ATOM     23  C1  <0> d          -0.006   1.498   0.295  0.00  0.00     0.016 C 
ATOM     24  C3  <0> d           0.821  -0.729   1.072  0.00  0.00     0.016 C 
ENDBRANCH   1  22
BRANCH  13  25
ATOM     25  C14 <0> d           1.404   0.608  -4.211  0.00  0.00     0.273 C 
BRANCH  25  26
ATOM     26  C15 <0> d           2.572  -0.123  -4.821  0.00  0.00    -0.033 A 
ATOM     27  C20 <0> d           2.636  -0.305  -6.190  0.00  0.00     0.009 A 
ATOM     28  C19 <0> d           3.710  -0.972  -6.749  0.00  0.00     0.001 A 
ATOM     29  C18 <0> d           4.715  -1.465  -5.939  0.00  0.00     0.000 A 
ATOM     30  C17 <0> d           4.649  -1.288  -4.570  0.00  0.00     0.001 A 
ATOM     31  C16 <0> d           3.578  -0.617  -4.011  0.00  0.00     0.009 A 
ENDBRANCH  25  26
ENDBRANCH  13  25
TORSDOF 4
