REMARK  3 active torsions:
REMARK  status: ('A' for Active; 'I' for Inactive)
REMARK    1  A    between atoms: C6_7  and  N2_14 
REMARK    2  A    between atoms: N2_14  and  S1_15 
REMARK    3  A    between atoms: S1_15  and  C11_18 
ROOT
ATOM      1  C1  <0> d          -0.019   1.526   0.010  0.00  0.00     0.027 C 
ATOM      2  C2  <0> d           0.002  -0.004   0.002  0.00  0.00     0.056 C 
ATOM      3  C3  <0> d           0.611  -0.495  -1.310  0.00  0.00     0.194 C 
ATOM      4  O1  <0> d          -0.323  -0.367  -2.374  0.00  0.00    -0.348 OA
ATOM      5  C4  <0> d          -1.036   0.788  -2.440  0.00  0.00     0.097 A 
ATOM      6  C5  <0> d          -0.722   1.752  -3.383  0.00  0.00     0.069 A 
ATOM      7  C6  <0> d          -1.450   2.934  -3.432  0.00  0.00     0.045 A 
ATOM      8  C7  <0> d          -2.491   3.149  -2.539  0.00  0.00     0.032 A 
ATOM      9  C8  <0> d          -2.808   2.186  -1.599  0.00  0.00     0.035 A 
ATOM     10  C9  <0> d          -2.084   1.006  -1.548  0.00  0.00     0.068 A 
ATOM     11  N1  <0> d          -2.396   0.018  -0.601  0.00  0.00    -0.324 N 
ATOM     12  C10 <0> d          -1.405  -0.524   0.143  0.00  0.00     0.232 C 
ATOM     13  O2  <0> d          -1.648  -1.423   0.919  0.00  0.00    -0.272 OA
ATOM     14  C17 <0> d           0.848  -0.506   1.174  0.00  0.00     0.027 C 
ATOM     15  H9  <0> d          -3.314  -0.274  -0.481  0.00  0.00     0.169 HD
ENDROOT
BRANCH   7  16
ATOM     16  N2  <0> d          -1.133   3.909  -4.383  0.00  0.00    -0.281 N 
ATOM     17  H10 <0> d          -0.967   3.653  -5.304  0.00  0.00     0.179 HD
BRANCH  16  18
ATOM     18  S1  <0> d          -1.044   5.502  -3.938  0.00  0.00     0.263 S 
ATOM     19  O3  <0> d          -0.682   6.230  -5.104  0.00  0.00    -0.200 OA
ATOM     20  O4  <0> d          -2.224   5.784  -3.199  0.00  0.00    -0.200 OA
BRANCH  18  21
ATOM     21  C11 <0> d           0.303   5.653  -2.812  0.00  0.00     0.080 A 
ATOM     22  C16 <0> d           1.573   5.927  -3.286  0.00  0.00     0.027 A 
ATOM     23  C15 <0> d           2.630   6.045  -2.404  0.00  0.00     0.025 A 
ATOM     24  C14 <0> d           2.417   5.890  -1.046  0.00  0.00     0.034 A 
ATOM     25  C13 <0> d           1.147   5.616  -0.572  0.00  0.00     0.025 A 
ATOM     26 Cl1  <0> d           3.744   6.038   0.064  0.00  0.00    -0.084 Cl
ATOM     27  C12 <0> d           0.089   5.504  -1.455  0.00  0.00     0.027 A 
ENDBRANCH  18  21
ENDBRANCH  16  18
ENDBRANCH   7  16
TORSDOF 3
