REMARK  2 active torsions:
REMARK  status: ('A' for Active; 'I' for Inactive)
REMARK    1  A    between atoms: N1_8  and  C7_9 
REMARK    2  A    between atoms: C15_18  and  O3_19 
ROOT
ATOM      1  C1  <0> d          -0.318   0.596  -0.701  0.00  0.00     0.046 C 
ATOM      2  C2  <0> d          -0.682  -0.704   0.022  0.00  0.00     0.128 C 
ATOM      3  C3  <0> d          -2.110  -0.607   0.562  0.00  0.00     0.116 C 
ATOM      4  C4  <0> d          -2.089   0.232   1.821  0.00  0.00     0.131 C 
ATOM      5  O1  <0> d          -2.784   1.206   1.951  0.00  0.00    -0.298 OA
ATOM      6  C5  <0> d          -1.144  -0.231   2.910  0.00  0.00     0.116 C 
ATOM      7  C6  <0> d           0.262  -0.341   2.317  0.00  0.00     0.128 C 
ATOM      8  N1  <0> d           0.294  -1.042   1.045  0.00  0.00    -0.045 N 
ATOM      9  C16 <0> d           1.122  -1.146   3.318  0.00  0.00     0.046 C 
ATOM     10  C17 <0> d           0.883   1.055   2.210  0.00  0.00     0.046 C 
ATOM     11  C18 <0> d          -0.664  -1.832  -1.035  0.00  0.00     0.046 C 
ATOM     12  H26 <0> d           0.180  -2.046   1.250  0.00  0.00     0.282 HD
ENDROOT
BRANCH   8  13
ATOM     13  C7  <0> d           1.639  -0.906   0.470  0.00  0.00     0.247 C 
ATOM     14  C15 <0> d           1.681  -1.569  -0.909  0.00  0.00     0.187 C 
ATOM     15  C14 <0> d           3.111  -1.695  -1.368  0.00  0.00     0.006 A 
ATOM     16  C9  <0> d           4.166  -1.597  -0.478  0.00  0.00     0.077 A 
ATOM     17  C13 <0> d           3.362  -1.919  -2.712  0.00  0.00     0.012 A 
ATOM     18  O2  <0> d           3.966  -1.371   0.846  0.00  0.00    -0.348 OA
ATOM     19  C10 <0> d           5.472  -1.731  -0.940  0.00  0.00     0.037 A 
ATOM     20  C8  <0> d           2.660  -1.607   1.374  0.00  0.00     0.212 C 
ATOM     21  C11 <0> d           5.715  -1.956  -2.279  0.00  0.00     0.003 A 
ATOM     22  C12 <0> d           4.659  -2.049  -3.167  0.00  0.00     0.001 A 
BRANCH  14  23
ATOM     23  O3  <0> d           0.949  -0.771  -1.842  0.00  0.00    -0.389 OA
ATOM     24  H16 <0> d           0.873  -1.166  -2.722  0.00  0.00     0.210 HD
ENDBRANCH  14  23
ENDBRANCH   8  13
TORSDOF 2
