REMARK  9 active torsions:
REMARK  status: ('A' for Active; 'I' for Inactive)
REMARK    1  A    between atoms: C2_2  and  N1_3 
REMARK    2  A    between atoms: N2_6  and  C7_9 
REMARK    3  A    between atoms: C8_10  and  N6_30 
REMARK    4  A    between atoms: C9_11  and  N5_15 
REMARK    5  A    between atoms: N5_15  and  C11_16 
REMARK    6  A    between atoms: C13_18  and  C19_26 
REMARK    7  A    between atoms: C15_20  and  C17_22 
REMARK    8  A    between atoms: C17_22  and  O2_24 
REMARK    9  A    between atoms: C19_26  and  O4_28 
ROOT
ATOM      1  C7  <0> d           3.618  -2.699  -3.262  0.00  0.00     0.157 A 
ATOM      2  C8  <0> d           3.462  -4.086  -3.240  0.00  0.00     0.118 A 
ATOM      3  C9  <0> d           4.564  -4.878  -3.567  0.00  0.00     0.159 A 
ATOM      4  N3  <0> d           5.713  -4.285  -3.884  0.00  0.00    -0.222 NA
ATOM      5  C10 <0> d           5.818  -2.972  -3.892  0.00  0.00     0.237 A 
ATOM      6  N4  <0> d           4.801  -2.188  -3.595  0.00  0.00    -0.222 NA
ENDROOT
BRANCH   3   7
ATOM      7  N5  <0> d           4.463  -6.265  -3.561  0.00  0.00    -0.339 N 
ATOM      8  H15 <0> d           3.605  -6.688  -3.404  0.00  0.00     0.167 HD
BRANCH   7   9
ATOM      9  C11 <0> d           5.600  -7.049  -3.780  0.00  0.00     0.035 A 
ATOM     10  C16 <0> d           5.482  -8.272  -4.425  0.00  0.00     0.047 A 
ATOM     11  C15 <0> d           6.616  -9.055  -4.652  0.00  0.00     0.042 A 
ATOM     12  C14 <0> d           7.865  -8.613  -4.219  0.00  0.00     0.035 A 
ATOM     13  C13 <0> d           7.978  -7.386  -3.567  0.00  0.00     0.042 A 
ATOM     14  C12 <0> d           6.841  -6.606  -3.348  0.00  0.00     0.047 A 
BRANCH  11  15
ATOM     15  C17 <0> d           6.491 -10.355  -5.344  0.00  0.00     0.293 C 
ATOM     16  O1  <0> d           5.403 -10.740  -5.721  0.00  0.00    -0.259 OA
BRANCH  15  17
ATOM     17  O2  <0> d           7.585 -11.113  -5.557  0.00  0.00    -0.323 OA
ATOM     18  C18 <0> d           7.390 -12.357  -6.232  0.00  0.00     0.213 C 
ENDBRANCH  15  17
ENDBRANCH  11  15
BRANCH  13  19
ATOM     19  C19 <0> d           9.300  -6.913  -3.107  0.00  0.00     0.293 C 
ATOM     20  O3  <0> d           9.398  -5.844  -2.538  0.00  0.00    -0.259 OA
BRANCH  19  21
ATOM     21  O4  <0> d          10.396  -7.667  -3.317  0.00  0.00    -0.323 OA
ATOM     22  C20 <0> d          11.642  -7.147  -2.846  0.00  0.00     0.213 C 
ENDBRANCH  19  21
ENDBRANCH  13  19
ENDBRANCH   7   9
ENDBRANCH   3   7
BRANCH   2  23
ATOM     23  N6  <0> d           2.231  -4.668  -2.900  0.00  0.00    -0.393 N 
ATOM     24  H25 <0> d           1.450  -4.109  -2.764  0.00  0.00     0.156 HD
ATOM     25  H26 <0> d           2.161  -5.631  -2.799  0.00  0.00     0.156 HD
ENDBRANCH   2  23
BRANCH   1  26
ATOM     26  N2  <0> d           2.553  -1.864  -2.946  0.00  0.00    -0.361 N 
ATOM     27  C4  <0> d           1.676  -1.325  -3.997  0.00  0.00     0.152 C 
ATOM     28  C3  <0> d           1.560   0.191  -3.803  0.00  0.00     0.254 C 
ATOM     29  N1  <0> d           1.110   0.474  -2.434  0.00  0.00    -0.068 N 
ATOM     30  C6  <0> d           2.126   0.030  -1.472  0.00  0.00     0.254 C 
ATOM     31  H27 <0> d           0.245  -0.015  -2.259  0.00  0.00     0.280 HD
ATOM     32  C5  <0> d           2.270  -1.494  -1.550  0.00  0.00     0.152 C 
BRANCH  29  33
ATOM     33  C2  <0> d           0.893   1.919  -2.282  0.00  0.00     0.230 C 
ATOM     34  C1  <0> d          -0.252   2.362  -3.196  0.00  0.00     0.034 C 
ENDBRANCH  29  33
ENDBRANCH   1  26
TORSDOF 9
