REMARK  3 active torsions:
REMARK  status: ('A' for Active; 'I' for Inactive)
REMARK    1  A    between atoms: C4_4  and  N1_7 
REMARK    2  A    between atoms: C11_16  and  C13_20 
REMARK    3  A    between atoms: C11_16  and  O4_24 
ROOT
ATOM      1  N1  <0> d          -1.588   4.455   0.039  0.00  0.00    -0.248 N 
ATOM      2  C7  <0> d          -0.788   3.443   0.531  0.00  0.00     0.134 A 
ATOM      3  C8  <0> d           0.564   3.617   0.506  0.00  0.00     0.107 A 
ATOM      4  C9  <0> d           1.113   4.798  -0.010  0.00  0.00     0.263 A 
ATOM      5  O1  <0> d           2.322   4.955  -0.034  0.00  0.00    -0.267 OA
ATOM      6  N2  <0> d           0.291   5.759  -0.480  0.00  0.00    -0.274 N 
ATOM      7  H1  <0> d           0.673   6.606  -0.850  0.00  0.00     0.173 HD
ATOM      8  C10 <0> d          -1.042   5.581  -0.452  0.00  0.00     0.335 A 
ATOM      9  O2  <0> d          -1.769   6.457  -0.880  0.00  0.00    -0.246 OA
ATOM     10  C11 <0> d           1.171   2.368   1.099  0.00  0.00     0.273 A 
ATOM     11  C12 <0> d          -0.035   1.515   1.439  0.00  0.00     0.272 A 
ATOM     12  O3  <0> d          -0.025   0.411   1.942  0.00  0.00    -0.269 OA
ATOM     13  N3  <0> d          -1.117   2.222   1.069  0.00  0.00    -0.309 N 
ATOM     14  H7  <0> d          -2.028   1.906   1.171  0.00  0.00     0.170 HD
ENDROOT
BRANCH   1  15
ATOM     15  C4  <0> d          -2.982   4.307   0.051  0.00  0.00     0.045 A 
ATOM     16  C3  <0> d          -3.630   3.733  -1.035  0.00  0.00     0.030 A 
ATOM     17  C2  <0> d          -5.003   3.588  -1.020  0.00  0.00     0.002 A 
ATOM     18  C1  <0> d          -5.733   4.013   0.075  0.00  0.00     0.000 A 
ATOM     19  C6  <0> d          -5.090   4.585   1.158  0.00  0.00     0.002 A 
ATOM     20  C5  <0> d          -3.717   4.728   1.151  0.00  0.00     0.030 A 
ENDBRANCH   1  15
BRANCH  10  21
ATOM     21  C13 <0> d           2.061   1.659   0.076  0.00  0.00     0.432 C 
ATOM     22  F1  <0> d           1.320   1.392  -1.081  0.00  0.00    -0.167 F 
ATOM     23  F2  <0> d           3.147   2.480  -0.246  0.00  0.00    -0.167 F 
ATOM     24  F3  <0> d           2.529   0.457   0.618  0.00  0.00    -0.167 F 
ENDBRANCH  10  21
BRANCH  10  25
ATOM     25  O4  <0> d           1.915   2.681   2.279  0.00  0.00    -0.368 OA
ATOM     26  H8  <0> d           2.269   1.907   2.737  0.00  0.00     0.212 HD
ENDBRANCH  10  25
TORSDOF 3
