REMARK  8 active torsions:
REMARK  status: ('A' for Active; 'I' for Inactive)
REMARK    1  A    between atoms: C2_2  and  C3_3 
REMARK    2  A    between atoms: C6_6  and  C9_9 
REMARK    3  A    between atoms: C15_16  and  O4_30 
REMARK    4  A    between atoms: C16_17  and  C18_20 
REMARK    5  A    between atoms: C18_20  and  N1_21 
REMARK    6  A    between atoms: N2_24  and  C23_27 
REMARK    7  A    between atoms: C23_27  and  C24_28 
REMARK    8  A    between atoms: C24_28  and  O3_29 
ROOT
ATOM      1  C9  <0> d           2.782  -1.908   4.658  0.00  0.00     0.053 C 
ATOM      2  C10 <0> d           2.117  -2.059   5.830  0.00  0.00     0.128 A 
ATOM      3  C11 <0> d           2.710  -2.429   7.126  0.00  0.00     0.219 A 
ATOM      4  O1  <0> d           3.881  -2.662   7.370  0.00  0.00    -0.284 OA
ATOM      5  C12 <0> d           1.571  -2.454   8.060  0.00  0.00     0.057 A 
ATOM      6  C13 <0> d           1.460  -2.731   9.424  0.00  0.00    -0.042 A 
ATOM      7  C14 <0> d           0.239  -2.674  10.033  0.00  0.00     0.045 A 
ATOM      8  C15 <0> d          -0.895  -2.340   9.297  0.00  0.00     0.076 A 
ATOM      9  C16 <0> d          -0.800  -2.063   7.943  0.00  0.00     0.036 A 
ATOM     10  C17 <0> d           0.434  -2.116   7.308  0.00  0.00     0.101 A 
ATOM     11  O2  <0> d           0.788  -1.889   6.024  0.00  0.00    -0.305 OA
ATOM     12  C25 <0> d           2.686  -3.093  10.222  0.00  0.00     0.049 C 
ENDROOT
BRANCH   9  13
ATOM     13  C18 <0> d          -2.036  -1.703   7.159  0.00  0.00     0.279 C 
BRANCH  13  14
ATOM     14  N1  <0> d          -2.232  -0.248   7.193  0.00  0.00    -0.064 N 
ATOM     15  C22 <0> d          -3.365   0.114   6.332  0.00  0.00     0.265 C 
ATOM     16  C21 <0> d          -3.557   1.632   6.352  0.00  0.00     0.300 C 
ATOM     17  N2  <0> d          -3.808   2.073   7.731  0.00  0.00     0.093 N 
ATOM     18  C20 <0> d          -2.692   1.696   8.611  0.00  0.00     0.300 C 
ATOM     19  C19 <0> d          -2.507   0.177   8.572  0.00  0.00     0.265 C 
ATOM     20  H31 <0> d          -1.397   0.211   6.860  0.00  0.00     0.280 HD
BRANCH  17  21
ATOM     21  C23 <0> d          -4.054   3.520   7.785  0.00  0.00     0.298 C 
BRANCH  21  22
ATOM     22  C24 <0> d          -5.364   3.842   7.063  0.00  0.00     0.194 C 
BRANCH  22  23
ATOM     23  O3  <0> d          -6.455   3.246   7.768  0.00  0.00    -0.399 OA
ATOM     24  H26 <0> d          -7.319   3.409   7.365  0.00  0.00     0.209 HD
ENDBRANCH  22  23
ENDBRANCH  21  22
ENDBRANCH  17  21
ENDBRANCH  13  14
ENDBRANCH   9  13
BRANCH   8  25
ATOM     25  O4  <0> d          -2.104  -2.286   9.912  0.00  0.00    -0.360 OA
ATOM     26  H27 <0> d          -2.323  -1.417  10.274  0.00  0.00     0.217 HD
ENDBRANCH   8  25
BRANCH   1  27
ATOM     27  C6  <0> d           2.072  -1.417   3.469  0.00  0.00    -0.033 A 
ATOM     28  C5  <0> d           0.686  -1.224   3.506  0.00  0.00     0.012 A 
ATOM     29  C4  <0> d           0.028  -0.762   2.386  0.00  0.00     0.008 A 
ATOM     30  C3  <0> d           0.734  -0.489   1.227  0.00  0.00    -0.059 A 
ATOM     31  C8  <0> d           2.104  -0.682   1.180  0.00  0.00     0.008 A 
ATOM     32  C7  <0> d           2.778  -1.138   2.293  0.00  0.00     0.012 A 
BRANCH  30  33
ATOM     33  C2  <0> d           0.007   0.016   0.007  0.00  0.00     0.034 C 
ATOM     34  C1  <0> d          -0.446  -1.172  -0.844  0.00  0.00     0.010 C 
ENDBRANCH  30  33
ENDBRANCH   1  27
TORSDOF 8
