REMARK  5 active torsions:
REMARK  status: ('A' for Active; 'I' for Inactive)
REMARK    1  A    between atoms: C3_3  and  C11_14 
REMARK    2  A    between atoms: C4_4  and  O1_13 
REMARK    3  A    between atoms: N1_5  and  C5_7 
REMARK    4  A    between atoms: C11_14  and  C12_15 
REMARK    5  A    between atoms: N3_18  and  C15_22 
ROOT
ATOM      1  C11 <0> d          -0.005  -0.378  -2.543  0.00  0.00     0.042 C 
ENDROOT
BRANCH   1   2
ATOM      2  C3  <0> d           0.008  -0.828  -1.150  0.00  0.00     0.044 A 
ATOM      3  C2  <0> d           0.002  -0.004   0.002  0.00  0.00     0.066 A 
ATOM      4  C1  <0> d          -0.018   1.503   0.010  0.00  0.00     0.073 C 
ATOM      5  N2  <0> d           0.023  -0.774   1.054  0.00  0.00    -0.169 NA
ATOM      6  N1  <0> d           0.035  -2.112   0.645  0.00  0.00    -0.210 N 
ATOM      7  C4  <0> d           0.029  -2.148  -0.705  0.00  0.00     0.176 A 
BRANCH   6   8
ATOM      8  C5  <0> d           0.054  -3.227   1.494  0.00  0.00     0.061 A 
ATOM      9  C10 <0> d           0.749  -3.175   2.695  0.00  0.00     0.031 A 
ATOM     10  C9  <0> d           0.761  -4.273   3.533  0.00  0.00     0.002 A 
ATOM     11  C8  <0> d           0.092  -5.428   3.170  0.00  0.00     0.000 A 
ATOM     12  C7  <0> d          -0.595  -5.485   1.971  0.00  0.00     0.002 A 
ATOM     13  C6  <0> d          -0.616  -4.388   1.133  0.00  0.00     0.031 A 
ENDBRANCH   6   8
BRANCH   7  14
ATOM     14  O1  <0> d           0.040  -3.258  -1.480  0.00  0.00    -0.344 OA
ATOM     15  H10 <0> d           0.927  -3.568  -1.710  0.00  0.00     0.219 HD
ENDBRANCH   7  14
ENDBRANCH   1   2
BRANCH   1  16
ATOM     16  C12 <0> d           0.901  -0.877  -3.428  0.00  0.00     0.077 A 
ATOM     17  S2  <0> d           2.202  -2.075  -3.169  0.00  0.00    -0.055 SA
ATOM     18  C14 <0> d           2.837  -2.100  -4.838  0.00  0.00     0.149 A 
ATOM     19  N3  <0> d           2.039  -1.207  -5.465  0.00  0.00    -0.292 N 
ATOM     20  S1  <0> d           4.134  -3.015  -5.480  0.00  0.00    -0.052 SA
ATOM     21  C13 <0> d           1.074  -0.582  -4.813  0.00  0.00     0.266 A 
ATOM     22  O2  <0> d           0.354   0.222  -5.377  0.00  0.00    -0.266 OA
BRANCH  19  23
ATOM     23  C15 <0> d           2.245  -0.929  -6.889  0.00  0.00     0.109 C 
ATOM     24  C18 <0> d           2.046  -2.231  -7.701  0.00  0.00     0.166 C 
ATOM     25  S3  <0> d           3.208  -2.012  -9.109  0.00  0.00     0.146 S 
ATOM     26  C17 <0> d           3.969  -0.404  -8.629  0.00  0.00     0.142 C 
ATOM     27  O3  <0> d           4.200  -3.028  -9.050  0.00  0.00    -0.228 OA
ATOM     28  O4  <0> d           2.461  -1.831 -10.304  0.00  0.00    -0.228 OA
ATOM     29  C16 <0> d           3.671  -0.392  -7.102  0.00  0.00     0.041 C 
ENDBRANCH  19  23
ENDBRANCH   1  16
TORSDOF 5
