REMARK  4 active torsions:
REMARK  status: ('A' for Active; 'I' for Inactive)
REMARK    1  A    between atoms: C9_10  and  N1_11 
REMARK       I    between atoms: N1_11  and  C10_12 
REMARK    2  A    between atoms: C10_12  and  C11_14 
REMARK       I    between atoms: C11_14  and  N2_16 
REMARK    3  A    between atoms: N2_16  and  C12_17 
REMARK    4  A    between atoms: C13_20  and  C14_22 
ROOT
ATOM      1  N1  <0> d          -2.505  -3.298  -0.964  0.00  0.00    -0.344 N 
ATOM      2  C10 <0> d          -3.667  -2.732  -0.582  0.00  0.00     0.310 C 
ATOM      3  O2  <0> d          -3.796  -2.315   0.550  0.00  0.00    -0.262 OA
ATOM      4  H10 <0> d          -2.401  -3.631  -1.869  0.00  0.00     0.163 HD
ENDROOT
BRANCH   1   5
ATOM      5  C9  <0> d          -1.397  -3.409  -0.012  0.00  0.00     0.121 C 
ATOM      6  C4  <0> d          -0.602  -2.129  -0.007  0.00  0.00    -0.003 A 
ATOM      7  C3  <0> d          -1.081  -0.806   0.003  0.00  0.00     0.044 A 
ATOM      8  C5  <0> d           0.745  -2.064  -0.011  0.00  0.00     0.062 A 
ATOM      9  C2  <0> d           0.002  -0.004   0.002  0.00  0.00     0.050 A 
ATOM     10  C1  <0> d          -0.018   1.503   0.010  0.00  0.00     0.076 C 
ATOM     11  O1  <0> d           1.104  -0.775  -0.013  0.00  0.00    -0.319 OA
ATOM     12  C6  <0> d           1.646  -3.276  -0.019  0.00  0.00     0.074 C 
ATOM     13  C7  <0> d           0.818  -4.497   0.398  0.00  0.00    -0.040 C 
ATOM     14  C8  <0> d          -0.466  -4.554  -0.433  0.00  0.00     0.039 C 
ATOM     15  C15 <0> d           0.461  -4.389   1.882  0.00  0.00     0.015 C 
ATOM     16  C16 <0> d           1.634  -5.770   0.162  0.00  0.00     0.015 C 
ENDBRANCH   1   5
BRANCH   2  17
ATOM     17  C11 <0> d          -4.796  -2.619  -1.553  0.00  0.00     0.315 C 
ATOM     18  O3  <0> d          -4.667  -3.037  -2.685  0.00  0.00    -0.262 OA
ATOM     19  N2  <0> d          -5.958  -2.054  -1.171  0.00  0.00    -0.296 N 
ATOM     20  H11 <0> d          -6.061  -1.720  -0.266  0.00  0.00     0.171 HD
BRANCH  19  21
ATOM     21  C12 <0> d          -7.008  -1.949  -2.073  0.00  0.00     0.197 A 
ATOM     22  S1  <0> d          -8.646  -1.258  -1.859  0.00  0.00    -0.028 SA
ATOM     23  C13 <0> d          -9.209  -1.584  -3.527  0.00  0.00     0.165 A 
ATOM     24  N4  <0> d          -8.133  -2.162  -4.024  0.00  0.00    -0.139 NA
ATOM     25  N3  <0> d          -7.088  -2.337  -3.339  0.00  0.00    -0.123 NA
BRANCH  23  26
ATOM     26  C14 <0> d         -10.536  -1.288  -4.177  0.00  0.00     0.414 C 
ATOM     27  F1  <0> d         -10.800  -2.251  -5.157  0.00  0.00    -0.207 F 
ATOM     28  F2  <0> d         -11.546  -1.319  -3.209  0.00  0.00    -0.207 F 
ENDBRANCH  23  26
ENDBRANCH  19  21
ENDBRANCH   2  17
TORSDOF 4
