REMARK  9 active torsions:
REMARK  status: ('A' for Active; 'I' for Inactive)
REMARK    1  A    between atoms: O1_2  and  C2_3 
REMARK    2  A    between atoms: C4_5  and  C10_13 
REMARK    3  A    between atoms: C6_7  and  O3_11 
REMARK    4  A    between atoms: C7_8  and  O2_9 
REMARK    5  A    between atoms: C10_13  and  C11_14 
REMARK    6  A    between atoms: N1_17  and  C14_21 
REMARK    7  A    between atoms: C14_21  and  C15_22 
REMARK       I    between atoms: C15_22  and  N2_24 
REMARK    8  A    between atoms: N2_24  and  C16_25 
REMARK    9  A    between atoms: C19_28  and  O6_31 
ROOT
ATOM      1  C11 <0> d           2.972   0.006   5.236  0.00  0.00     0.076 A 
ATOM      2  C12 <0> d           3.563   0.500   6.496  0.00  0.00     0.266 A 
ATOM      3  O4  <0> d           3.678   1.690   6.725  0.00  0.00    -0.266 OA
ATOM      4  N1  <0> d           3.959  -0.416   7.363  0.00  0.00    -0.289 N 
ATOM      5  C13 <0> d           3.829  -1.733   7.106  0.00  0.00     0.149 A 
ATOM      6  S1  <0> d           4.276  -3.059   8.092  0.00  0.00    -0.052 SA
ATOM      7  S2  <0> d           3.069  -1.760   5.490  0.00  0.00    -0.055 SA
ENDROOT
BRANCH   1   8
ATOM      8  C10 <0> d           2.485   0.703   4.178  0.00  0.00     0.036 C 
BRANCH   8   9
ATOM      9  C4  <0> d           1.763   0.003   3.108  0.00  0.00    -0.029 A 
ATOM     10  C3  <0> d           1.410  -1.343   3.263  0.00  0.00     0.051 A 
ATOM     11  C2  <0> d           0.730  -1.998   2.254  0.00  0.00     0.105 A 
ATOM     12  C7  <0> d           0.401  -1.323   1.081  0.00  0.00     0.135 A 
ATOM     13  C6  <0> d           0.746   0.017   0.925  0.00  0.00     0.105 A 
ATOM     14  C5  <0> d           1.426   0.679   1.929  0.00  0.00     0.051 A 
BRANCH  11  15
ATOM     15  O1  <0> d           0.386  -3.305   2.404  0.00  0.00    -0.353 OA
ATOM     16  C1  <0> d           0.755  -3.936   3.633  0.00  0.00     0.210 C 
ENDBRANCH  11  15
BRANCH  12  17
ATOM     17  O2  <0> d          -0.262  -1.973   0.088  0.00  0.00    -0.351 OA
ATOM     18  C8  <0> d          -1.690  -1.932   0.128  0.00  0.00     0.210 C 
ENDBRANCH  12  17
BRANCH  13  19
ATOM     19  O3  <0> d           0.418   0.673  -0.220  0.00  0.00    -0.353 OA
ATOM     20  C9  <0> d           0.807   2.045  -0.316  0.00  0.00     0.210 C 
ENDBRANCH  13  19
ENDBRANCH   8   9
ENDBRANCH   1   8
BRANCH   4  21
ATOM     21  C14 <0> d           4.554   0.010   8.633  0.00  0.00     0.236 C 
BRANCH  21  22
ATOM     22  C15 <0> d           3.470   0.167   9.668  0.00  0.00     0.240 C 
ATOM     23  O5  <0> d           2.314  -0.056   9.374  0.00  0.00    -0.271 OA
ATOM     24  N2  <0> d           3.785   0.554  10.920  0.00  0.00    -0.326 N 
ATOM     25  H15 <0> d           4.695   0.810  11.134  0.00  0.00     0.169 HD
BRANCH  24  26
ATOM     26  C16 <0> d           2.796   0.586  11.912  0.00  0.00     0.034 A 
ATOM     27  C21 <0> d           1.718  -0.286  11.847  0.00  0.00     0.032 A 
ATOM     28  C20 <0> d           0.747  -0.258  12.829  0.00  0.00     0.039 A 
ATOM     29  C19 <0> d           0.843   0.650  13.874  0.00  0.00     0.065 A 
ATOM     30  C18 <0> d           1.917   1.525  13.936  0.00  0.00     0.039 A 
ATOM     31  C17 <0> d           2.892   1.494  12.959  0.00  0.00     0.032 A 
BRANCH  29  32
ATOM     32  O6  <0> d          -0.116   0.681  14.837  0.00  0.00    -0.361 OA
ATOM     33  H20 <0> d          -0.849   1.282  14.643  0.00  0.00     0.217 HD
ENDBRANCH  29  32
ENDBRANCH  24  26
ENDBRANCH  21  22
ENDBRANCH   4  21
TORSDOF 9
