REMARK  2 active torsions:
REMARK  status: ('A' for Active; 'I' for Inactive)
REMARK    1  A    between atoms: C7_9  and  S1_13 
REMARK    2  A    between atoms: S1_13  and  N2_16 
ROOT
ATOM      1  C1  <0> d          -0.019   1.526   0.010  0.00  0.00     0.057 C 
ATOM      2  C2  <0> d           0.002  -0.004   0.002  0.00  0.00     0.141 C 
ATOM      3  C3  <0> d          -1.413  -0.525   0.009  0.00  0.00     0.256 C 
ATOM      4  O1  <0> d          -2.306   0.131  -0.484  0.00  0.00    -0.270 OA
ATOM      5  N1  <0> d          -1.681  -1.726   0.565  0.00  0.00    -0.322 N 
ATOM      6  C4  <0> d          -0.637  -2.448   1.160  0.00  0.00     0.068 A 
ATOM      7  C5  <0> d          -0.784  -3.794   1.453  0.00  0.00     0.034 A 
ATOM      8  C6  <0> d           0.258  -4.488   2.040  0.00  0.00     0.028 A 
ATOM      9  C7  <0> d           1.444  -3.842   2.336  0.00  0.00     0.082 A 
ATOM     10  C8  <0> d           1.598  -2.498   2.045  0.00  0.00     0.064 A 
ATOM     11  C9  <0> d           0.560  -1.798   1.456  0.00  0.00     0.098 A 
ATOM     12  O2  <0> d           0.694  -0.477   1.161  0.00  0.00    -0.329 OA
ATOM     13  C12 <0> d           0.720  -0.497  -1.256  0.00  0.00     0.057 C 
ATOM     14  H4  <0> d          -2.583  -2.083   0.554  0.00  0.00     0.169 HD
ENDROOT
BRANCH   9  15
ATOM     15  S1  <0> d           2.766  -4.734   3.086  0.00  0.00     0.260 S 
ATOM     16  O3  <0> d           3.571  -3.776   3.760  0.00  0.00    -0.200 OA
ATOM     17  O4  <0> d           2.179  -5.842   3.756  0.00  0.00    -0.200 OA
BRANCH  15  18
ATOM     18  N2  <0> d           3.693  -5.356   1.864  0.00  0.00    -0.315 N 
ATOM     19  C10 <0> d           4.812  -4.579   1.325  0.00  0.00     0.162 C 
ATOM     20  C11 <0> d           3.395  -6.683   1.321  0.00  0.00     0.162 C 
ENDBRANCH  15  18
ENDBRANCH   9  15
TORSDOF 2
