REMARK  5 active torsions:
REMARK  status: ('A' for Active; 'I' for Inactive)
REMARK    1  A    between atoms: N1_2  and  C2_3 
REMARK       I    between atoms: N1_2  and  C8_10 
REMARK    2  A    between atoms: C5_6  and  N2_9 
REMARK    3  A    between atoms: C8_10  and  C9_12 
REMARK    4  A    between atoms: C9_12  and  S1_13 
REMARK    5  A    between atoms: S1_13  and  C10_16 
ROOT
ATOM      1  C1  <0> d          -0.073   1.459  -0.019  0.00  0.00     0.159 C 
ATOM      2  N1  <0> d           0.002  -0.004   0.002  0.00  0.00    -0.322 N 
ATOM      3  C8  <0> d           0.043  -0.693  -1.155  0.00  0.00     0.238 C 
ATOM      4  O1  <0> d           0.009  -1.906  -1.141  0.00  0.00    -0.272 OA
ENDROOT
BRANCH   2   5
ATOM      5  C2  <0> d           0.031  -0.687   1.226  0.00  0.00     0.036 A 
ATOM      6  C7  <0> d          -1.039  -1.489   1.599  0.00  0.00     0.032 A 
ATOM      7  C6  <0> d          -1.008  -2.167   2.801  0.00  0.00     0.031 A 
ATOM      8  C5  <0> d           0.089  -2.036   3.643  0.00  0.00     0.025 A 
ATOM      9  C4  <0> d           1.157  -1.230   3.272  0.00  0.00     0.031 A 
ATOM     10  C3  <0> d           1.128  -0.557   2.067  0.00  0.00     0.032 A 
BRANCH   8  11
ATOM     11  N2  <0> d           0.118  -2.718   4.864  0.00  0.00    -0.399 N 
ATOM     12  H8  <0> d           0.885  -2.628   5.452  0.00  0.00     0.156 HD
ATOM     13  H9  <0> d          -0.627  -3.282   5.123  0.00  0.00     0.156 HD
ENDBRANCH   8  11
ENDBRANCH   2   5
BRANCH   3  14
ATOM     14  C9  <0> d           0.132   0.043  -2.468  0.00  0.00     0.249 C 
BRANCH  14  15
ATOM     15  S1  <0> d           0.170  -1.154  -3.830  0.00  0.00     0.190 S 
ATOM     16  O2  <0> d           1.385  -1.890  -3.801  0.00  0.00    -0.222 OA
ATOM     17  O3  <0> d          -1.080  -1.823  -3.930  0.00  0.00    -0.222 OA
BRANCH  15  18
ATOM     18  C10 <0> d           0.274  -0.174  -5.291  0.00  0.00     0.100 A 
ATOM     19  S2  <0> d          -1.045   0.489  -6.295  0.00  0.00    -0.090 SA
ATOM     20  C13 <0> d          -0.040   1.317  -7.516  0.00  0.00     0.051 A 
ATOM     21  C12 <0> d           1.214   1.032  -7.087  0.00  0.00     0.009 A 
ATOM     22  C11 <0> d           1.375   0.268  -5.947  0.00  0.00     0.031 A 
ENDBRANCH  15  18
ENDBRANCH  14  15
ENDBRANCH   3  14
TORSDOF 5
