REMARK  7 active torsions:
REMARK  status: ('A' for Active; 'I' for Inactive)
REMARK    1  A    between atoms: C2_2  and  C3_3 
REMARK    2  A    between atoms: C3_3  and  C5_5 
REMARK    3  A    between atoms: C5_5  and  C6_6 
REMARK    4  A    between atoms: C5_5  and  N2_13 
REMARK       I    between atoms: C6_6  and  N1_8 
REMARK    5  A    between atoms: N1_8  and  C7_9 
REMARK    6  A    between atoms: C7_9  and  C9_11 
REMARK       I    between atoms: N2_13  and  C11_14 
REMARK    7  A    between atoms: C11_14  and  C12_16 
ROOT
ATOM      1  C12 <0> d          -1.281   0.489   0.837  0.00  0.00     0.185 C 
ATOM      2  C13 <0> d           0.154  -0.053   0.909  0.00  0.00     0.076 C 
ATOM      3  C14 <0> d           1.074   0.984   1.502  0.00  0.00    -0.018 A 
ATOM      4  C15 <0> d           2.416   0.776   2.018  0.00  0.00    -0.001 A 
ATOM      5  C16 <0> d           3.213  -0.366   2.140  0.00  0.00     0.014 A 
ATOM      6  C17 <0> d           4.463  -0.195   2.682  0.00  0.00     0.001 A 
ATOM      7  C18 <0> d           4.922   1.046   3.094  0.00  0.00     0.002 A 
ATOM      8  C19 <0> d           4.154   2.192   2.986  0.00  0.00     0.030 A 
ATOM      9  C20 <0> d           2.880   2.047   2.438  0.00  0.00     0.043 A 
ATOM     10  N3  <0> d           1.882   2.945   2.193  0.00  0.00    -0.356 N 
ATOM     11  H5  <0> d           1.927   3.896   2.381  0.00  0.00     0.166 HD
ATOM     12  C21 <0> d           0.807   2.302   1.641  0.00  0.00     0.045 A 
ATOM     13  C22 <0> d          -0.512   2.920   1.245  0.00  0.00     0.173 C 
ATOM     14  N4  <0> d          -1.208   1.896   0.430  0.00  0.00    -0.320 N 
ATOM     15  C23 <0> d          -1.675   2.481  -0.681  0.00  0.00     0.256 C 
ATOM     16  O3  <0> d          -2.461   1.978  -1.460  0.00  0.00    -0.267 OA
ATOM     17  C24 <0> d          -1.093   3.821  -0.814  0.00  0.00     0.041 A 
ATOM     18  C25 <0> d          -0.346   4.099   0.349  0.00  0.00    -0.014 A 
ATOM     19  C26 <0> d           0.351   5.278   0.492  0.00  0.00     0.011 A 
ATOM     20  C27 <0> d           0.278   6.189  -0.558  0.00  0.00     0.001 A 
ATOM     21  C28 <0> d          -0.461   5.930  -1.695  0.00  0.00     0.001 A 
ATOM     22  C29 <0> d          -1.164   4.746  -1.858  0.00  0.00     0.017 A 
ENDROOT
BRANCH   1  23
ATOM     23  C11 <0> d          -1.936   0.380   2.189  0.00  0.00     0.241 C 
ATOM     24  N2  <0> d          -2.077  -0.826   2.775  0.00  0.00    -0.346 N 
ATOM     25  H24 <0> d          -1.757  -1.623   2.325  0.00  0.00     0.163 HD
ATOM     26  O2  <0> d          -2.336   1.378   2.751  0.00  0.00    -0.271 OA
BRANCH  24  27
ATOM     27  C5  <0> d          -2.714  -0.931   4.090  0.00  0.00     0.180 C 
BRANCH  27  28
ATOM     28  C3  <0> d          -4.232  -1.001   3.917  0.00  0.00     0.013 C 
ATOM     29  C4  <0> d          -4.587  -2.160   2.983  0.00  0.00     0.012 C 
BRANCH  28  30
ATOM     30  C2  <0> d          -4.738   0.312   3.315  0.00  0.00     0.002 C 
ATOM     31  C1  <0> d          -6.267   0.291   3.257  0.00  0.00     0.005 C 
ENDBRANCH  28  30
ENDBRANCH  27  28
BRANCH  27  32
ATOM     32  C6  <0> d          -2.230  -2.179   4.784  0.00  0.00     0.241 C 
ATOM     33  O1  <0> d          -1.740  -3.080   4.138  0.00  0.00    -0.271 OA
ATOM     34  N1  <0> d          -2.342  -2.292   6.122  0.00  0.00    -0.355 N 
ATOM     35  H15 <0> d          -2.666  -1.543   6.646  0.00  0.00     0.162 HD
BRANCH  34  36
ATOM     36  C7  <0> d          -1.973  -3.545   6.784  0.00  0.00     0.080 C 
ATOM     37  C8  <0> d          -3.161  -4.509   6.751  0.00  0.00     0.032 C 
BRANCH  36  38
ATOM     38  C9  <0> d          -1.588  -3.260   8.238  0.00  0.00     0.020 C 
ATOM     39  C10 <0> d          -0.325  -2.398   8.271  0.00  0.00     0.007 C 
ENDBRANCH  36  38
ENDBRANCH  34  36
ENDBRANCH  27  32
ENDBRANCH  24  27
ENDBRANCH   1  23
TORSDOF 7
