REMARK  5 active torsions:
REMARK  status: ('A' for Active; 'I' for Inactive)
REMARK    1  A    between atoms: C2_2  and  C3_3 
REMARK    2  A    between atoms: C2_2  and  N1_13 
REMARK    3  A    between atoms: C6_6  and  S1_9 
REMARK    4  A    between atoms: N1_13  and  C10_14 
REMARK    5  A    between atoms: C10_14  and  C11_15 
ROOT
ATOM      1  C10 <0> d           1.353   1.550  -0.003  0.00  0.00     0.314 C 
ENDROOT
BRANCH   1   2
ATOM      2  N1  <0> d           0.003   0.969  -0.019  0.00  0.00    -0.060 N 
ATOM      3  H12 <0> d          -0.501   1.222   0.925  0.00  0.00     0.278 HD
ATOM      4  H22 <0> d           0.091  -0.124  -0.107  0.00  0.00     0.278 HD
BRANCH   2   5
ATOM      5  C2  <0> d          -0.780   1.490  -1.147  0.00  0.00     0.215 C 
ATOM      6  C1  <0> d          -1.428   2.818  -0.749  0.00  0.00     0.045 C 
BRANCH   5   7
ATOM      7  C3  <0> d          -1.854   0.498  -1.514  0.00  0.00    -0.028 A 
ATOM      8  C8  <0> d          -2.151   0.261  -2.843  0.00  0.00     0.011 A 
ATOM      9  C7  <0> d          -3.135  -0.649  -3.180  0.00  0.00     0.024 A 
ATOM     10  C6  <0> d          -3.822  -1.322  -2.187  0.00  0.00     0.058 A 
ATOM     11  C5  <0> d          -3.525  -1.085  -0.858  0.00  0.00     0.024 A 
ATOM     12  C4  <0> d          -2.537  -0.179  -0.522  0.00  0.00     0.011 A 
BRANCH  10  13
ATOM     13  S1  <0> d          -5.077  -2.483  -2.616  0.00  0.00     0.171 S 
ATOM     14  O1  <0> d          -5.948  -2.507  -1.494  0.00  0.00    -0.223 OA
ATOM     15  O2  <0> d          -5.545  -2.057  -3.888  0.00  0.00    -0.223 OA
ATOM     16  C9  <0> d          -4.211  -4.070  -2.769  0.00  0.00     0.167 C 
ENDBRANCH  10  13
ENDBRANCH   5   7
ENDBRANCH   2   5
ENDBRANCH   1   2
BRANCH   1  17
ATOM     17  C11 <0> d           2.125   0.993   1.166  0.00  0.00     0.176 A 
ATOM     18  N4  <0> d           2.789  -0.199   1.204  0.00  0.00    -0.127 N 
ATOM     19  C12 <0> d           3.340  -0.285   2.450  0.00  0.00     0.736 A 
ATOM     20  C13 <0> d           2.967  -1.214   0.273  0.00  0.00     0.074 A 
ATOM     21  N3  <0> d           2.994   0.808   3.093  0.00  0.00     0.044 NA
ATOM     22  N5  <0> d           4.095  -1.378   2.831  0.00  0.00    -0.147 N 
ATOM     23  N2  <0> d           2.279   1.557   2.332  0.00  0.00    -0.117 NA
ATOM     24  C19 <0> d           4.303  -2.408   1.984  0.00  0.00     0.274 A 
ATOM     25  C20 <0> d           4.661  -1.429   4.181  0.00  0.00     0.179 C 
ATOM     26  C18 <0> d           3.724  -2.343   0.629  0.00  0.00     0.060 A 
ATOM     27  O3  <0> d           4.964  -3.369   2.328  0.00  0.00    -0.267 OA
ATOM     28  C17 <0> d           3.914  -3.372  -0.291  0.00  0.00     0.019 A 
ATOM     29  C16 <0> d           3.355  -3.274  -1.548  0.00  0.00     0.001 A 
ATOM     30  C15 <0> d           2.608  -2.160  -1.898  0.00  0.00     0.002 A 
ATOM     31  C14 <0> d           2.413  -1.134  -0.995  0.00  0.00     0.032 A 
ENDBRANCH   1  17
TORSDOF 5
