REMARK  2 active torsions:
REMARK  status: ('A' for Active; 'I' for Inactive)
REMARK    1  A    between atoms: C5_5  and  N1_8 
REMARK       I    between atoms: N1_8  and  C8_9 
REMARK    2  A    between atoms: C8_9  and  C9_11 
ROOT
ATOM      1  C9  <0> d           0.133  -6.425   1.303  0.00  0.00     0.122 C 
ATOM      2  C10 <0> d          -1.127  -7.061   0.657  0.00  0.00     0.128 C 
ATOM      3  C11 <0> d          -1.493  -8.135   1.677  0.00  0.00     0.260 C 
ATOM      4  O2  <0> d          -1.918  -9.245   1.457  0.00  0.00    -0.265 OA
ATOM      5  O3  <0> d          -1.237  -7.572   2.883  0.00  0.00    -0.309 OA
ATOM      6  C12 <0> d          -0.001  -6.844   2.780  0.00  0.00     0.088 C 
ATOM      7  C13 <0> d          -0.042  -5.602   3.669  0.00  0.00     0.066 C 
ATOM      8  C14 <0> d          -0.099  -6.036   5.137  0.00  0.00     0.171 C 
ATOM      9  O4  <0> d           1.023  -6.873   5.428  0.00  0.00    -0.381 OA
ATOM     10  C15 <0> d           1.067  -8.079   4.664  0.00  0.00     0.056 C 
ATOM     11  C16 <0> d           1.175  -7.734   3.175  0.00  0.00     0.076 C 
ATOM     12  C17 <0> d           2.284  -8.906   5.086  0.00  0.00     0.045 C 
ATOM     13  C18 <0> d          -0.209  -8.887   4.909  0.00  0.00     0.045 C 
ENDROOT
BRANCH   1  14
ATOM     14  C8  <0> d           0.106  -4.925   1.167  0.00  0.00     0.229 C 
ATOM     15  N1  <0> d           1.261  -4.231   1.122  0.00  0.00    -0.327 N 
ATOM     16  H9  <0> d           2.109  -4.702   1.118  0.00  0.00     0.169 HD
ATOM     17  O1  <0> d          -0.955  -4.341   1.097  0.00  0.00    -0.273 OA
BRANCH  15  18
ATOM     18  C5  <0> d           1.236  -2.833   1.081  0.00  0.00     0.034 A 
ATOM     19  C4  <0> d           0.228  -2.175   0.389  0.00  0.00     0.030 A 
ATOM     20  C3  <0> d           0.206  -0.794   0.351  0.00  0.00     0.009 A 
ATOM     21  C2  <0> d           1.186  -0.068   1.001  0.00  0.00    -0.062 A 
ATOM     22  C1  <0> d           1.160   1.438   0.958  0.00  0.00     0.048 C 
ATOM     23  C7  <0> d           2.195  -0.720   1.686  0.00  0.00     0.009 A 
ATOM     24  C6  <0> d           2.220  -2.100   1.732  0.00  0.00     0.030 A 
ENDBRANCH  15  18
ENDBRANCH   1  14
TORSDOF 2
