REMARK  6 active torsions:
REMARK  status: ('A' for Active; 'I' for Inactive)
REMARK    1  A    between atoms: C2_2  and  C3_3 
REMARK    2  A    between atoms: C2_2  and  N1_5 
REMARK    3  A    between atoms: C3_3  and  O1_4 
REMARK    4  A    between atoms: N1_5  and  S1_6 
REMARK    5  A    between atoms: S1_6  and  C4_9 
REMARK    6  A    between atoms: C4_9  and  C5_10 
ROOT
ATOM      1  S1  <0> d          -0.188  -0.875  -2.551  0.00  0.00     0.229 S 
ATOM      2  O2  <0> d           0.781  -1.306  -3.498  0.00  0.00    -0.206 OA
ATOM      3  O3  <0> d          -1.190  -1.767  -2.083  0.00  0.00    -0.206 OA
ENDROOT
BRANCH   1   4
ATOM      4  N1  <0> d           0.688  -0.476  -1.203  0.00  0.00    -0.313 N 
ATOM      5  H9  <0> d           1.655  -0.556  -1.212  0.00  0.00     0.172 HD
BRANCH   4   6
ATOM      6  C2  <0> d           0.002  -0.004   0.002  0.00  0.00     0.112 C 
ATOM      7  C1  <0> d          -0.019   1.526   0.010  0.00  0.00     0.035 C 
BRANCH   6   8
ATOM      8  C3  <0> d           0.742  -0.511   1.242  0.00  0.00     0.189 C 
BRANCH   8   9
ATOM      9  O1  <0> d           2.044   0.076   1.292  0.00  0.00    -0.399 OA
ATOM     10  H8  <0> d           2.571  -0.201   2.054  0.00  0.00     0.209 HD
ENDBRANCH   8   9
ENDBRANCH   6   8
ENDBRANCH   4   6
ENDBRANCH   1   4
BRANCH   1  11
ATOM     11  C4  <0> d          -0.942   0.683  -3.095  0.00  0.00     0.194 C 
BRANCH  11  12
ATOM     12  C5  <0> d          -1.783   0.432  -4.348  0.00  0.00     0.137 C 
ATOM     13  O4  <0> d          -2.905  -0.397  -4.022  0.00  0.00    -0.385 OA
ATOM     14  C8  <0> d          -4.129   0.318  -4.269  0.00  0.00     0.168 C 
ATOM     15  C7  <0> d          -3.767   1.384  -5.334  0.00  0.00     0.029 C 
ATOM     16  C6  <0> d          -2.331   1.771  -4.887  0.00  0.00     0.035 C 
ENDBRANCH  11  12
ENDBRANCH   1  11
TORSDOF 6
