REMARK  5 active torsions:
REMARK  status: ('A' for Active; 'I' for Inactive)
REMARK    1  A    between atoms: C2_2  and  C3_3 
REMARK    2  A    between atoms: C3_3  and  C4_4 
REMARK    3  A    between atoms: N1_7  and  C7_9 
REMARK    4  A    between atoms: C13_16  and  N5_32 
REMARK    5  A    between atoms: N3_25  and  C23_28 
ROOT
ATOM      1  C4  <0> d           2.773   4.374  -2.689  0.00  0.00     0.068 A 
ATOM      2  C5  <0> d           3.116   4.094  -1.373  0.00  0.00     0.050 A 
ATOM      3  C6  <0> d           4.429   3.707  -1.351  0.00  0.00     0.183 A 
ATOM      4  N1  <0> d           4.885   3.746  -2.621  0.00  0.00    -0.210 N 
ATOM      5  N2  <0> d           3.828   4.168  -3.442  0.00  0.00    -0.169 NA
ATOM      6  O1  <0> d           5.071   3.365  -0.206  0.00  0.00    -0.274 OA
ATOM      7  C13 <0> d           4.476   3.667   0.965  0.00  0.00     0.162 C 
ATOM      8  C14 <0> d           3.181   4.049   1.073  0.00  0.00     0.100 C 
ATOM      9  C15 <0> d           2.282   4.170  -0.126  0.00  0.00     0.145 A 
ATOM     10  C16 <0> d           1.219   3.119  -0.114  0.00  0.00    -0.003 A 
ATOM     11  C17 <0> d           1.291   1.743  -0.140  0.00  0.00     0.011 A 
ATOM     12  C18 <0> d           0.088   1.047  -0.115  0.00  0.00     0.001 A 
ATOM     13  C19 <0> d          -1.124   1.707  -0.074  0.00  0.00     0.002 A 
ATOM     14  C20 <0> d          -1.205   3.090  -0.044  0.00  0.00     0.030 A 
ATOM     15  C21 <0> d          -0.004   3.801  -0.067  0.00  0.00     0.045 A 
ATOM     16  N3  <0> d           0.208   5.168  -0.050  0.00  0.00    -0.316 N 
ATOM     17  C22 <0> d           1.522   5.477  -0.081  0.00  0.00     0.248 A 
ATOM     18  O2  <0> d           2.002   6.591  -0.074  0.00  0.00    -0.271 OA
ATOM     19  C25 <0> d           2.653   4.348   2.370  0.00  0.00     0.101 C 
ATOM     20  N4  <0> d           2.233   4.585   3.399  0.00  0.00    -0.191 NA
ENDROOT
BRANCH   7  21
ATOM     21  N5  <0> d           5.223   3.580   2.113  0.00  0.00    -0.379 N 
ATOM     22  H22 <0> d           6.153   3.308   2.067  0.00  0.00     0.158 HD
ATOM     23  H23 <0> d           4.822   3.790   2.971  0.00  0.00     0.158 HD
ENDBRANCH   7  21
BRANCH   1  24
ATOM     24  C3  <0> d           1.421   4.835  -3.170  0.00  0.00     0.061 C 
BRANCH  24  25
ATOM     25  C2  <0> d           0.613   3.629  -3.651  0.00  0.00     0.002 C 
ATOM     26  C1  <0> d          -0.704   4.109  -4.264  0.00  0.00     0.005 C 
ENDBRANCH  24  25
ENDBRANCH   1  24
BRANCH  16  27
ATOM     27  C23 <0> d          -0.866   6.163  -0.004  0.00  0.00     0.128 C 
ATOM     28  C24 <0> d          -1.194   6.626  -1.425  0.00  0.00     0.027 C 
ENDBRANCH  16  27
BRANCH   4  29
ATOM     29  C7  <0> d           6.182   3.424  -3.044  0.00  0.00     0.061 A 
ATOM     30  C12 <0> d           6.381   2.809  -4.273  0.00  0.00     0.031 A 
ATOM     31  C11 <0> d           7.660   2.493  -4.687  0.00  0.00     0.002 A 
ATOM     32  C10 <0> d           8.742   2.789  -3.879  0.00  0.00     0.000 A 
ATOM     33  C9  <0> d           8.548   3.401  -2.655  0.00  0.00     0.002 A 
ATOM     34  C8  <0> d           7.272   3.725  -2.238  0.00  0.00     0.031 A 
ENDBRANCH   4  29
TORSDOF 5
