REMARK  8 active torsions:
REMARK  status: ('A' for Active; 'I' for Inactive)
REMARK    1  A    between atoms: C2_2  and  C5_5 
REMARK    2  A    between atoms: C5_5  and  C6_6 
REMARK    3  A    between atoms: C5_5  and  N3_12 
REMARK    4  A    between atoms: C6_6  and  N1_7 
REMARK    5  A    between atoms: N3_12  and  C10_13 
REMARK    6  A    between atoms: C10_13  and  C11_14 
REMARK    7  A    between atoms: C15_18  and  O2_21 
REMARK    8  A    between atoms: C16_19  and  O1_20 
ROOT
ATOM      1  N3  <0> d          -0.273  -0.845  -2.062  0.00  0.00    -0.065 N 
ATOM      2  H16 <0> d           0.052  -1.738  -1.724  0.00  0.00     0.278 HD
ATOM      3  H24 <0> d          -1.219  -0.690  -1.746  0.00  0.00     0.278 HD
ENDROOT
BRANCH   1   4
ATOM      4  C5  <0> d           0.596   0.221  -1.544  0.00  0.00     0.211 C 
BRANCH   4   5
ATOM      5  C2  <0> d           0.199   0.548  -0.104  0.00  0.00    -0.021 C 
ATOM      6  C1  <0> d           1.171   1.582   0.470  0.00  0.00     0.016 C 
ATOM      7  C3  <0> d           0.251  -0.726   0.742  0.00  0.00     0.016 C 
ATOM      8  C4  <0> d          -1.221   1.117  -0.083  0.00  0.00     0.016 C 
ENDBRANCH   4   5
BRANCH   4   9
ATOM      9  C6  <0> d           2.052  -0.248  -1.578  0.00  0.00     0.162 C 
BRANCH   9  10
ATOM     10  N1  <0> d           2.481  -0.411  -2.970  0.00  0.00    -0.350 N 
ATOM     11  C9  <0> d           2.724   0.580  -3.854  0.00  0.00     0.182 A 
ATOM     12  N2  <0> d           3.087   0.048  -4.989  0.00  0.00    -0.361 N 
ATOM     13  C8  <0> d           3.080  -1.288  -4.874  0.00  0.00     0.106 A 
ATOM     14  H25 <0> d           3.320   0.541  -5.791  0.00  0.00     0.166 HD
ATOM     15  C7  <0> d           2.704  -1.595  -3.618  0.00  0.00     0.108 A 
ENDBRANCH   9  10
ENDBRANCH   4   9
ENDBRANCH   1   4
BRANCH   1  16
ATOM     16  C10 <0> d          -0.239  -0.835  -3.530  0.00  0.00     0.274 C 
BRANCH  16  17
ATOM     17  C11 <0> d          -1.028  -2.005  -4.059  0.00  0.00     0.003 A 
ATOM     18  C16 <0> d          -2.410  -1.936  -4.125  0.00  0.00     0.106 A 
ATOM     19  C15 <0> d          -3.135  -3.016  -4.619  0.00  0.00     0.099 A 
ATOM     20  C14 <0> d          -2.472  -4.160  -5.032  0.00  0.00     0.039 A 
ATOM     21  C13 <0> d          -1.093  -4.225  -4.958  0.00  0.00     0.003 A 
ATOM     22  C12 <0> d          -0.373  -3.150  -4.473  0.00  0.00     0.012 A 
BRANCH  18  23
ATOM     23  O1  <0> d          -3.056  -0.812  -3.713  0.00  0.00    -0.357 OA
ATOM     24  H22 <0> d          -3.188  -0.156  -4.411  0.00  0.00     0.217 HD
ENDBRANCH  18  23
BRANCH  19  25
ATOM     25  O2  <0> d          -4.491  -2.951  -4.692  0.00  0.00    -0.358 OA
ATOM     26  H23 <0> d          -4.943  -3.261  -3.896  0.00  0.00     0.217 HD
ENDBRANCH  19  25
ENDBRANCH  16  17
ENDBRANCH   1  16
TORSDOF 8
