REMARK  5 active torsions:
REMARK  status: ('A' for Active; 'I' for Inactive)
REMARK    1  A    between atoms: C2_2  and  N1_3 
REMARK    2  A    between atoms: N2_6  and  C7_9 
REMARK    3  A    between atoms: C10_12  and  N3_16 
REMARK       I    between atoms: N3_16  and  C14_17 
REMARK       I    between atoms: C14_17  and  N4_19 
REMARK    4  A    between atoms: N4_19  and  C15_20 
REMARK    5  A    between atoms: C15_20  and  C17_22 
ROOT
ATOM      1  C7  <0> d           3.738  -2.731   2.945  0.00  0.00     0.030 A 
ATOM      2  C8  <0> d           5.034  -2.232   2.934  0.00  0.00     0.031 A 
ATOM      3  C9  <0> d           6.100  -3.074   3.176  0.00  0.00     0.032 A 
ATOM      4  C10 <0> d           5.877  -4.421   3.429  0.00  0.00     0.042 A 
ATOM      5  C11 <0> d           4.582  -4.920   3.440  0.00  0.00    -0.033 A 
ATOM      6  C12 <0> d           3.514  -4.076   3.204  0.00  0.00     0.038 A 
ATOM      7  C13 <0> d           4.340  -6.382   3.715  0.00  0.00     0.050 C 
ENDROOT
BRANCH   4   8
ATOM      8  N3  <0> d           6.960  -5.277   3.674  0.00  0.00    -0.308 N 
ATOM      9  C14 <0> d           8.179  -4.979   3.183  0.00  0.00     0.321 C 
ATOM     10  O1  <0> d           8.356  -3.933   2.589  0.00  0.00    -0.247 OA
ATOM     11  N4  <0> d           9.202  -5.840   3.351  0.00  0.00    -0.333 N 
ATOM     12  H22 <0> d           9.061  -6.674   3.825  0.00  0.00     0.165 HD
ATOM     13  H21 <0> d           6.832  -6.084   4.197  0.00  0.00     0.170 HD
BRANCH  11  14
ATOM     14  C15 <0> d          10.528  -5.516   2.817  0.00  0.00     0.134 C 
ATOM     15  C16 <0> d          11.285  -4.648   3.824  0.00  0.00     0.039 C 
BRANCH  14  16
ATOM     16  C17 <0> d          11.296  -6.789   2.573  0.00  0.00     0.056 A 
ATOM     17  N5  <0> d          10.995  -7.873   3.260  0.00  0.00    -0.263 NA
ATOM     18  C21 <0> d          11.637  -9.011   3.076  0.00  0.00     0.117 A 
ATOM     19  C20 <0> d          12.664  -9.103   2.156  0.00  0.00     0.019 A 
ATOM     20  C19 <0> d          13.012  -7.981   1.418  0.00  0.00     0.003 A 
ATOM     21  C18 <0> d          12.311  -6.805   1.635  0.00  0.00     0.029 A 
ENDBRANCH  14  16
ENDBRANCH  11  14
ENDBRANCH   4   8
BRANCH   1  22
ATOM     22  N2  <0> d           2.657  -1.877   2.700  0.00  0.00    -0.378 N 
ATOM     23  C4  <0> d           2.859  -0.428   2.538  0.00  0.00     0.150 C 
ATOM     24  C3  <0> d           2.153   0.020   1.254  0.00  0.00     0.254 C 
ATOM     25  N1  <0> d           0.745  -0.394   1.300  0.00  0.00    -0.068 N 
ATOM     26  C6  <0> d           0.655  -1.860   1.308  0.00  0.00     0.254 C 
ATOM     27  H30 <0> d           0.316  -0.027   2.136  0.00  0.00     0.280 HD
ATOM     28  C5  <0> d           1.287  -2.402   2.595  0.00  0.00     0.150 C 
BRANCH  25  29
ATOM     29  C2  <0> d           0.044   0.130   0.120  0.00  0.00     0.230 C 
ATOM     30  C1  <0> d           0.029   1.659   0.174  0.00  0.00     0.034 C 
ENDBRANCH  25  29
ENDBRANCH   1  22
TORSDOF 5
