REMARK  2 active torsions:
REMARK  status: ('A' for Active; 'I' for Inactive)
REMARK    1  A    between atoms: C2_2  and  O1_3 
REMARK    2  A    between atoms: O1_3  and  C3_4 
ROOT
ATOM      1  C3  <0> d          -1.335  -1.926  -0.054  0.00  0.00     0.160 C 
ATOM      2  C4  <0> d          -2.613  -2.469   0.590  0.00  0.00     0.075 C 
ATOM      3  C5  <0> d          -2.729  -3.959   0.251  0.00  0.00     0.073 C 
ATOM      4  C6  <0> d          -3.944  -4.552   0.968  0.00  0.00     0.066 C 
ATOM      5  C7  <0> d          -4.009  -6.056   0.694  0.00  0.00     0.235 C 
ATOM      6  N1  <0> d          -2.784  -6.699   1.185  0.00  0.00    -0.075 N 
ATOM      7  C8  <0> d          -1.623  -6.188   0.446  0.00  0.00     0.235 C 
ATOM      8  C9  <0> d          -1.465  -4.689   0.708  0.00  0.00     0.066 C 
ATOM      9  O2  <0> d          -2.886  -4.098  -1.160  0.00  0.00    -0.339 OA
ATOM     10  C10 <0> d          -2.035  -3.413  -1.968  0.00  0.00     0.079 A 
ATOM     11  C11 <0> d          -1.270  -2.361  -1.496  0.00  0.00     0.004 A 
ATOM     12  C12 <0> d          -0.421  -1.687  -2.358  0.00  0.00     0.013 A 
ATOM     13  C13 <0> d          -0.334  -2.061  -3.685  0.00  0.00     0.007 A 
ATOM     14  C14 <0> d          -1.096  -3.114  -4.158  0.00  0.00    -0.059 A 
ATOM     15  C15 <0> d          -1.942  -3.789  -3.304  0.00  0.00     0.044 A 
ATOM     16  C16 <0> d          -1.000  -3.524  -5.604  0.00  0.00     0.048 C 
ATOM     17  H13 <0> d          -2.671  -6.498   2.168  0.00  0.00     0.277 HD
ATOM     18  H24 <0> d          -2.853  -7.697   1.054  0.00  0.00     0.277 HD
ENDROOT
BRANCH   1  19
ATOM     19  O1  <0> d          -1.339  -0.499   0.012  0.00  0.00    -0.381 OA
BRANCH  19  20
ATOM     20  C2  <0> d          -0.817   0.028   1.234  0.00  0.00     0.164 C 
ATOM     21  C1  <0> d          -0.770   1.555   1.152  0.00  0.00     0.033 C 
ENDBRANCH  19  20
ENDBRANCH   1  19
TORSDOF 2
