REMARK  8 active torsions:
REMARK  status: ('A' for Active; 'I' for Inactive)
REMARK    1  A    between atoms: C6_6  and  C9_9 
REMARK    2  A    between atoms: C9_9  and  N1_10 
REMARK       I    between atoms: N1_10  and  C10_11 
REMARK    3  A    between atoms: C10_11  and  C11_13 
REMARK    4  A    between atoms: C13_16  and  C14_18 
REMARK    5  A    between atoms: C14_18  and  C15_19 
REMARK    6  A    between atoms: C14_18  and  N3_27 
REMARK    7  A    between atoms: C15_19  and  C16_20 
REMARK    8  A    between atoms: C19_23  and  O3_26 
ROOT
ATOM      1  C11 <0> d           5.604   1.408   4.626  0.00  0.00     0.149 A 
ATOM      2  C12 <0> d           6.408   1.312   5.720  0.00  0.00     0.181 A 
ATOM      3  O2  <0> d           7.277   2.333   5.658  0.00  0.00    -0.303 OA
ATOM      4  C13 <0> d           7.013   3.042   4.551  0.00  0.00     0.176 A 
ATOM      5  N2  <0> d           6.017   2.496   3.920  0.00  0.00    -0.219 NA
ENDROOT
BRANCH   1   6
ATOM      6  C10 <0> d           4.498   0.501   4.268  0.00  0.00     0.272 C 
ATOM      7  N1  <0> d           3.787   0.716   3.144  0.00  0.00    -0.355 N 
ATOM      8  H16 <0> d           4.002   1.467   2.570  0.00  0.00     0.162 HD
ATOM      9  O1  <0> d           4.228  -0.441   4.988  0.00  0.00    -0.266 OA
BRANCH   7  10
ATOM     10  C9  <0> d           2.688  -0.186   2.789  0.00  0.00     0.128 C 
BRANCH  10  11
ATOM     11  C6  <0> d           2.051   0.278   1.478  0.00  0.00     0.008 C 
ATOM     12  C5  <0> d           3.066   0.147   0.333  0.00  0.00     0.007 C 
ATOM     13  C4  <0> d           2.319   0.281  -1.002  0.00  0.00     0.006 C 
ATOM     14  C3  <0> d           1.063  -0.607  -0.938  0.00  0.00    -0.006 C 
ATOM     15  C2  <0> d           0.002  -0.004   0.002  0.00  0.00    -0.040 C 
ATOM     16  C8  <0> d           1.211  -1.715   0.125  0.00  0.00     0.011 C 
ATOM     17  C1  <0> d          -0.019   1.526   0.010  0.00  0.00     0.015 C 
ATOM     18  C7  <0> d           0.830  -0.622   1.145  0.00  0.00    -0.000 C 
ATOM     19  C22 <0> d          -1.389  -0.620  -0.156  0.00  0.00     0.015 C 
ENDBRANCH  10  11
ENDBRANCH   7  10
ENDBRANCH   1   6
BRANCH   4  20
ATOM     20  C14 <0> d           7.758   4.274   4.106  0.00  0.00     0.264 C 
BRANCH  20  21
ATOM     21  C15 <0> d           9.118   3.869   3.533  0.00  0.00     0.080 C 
BRANCH  21  22
ATOM     22  C16 <0> d           9.811   5.085   2.976  0.00  0.00    -0.056 A 
ATOM     23  C21 <0> d          10.637   5.841   3.788  0.00  0.00     0.010 A 
ATOM     24  C20 <0> d          11.278   6.954   3.278  0.00  0.00     0.037 A 
ATOM     25  C19 <0> d          11.085   7.318   1.954  0.00  0.00     0.065 A 
ATOM     26  C18 <0> d          10.251   6.561   1.143  0.00  0.00     0.037 A 
ATOM     27  C17 <0> d           9.616   5.447   1.656  0.00  0.00     0.010 A 
BRANCH  25  28
ATOM     28  O3  <0> d          11.710   8.415   1.451  0.00  0.00    -0.361 OA
ATOM     29  H24 <0> d          11.204   9.234   1.544  0.00  0.00     0.217 HD
ENDBRANCH  25  28
ENDBRANCH  21  22
ENDBRANCH  20  21
BRANCH  20  30
ATOM     30  N3  <0> d           7.957   5.168   5.254  0.00  0.00    -0.067 N 
ATOM     31  H25 <0> d           8.492   4.690   5.964  0.00  0.00     0.275 HD
ATOM     32  H26 <0> d           8.456   5.993   4.956  0.00  0.00     0.275 HD
ATOM     33  H30 <0> d           7.060   5.435   5.632  0.00  0.00     0.275 HD
ENDBRANCH  20  30
ENDBRANCH   4  20
TORSDOF 8
