REMARK  2 active torsions:
REMARK  status: ('A' for Active; 'I' for Inactive)
REMARK    1  A    between atoms: C2_2  and  C3_3 
REMARK    2  A    between atoms: C7_8  and  O1_9 
ROOT
ATOM      1  C3  <0> d           0.718  -0.497  -1.257  0.00  0.00     0.037 C 
ATOM      2  C4  <0> d           2.160   0.021  -1.277  0.00  0.00     0.253 C 
ATOM      3  N1  <0> d           2.830  -0.434  -2.501  0.00  0.00    -0.019 N 
ATOM      4  C5  <0> d           2.901  -1.899  -2.522  0.00  0.00     0.252 C 
ATOM      5  C6  <0> d           1.484  -2.483  -2.544  0.00  0.00     0.033 C 
ATOM      6  C7  <0> d           0.746  -2.031  -1.278  0.00  0.00     0.141 C 
ATOM      7  C8  <0> d           0.743  -1.933  -3.768  0.00  0.00     0.290 C 
ATOM      8  N2  <0> d           0.739  -0.463  -3.700  0.00  0.00     0.142 N 
ATOM      9  C9  <0> d          -0.019  -0.004  -2.507  0.00  0.00     0.290 C 
ATOM     10  C10 <0> d           2.111   0.056  -3.678  0.00  0.00     0.430 A 
ATOM     11  C11 <0> d           2.114   1.552  -3.723  0.00  0.00     0.046 A 
ATOM     12  C12 <0> d           1.603   2.492  -2.854  0.00  0.00     0.014 A 
ATOM     13  C13 <0> d           1.778   3.829  -3.196  0.00  0.00     0.001 A 
ATOM     14  C14 <0> d           2.433   4.194  -4.355  0.00  0.00     0.002 A 
ATOM     15  C15 <0> d           2.949   3.254  -5.233  0.00  0.00     0.030 A 
ATOM     16  C16 <0> d           2.781   1.909  -4.901  0.00  0.00     0.046 A 
ATOM     17  N3  <0> d           3.188   0.777  -5.584  0.00  0.00    -0.322 N 
ATOM     18  C17 <0> d           2.838  -0.356  -4.940  0.00  0.00     0.295 A 
ATOM     19  O2  <0> d           3.063  -1.491  -5.305  0.00  0.00    -0.268 OA
ATOM     20  C18 <0> d           1.549  -4.011  -2.597  0.00  0.00     0.021 C 
ATOM     21  H20 <0> d           3.669   0.795  -6.426  0.00  0.00     0.169 HD
ATOM     22  H24 <0> d           3.770  -0.068  -2.515  0.00  0.00     0.284 HD
ENDROOT
BRANCH   1  23
ATOM     23  C2  <0> d           0.002  -0.004   0.002  0.00  0.00     0.011 C 
ATOM     24  C1  <0> d          -0.019   1.526   0.010  0.00  0.00     0.006 C 
ENDBRANCH   1  23
BRANCH   6  25
ATOM     25  O1  <0> d           1.445  -2.516  -0.129  0.00  0.00    -0.394 OA
ATOM     26  H11 <0> d           1.500  -3.480  -0.080  0.00  0.00     0.210 HD
ENDBRANCH   6  25
TORSDOF 2
