REMARK  5 active torsions:
REMARK  status: ('A' for Active; 'I' for Inactive)
REMARK    1  A    between atoms: C3_4  and  O3_18 
REMARK    2  A    between atoms: C6_8  and  C7_9 
REMARK       I    between atoms: C7_9  and  N2_11 
REMARK    3  A    between atoms: N2_11  and  C8_12 
REMARK    4  A    between atoms: O3_18  and  C12_19 
REMARK    5  A    between atoms: C12_19  and  C13_20 
ROOT
ATOM      1  C1  <0> d          -0.495   1.413   0.081  0.00  0.00     0.156 C 
ATOM      2  N1  <0> d          -0.230  -0.028   0.036  0.00  0.00    -0.354 N 
ATOM      3  C2  <0> d          -0.337  -0.685  -1.143  0.00  0.00     0.131 A 
ATOM      4  C3  <0> d          -0.098  -2.020  -1.219  0.00  0.00     0.134 A 
ATOM      5  C4  <0> d           0.269  -2.728  -0.048  0.00  0.00     0.208 A 
ATOM      6  O1  <0> d           0.490  -3.929  -0.090  0.00  0.00    -0.285 OA
ATOM      7  C5  <0> d           0.374  -2.016   1.171  0.00  0.00     0.093 A 
ATOM      8  C6  <0> d           0.126  -0.677   1.183  0.00  0.00     0.106 A 
ENDROOT
BRANCH   8   9
ATOM      9  C7  <0> d           0.238   0.080   2.450  0.00  0.00     0.273 C 
ATOM     10  O2  <0> d           0.133   1.291   2.446  0.00  0.00    -0.266 OA
ATOM     11  N2  <0> d           0.457  -0.574   3.608  0.00  0.00    -0.319 N 
ATOM     12  H6  <0> d           0.541  -1.540   3.611  0.00  0.00     0.169 HD
BRANCH  11  13
ATOM     13  C8  <0> d           0.563   0.145   4.812  0.00  0.00     0.071 A 
ATOM     14  C10 <0> d           0.781  -0.385   6.043  0.00  0.00     0.142 A 
ATOM     15  N4  <0> d           0.820   0.643   6.930  0.00  0.00    -0.283 N 
ATOM     16  N3  <0> d           0.610   1.832   6.221  0.00  0.00    -0.183 NA
ATOM     17  C11 <0> d           1.037   0.527   8.374  0.00  0.00     0.179 C 
ATOM     18  C9  <0> d           0.456   1.536   4.956  0.00  0.00     0.169 A 
ENDBRANCH  11  13
ENDBRANCH   8   9
BRANCH   4  19
ATOM     19  O3  <0> d          -0.209  -2.671  -2.408  0.00  0.00    -0.341 OA
BRANCH  19  20
ATOM     20  C12 <0> d          -0.584  -1.889  -3.543  0.00  0.00     0.216 C 
BRANCH  20  21
ATOM     21  C13 <0> d          -0.657  -2.773  -4.761  0.00  0.00    -0.012 A 
ATOM     22  C18 <0> d          -1.002  -2.235  -5.987  0.00  0.00     0.042 A 
ATOM     23  C17 <0> d          -1.063  -3.047  -7.106  0.00  0.00     0.024 A 
ATOM     24 Cl1  <0> d          -1.352  -0.540  -6.124  0.00  0.00    -0.084 Cl
ATOM     25  C16 <0> d          -0.790  -4.397  -6.995  0.00  0.00     0.002 A 
ATOM     26  C15 <0> d          -0.450  -4.936  -5.768  0.00  0.00     0.001 A 
ATOM     27  C14 <0> d          -0.384  -4.124  -4.652  0.00  0.00     0.011 A 
ENDBRANCH  20  21
ENDBRANCH  19  20
ENDBRANCH   4  19
TORSDOF 5
