REMARK  5 active torsions:
REMARK  status: ('A' for Active; 'I' for Inactive)
REMARK    1  A    between atoms: C2_2  and  O1_3 
REMARK    2  A    between atoms: O1_3  and  C3_4 
REMARK    3  A    between atoms: C6_7  and  C10_12 
REMARK    4  A    between atoms: C8_9  and  O2_10 
REMARK    5  A    between atoms: C14_16  and  C17_20 
ROOT
ATOM      1  C10 <0> d          -1.281   1.660   0.017  0.00  0.00     0.154 C 
ATOM      2  C11 <0> d          -1.665   2.443   1.256  0.00  0.00     0.037 C 
ATOM      3  C12 <0> d          -0.837   2.800   2.252  0.00  0.00     0.022 C 
ATOM      4  C13 <0> d          -1.353   3.623   3.422  0.00  0.00     0.068 C 
ATOM      5  C14 <0> d          -2.806   3.252   3.716  0.00  0.00     0.038 C 
ATOM      6  C15 <0> d          -3.628   3.552   2.457  0.00  0.00     0.094 C 
ATOM      7  C16 <0> d          -3.034   2.797   1.306  0.00  0.00     0.160 C 
ATOM      8  O3  <0> d          -3.755   2.478   0.381  0.00  0.00    -0.293 OA
ATOM      9  N1  <0> d           0.483   2.493   2.313  0.00  0.00    -0.357 N 
ATOM     10  C21 <0> d           1.381   2.642   1.261  0.00  0.00     0.059 A 
ATOM     11  C22 <0> d           2.472   3.490   1.336  0.00  0.00     0.032 A 
ATOM     12  C23 <0> d           3.388   3.510   0.298  0.00  0.00     0.002 A 
ATOM     13  C24 <0> d           3.212   2.692  -0.803  0.00  0.00     0.002 A 
ATOM     14  C25 <0> d           2.110   1.859  -0.889  0.00  0.00     0.031 A 
ATOM     15  C26 <0> d           1.183   1.848   0.141  0.00  0.00     0.055 A 
ATOM     16  N2  <0> d           0.035   1.061   0.079  0.00  0.00    -0.375 N 
ATOM     17  H21 <0> d           0.913   2.095   3.244  0.00  0.00     0.166 HD
ATOM     18  H26 <0> d           0.141  -0.034   0.078  0.00  0.00     0.160 HD
ENDROOT
BRANCH   1  19
ATOM     19  C6  <0> d          -1.329   2.585  -1.171  0.00  0.00    -0.028 A 
ATOM     20  C5  <0> d          -0.450   3.649  -1.254  0.00  0.00     0.012 A 
ATOM     21  C4  <0> d          -0.491   4.501  -2.342  0.00  0.00     0.040 A 
ATOM     22  C3  <0> d          -1.413   4.288  -3.354  0.00  0.00     0.102 A 
ATOM     23  C8  <0> d          -2.298   3.217  -3.272  0.00  0.00     0.102 A 
ATOM     24  C7  <0> d          -2.249   2.365  -2.180  0.00  0.00     0.049 A 
BRANCH  22  25
ATOM     25  O1  <0> d          -1.454   5.125  -4.426  0.00  0.00    -0.349 OA
BRANCH  25  26
ATOM     26  C2  <0> d          -0.516   6.203  -4.443  0.00  0.00     0.171 C 
ATOM     27  C1  <0> d          -0.712   7.029  -5.716  0.00  0.00     0.034 C 
ENDBRANCH  25  26
ENDBRANCH  22  25
BRANCH  23  28
ATOM     28  O2  <0> d          -3.205   3.005  -4.262  0.00  0.00    -0.353 OA
ATOM     29  C9  <0> d          -4.081   1.886  -4.110  0.00  0.00     0.210 C 
ENDBRANCH  23  28
ENDBRANCH   1  19
BRANCH   5  30
ATOM     30  C17 <0> d          -3.319   4.075   4.869  0.00  0.00    -0.013 A 
ATOM     31  S1  <0> d          -3.450   5.850   5.013  0.00  0.00    -0.106 SA
ATOM     32  C20 <0> d          -4.140   5.918   6.658  0.00  0.00     0.050 A 
ATOM     33  C19 <0> d          -4.217   4.605   6.985  0.00  0.00     0.008 A 
ATOM     34  C18 <0> d          -3.796   3.660   6.068  0.00  0.00     0.015 A 
ENDBRANCH   5  30
TORSDOF 5
