REMARK  4 active torsions:
REMARK  status: ('A' for Active; 'I' for Inactive)
REMARK    1  A    between atoms: C2_2  and  C10_13 
REMARK    2  A    between atoms: N3_5  and  C3_6 
REMARK    3  A    between atoms: C3_6  and  C4_7 
REMARK       I    between atoms: C10_13  and  N4_15 
REMARK    4  A    between atoms: N4_15  and  C11_16 
ROOT
ATOM      1  C1  <0> d          -6.220   2.282   1.147  0.00  0.00     0.153 A 
ATOM      2  C2  <0> d          -6.529   2.618   2.435  0.00  0.00     0.165 A 
ATOM      3  N1  <0> d          -5.563   2.146   3.241  0.00  0.00    -0.125 NA
ATOM      4  N2  <0> d          -4.676   1.534   2.537  0.00  0.00    -0.066 NA
ATOM      5  N3  <0> d          -5.061   1.595   1.190  0.00  0.00    -0.260 N 
ENDROOT
BRANCH   2   6
ATOM      6  C10 <0> d          -7.720   3.375   2.866  0.00  0.00     0.274 C 
ATOM      7  O1  <0> d          -8.531   3.753   2.043  0.00  0.00    -0.266 OA
ATOM      8  N4  <0> d          -7.907   3.648   4.173  0.00  0.00    -0.342 N 
ATOM      9  H16 <0> d          -7.260   3.346   4.829  0.00  0.00     0.163 HD
BRANCH   8  10
ATOM     10  C11 <0> d          -9.089   4.400   4.601  0.00  0.00     0.186 C 
ATOM     11  C14 <0> d          -8.825   5.888   4.522  0.00  0.00     0.281 C 
ATOM     12  O2  <0> d          -8.987   6.443   5.731  0.00  0.00    -0.320 OA
ATOM     13  O3  <0> d          -8.513   6.485   3.519  0.00  0.00    -0.263 OA
ATOM     14  C13 <0> d          -8.870   5.422   6.766  0.00  0.00     0.181 C 
ATOM     15  C12 <0> d          -9.386   4.130   6.093  0.00  0.00     0.062 C 
ENDBRANCH   8  10
ENDBRANCH   2   6
BRANCH   5  16
ATOM     16  C3  <0> d          -4.340   1.027   0.049  0.00  0.00     0.156 C 
BRANCH  16  17
ATOM     17  C4  <0> d          -2.904   1.556   0.038  0.00  0.00     0.005 C 
ATOM     18  C9  <0> d          -2.164   1.050   1.278  0.00  0.00     0.006 C 
ATOM     19  C8  <0> d          -0.729   1.579   1.267  0.00  0.00     0.000 C 
ATOM     20  C7  <0> d          -0.013   1.086   0.008  0.00  0.00     0.000 C 
ATOM     21  C6  <0> d          -0.753   1.593  -1.232  0.00  0.00     0.000 C 
ATOM     22  C5  <0> d          -2.188   1.063  -1.221  0.00  0.00     0.006 C 
ENDBRANCH  16  17
ENDBRANCH   5  16
TORSDOF 4
