REMARK  6 active torsions:
REMARK  status: ('A' for Active; 'I' for Inactive)
REMARK    1  A    between atoms: C2_2  and  N1_3 
REMARK    2  A    between atoms: C4_5  and  S1_9 
REMARK    3  A    between atoms: C5_6  and  N3_8 
REMARK    4  A    between atoms: S1_9  and  N4_12 
REMARK    5  A    between atoms: N4_12  and  C7_14 
REMARK    6  A    between atoms: C7_14  and  C8_15 
ROOT
ATOM      1  S1  <0> d           0.718  -2.114   3.695  0.00  0.00     0.266 S 
ATOM      2  O1  <0> d           1.128  -1.430   4.870  0.00  0.00    -0.200 OA
ATOM      3  O2  <0> d          -0.610  -2.586   3.512  0.00  0.00    -0.200 OA
ENDROOT
BRANCH   1   4
ATOM      4  C4  <0> d           1.061  -1.040   2.341  0.00  0.00     0.143 A 
ATOM      5  C3  <0> d           0.222  -0.751   1.321  0.00  0.00     0.141 A 
ATOM      6  N1  <0> d           0.855   0.106   0.493  0.00  0.00    -0.278 N 
ATOM      7  N2  <0> d           2.131   0.352   1.017  0.00  0.00    -0.153 NA
ATOM      8  C5  <0> d           2.255  -0.331   2.130  0.00  0.00     0.166 A 
BRANCH   6   9
ATOM      9  C2  <0> d           0.307   0.675  -0.740  0.00  0.00     0.146 C 
ATOM     10  C1  <0> d           0.394   2.202  -0.680  0.00  0.00     0.028 C 
ENDBRANCH   6   9
BRANCH   8  11
ATOM     11  N3  <0> d           3.383  -0.354   2.959  0.00  0.00    -0.381 N 
ATOM     12  H7  <0> d           3.392  -0.917   3.750  0.00  0.00     0.157 HD
ATOM     13  H8  <0> d           4.154   0.192   2.744  0.00  0.00     0.157 HD
ENDBRANCH   8  11
ENDBRANCH   1   4
BRANCH   1  14
ATOM     14  N4  <0> d           1.712  -3.429   3.541  0.00  0.00    -0.307 N 
ATOM     15  C6  <0> d           2.971  -3.487   4.288  0.00  0.00     0.163 C 
BRANCH  14  16
ATOM     16  C7  <0> d           1.334  -4.535   2.658  0.00  0.00     0.174 C 
BRANCH  16  17
ATOM     17  C8  <0> d           2.008  -4.364   1.321  0.00  0.00    -0.022 A 
ATOM     18  C13 <0> d           1.692  -5.210   0.273  0.00  0.00     0.018 A 
ATOM     19  C12 <0> d           2.308  -5.049  -0.955  0.00  0.00     0.019 A 
ATOM     20 Br1  <0> d           0.413  -6.581   0.518  0.00  0.00    -0.051 Br
ATOM     21  C11 <0> d           3.246  -4.050  -1.132  0.00  0.00     0.001 A 
ATOM     22  C10 <0> d           3.565  -3.208  -0.083  0.00  0.00     0.001 A 
ATOM     23  C9  <0> d           2.946  -3.364   1.143  0.00  0.00     0.010 A 
ENDBRANCH  16  17
ENDBRANCH  14  16
ENDBRANCH   1  14
TORSDOF 6
