REMARK  6 active torsions:
REMARK  status: ('A' for Active; 'I' for Inactive)
REMARK    1  A    between atoms: C6_7  and  N4_28 
REMARK    2  A    between atoms: C7_8  and  C10_13 
REMARK    3  A    between atoms: C10_13  and  C11_14 
REMARK    4  A    between atoms: N3_17  and  C14_21 
REMARK    5  A    between atoms: N4_28  and  C18_29 
REMARK    6  A    between atoms: C18_29  and  C19_30 
ROOT
ATOM      1  C1  <0> d           3.518  -1.870   0.845  0.00  0.00     0.049 C 
ATOM      2  C2  <0> d           2.362  -0.920   0.661  0.00  0.00    -0.046 A 
ATOM      3  C3  <0> d           2.596   0.460   0.591  0.00  0.00     0.012 A 
ATOM      4  C4  <0> d           1.544   1.312   0.425  0.00  0.00     0.052 A 
ATOM      5  C5  <0> d           0.240   0.794   0.327  0.00  0.00     0.139 A 
ATOM      6  N1  <0> d          -0.782   1.635   0.171  0.00  0.00    -0.212 NA
ATOM      7  C6  <0> d          -2.030   1.202   0.067  0.00  0.00     0.142 A 
ATOM      8  C7  <0> d          -2.294  -0.187   0.134  0.00  0.00     0.080 A 
ATOM      9  C8  <0> d          -1.201  -1.070   0.306  0.00  0.00     0.267 A 
ATOM     10  O1  <0> d          -1.382  -2.274   0.369  0.00  0.00    -0.267 OA
ATOM     11  N2  <0> d           0.044  -0.557   0.399  0.00  0.00    -0.272 N 
ATOM     12  C9  <0> d           1.102  -1.401   0.564  0.00  0.00     0.108 A 
ENDROOT
BRANCH   8  13
ATOM     13  C10 <0> d          -3.616  -0.679   0.033  0.00  0.00     0.045 C 
BRANCH  13  14
ATOM     14  C11 <0> d          -3.979  -1.442  -1.039  0.00  0.00     0.077 A 
ATOM     15  S2  <0> d          -5.508  -2.317  -1.345  0.00  0.00    -0.055 SA
ATOM     16  C13 <0> d          -5.075  -2.999  -2.938  0.00  0.00     0.149 A 
ATOM     17  N3  <0> d          -3.820  -2.531  -3.121  0.00  0.00    -0.292 N 
ATOM     18  S1  <0> d          -6.010  -3.997  -3.969  0.00  0.00    -0.052 SA
ATOM     19  C12 <0> d          -3.242  -1.763  -2.214  0.00  0.00     0.266 A 
ATOM     20  O2  <0> d          -2.111  -1.341  -2.379  0.00  0.00    -0.266 OA
BRANCH  17  21
ATOM     21  C14 <0> d          -3.090  -2.881  -4.342  0.00  0.00     0.109 C 
ATOM     22  C17 <0> d          -3.886  -2.398  -5.587  0.00  0.00     0.166 C 
ATOM     23  S3  <0> d          -3.132  -3.449  -6.899  0.00  0.00     0.146 S 
ATOM     24  C16 <0> d          -2.461  -4.805  -5.854  0.00  0.00     0.142 C 
ATOM     25  O3  <0> d          -2.050  -2.744  -7.492  0.00  0.00    -0.228 OA
ATOM     26  O4  <0> d          -4.165  -3.970  -7.725  0.00  0.00    -0.228 OA
ATOM     27  C15 <0> d          -2.936  -4.409  -4.436  0.00  0.00     0.041 C 
ENDBRANCH  17  21
ENDBRANCH  13  14
ENDBRANCH   8  13
BRANCH   7  28
ATOM     28  N4  <0> d          -3.064   2.097  -0.100  0.00  0.00    -0.368 N 
ATOM     29  H15 <0> d          -4.099   1.733  -0.181  0.00  0.00     0.161 HD
BRANCH  28  30
ATOM     30  C18 <0> d          -2.785   3.533  -0.170  0.00  0.00     0.186 C 
BRANCH  30  31
ATOM     31  C19 <0> d          -4.077   4.287  -0.353  0.00  0.00     0.070 A 
ATOM     32  O5  <0> d          -4.637   4.612  -1.530  0.00  0.00    -0.325 OA
ATOM     33  C22 <0> d          -5.783   5.277  -1.312  0.00  0.00     0.142 A 
ATOM     34  C21 <0> d          -5.961   5.393   0.016  0.00  0.00     0.027 A 
ATOM     35  C20 <0> d          -4.862   4.755   0.634  0.00  0.00     0.036 A 
ENDBRANCH  30  31
ENDBRANCH  28  30
ENDBRANCH   7  28
TORSDOF 6
