REMARK  5 active torsions:
REMARK  status: ('A' for Active; 'I' for Inactive)
REMARK    1  A    between atoms: C5_5  and  N2_8 
REMARK    2  A    between atoms: C14_18  and  S1_19 
REMARK    3  A    between atoms: S1_19  and  C15_20 
REMARK    4  A    between atoms: C15_20  and  C17_22 
REMARK       I    between atoms: C17_22  and  N4_24 
REMARK    5  A    between atoms: N4_24  and  C18_25 
ROOT
ATOM      1  N2  <0> d           3.452   2.246  -0.019  0.00  0.00    -0.241 N 
ATOM      2  C7  <0> d           4.661   1.638  -0.034  0.00  0.00     0.268 A 
ATOM      3  O1  <0> d           4.757   0.425  -0.041  0.00  0.00    -0.267 OA
ATOM      4  C8  <0> d           5.853   2.497  -0.041  0.00  0.00     0.059 A 
ATOM      5  C9  <0> d           7.142   1.966  -0.056  0.00  0.00     0.019 A 
ATOM      6  C10 <0> d           8.218   2.811  -0.063  0.00  0.00     0.001 A 
ATOM      7  C11 <0> d           8.039   4.188  -0.054  0.00  0.00     0.002 A 
ATOM      8  C12 <0> d           6.787   4.735  -0.039  0.00  0.00     0.030 A 
ATOM      9  C13 <0> d           5.667   3.898  -0.032  0.00  0.00     0.050 A 
ATOM     10  N3  <0> d           4.409   4.397  -0.017  0.00  0.00    -0.335 N 
ATOM     11  C14 <0> d           3.361   3.611  -0.016  0.00  0.00     0.156 A 
ATOM     12  H27 <0> d           4.249   5.485  -0.006  0.00  0.00     0.168 HD
ENDROOT
BRANCH  11  13
ATOM     13  S1  <0> d           1.759   4.346  -0.004  0.00  0.00    -0.079 SA
BRANCH  13  14
ATOM     14  C15 <0> d           2.217   6.097  -0.005  0.00  0.00     0.143 C 
ATOM     15  C16 <0> d           2.946   6.435   1.298  0.00  0.00     0.031 C 
BRANCH  14  16
ATOM     16  C17 <0> d           0.974   6.942  -0.118  0.00  0.00     0.231 C 
ATOM     17  O2  <0> d          -0.093   6.503   0.254  0.00  0.00    -0.272 OA
ATOM     18  N4  <0> d           1.049   8.185  -0.633  0.00  0.00    -0.355 N 
ATOM     19  H15 <0> d           2.017   8.583  -0.971  0.00  0.00     0.162 HD
BRANCH  18  20
ATOM     20  C18 <0> d          -0.160   9.006  -0.744  0.00  0.00     0.084 C 
ATOM     21  C23 <0> d           0.228  10.486  -0.745  0.00  0.00     0.025 C 
ATOM     22  C22 <0> d          -1.034  11.343  -0.860  0.00  0.00     0.002 C 
ATOM     23  C21 <0> d          -1.763  11.006  -2.163  0.00  0.00     0.000 C 
ATOM     24  C20 <0> d          -2.150   9.526  -2.162  0.00  0.00     0.002 C 
ATOM     25  C19 <0> d          -0.888   8.668  -2.046  0.00  0.00     0.025 C 
ENDBRANCH  18  20
ENDBRANCH  14  16
ENDBRANCH  13  14
ENDBRANCH  11  13
BRANCH   1  26
ATOM     26  C5  <0> d           2.288   1.473  -0.012  0.00  0.00     0.138 A 
ATOM     27  C4  <0> d           1.719   1.075  -1.216  0.00  0.00     0.052 A 
ATOM     28  C3  <0> d           0.566   0.310  -1.195  0.00  0.00     0.012 A 
ATOM     29  C2  <0> d           0.021  -0.032   0.035  0.00  0.00    -0.044 A 
ATOM     30  C1  <0> d          -1.234  -0.863   0.107  0.00  0.00     0.049 C 
ATOM     31  C6  <0> d           0.639   0.399   1.192  0.00  0.00     0.125 A 
ATOM     32  N1  <0> d           1.738   1.128   1.141  0.00  0.00    -0.242 NA
ENDBRANCH   1  26
TORSDOF 5
