REMARK  8 active torsions:
REMARK  status: ('A' for Active; 'I' for Inactive)
REMARK    1  A    between atoms: C6_6  and  N1_8 
REMARK    2  A    between atoms: C8_9  and  C15_23 
REMARK    3  A    between atoms: C9_12  and  S1_13 
REMARK    4  A    between atoms: S1_13  and  C10_14 
REMARK    5  A    between atoms: C10_14  and  C11_15 
REMARK       I    between atoms: C11_15  and  N4_17 
REMARK    6  A    between atoms: N4_17  and  C12_18 
REMARK    7  A    between atoms: C15_23  and  N6_24 
REMARK       I    between atoms: N6_24  and  C16_25 
REMARK    8  A    between atoms: C16_25  and  C17_27 
ROOT
ATOM      1  N1  <0> d           0.052  -2.798   2.396  0.00  0.00    -0.274 N 
ATOM      2  C8  <0> d          -0.922  -3.633   2.878  0.00  0.00     0.153 A 
ATOM      3  N2  <0> d          -0.509  -4.084   4.029  0.00  0.00    -0.132 NA
ATOM      4  N3  <0> d           0.647  -3.598   4.306  0.00  0.00    -0.122 NA
ATOM      5  C9  <0> d           1.044  -2.807   3.337  0.00  0.00     0.196 A 
ENDROOT
BRANCH   2   6
ATOM      6  C15 <0> d          -2.227  -3.966   2.203  0.00  0.00     0.204 C 
BRANCH   6   7
ATOM      7  N6  <0> d          -2.049  -5.143   1.349  0.00  0.00    -0.350 N 
ATOM      8  C16 <0> d          -3.090  -5.627   0.643  0.00  0.00     0.252 C 
ATOM      9  O2  <0> d          -4.176  -5.087   0.714  0.00  0.00    -0.268 OA
ATOM     10  H15 <0> d          -1.182  -5.574   1.292  0.00  0.00     0.163 HD
BRANCH   8  11
ATOM     11  C17 <0> d          -2.910  -6.815  -0.219  0.00  0.00     0.032 A 
ATOM     12  C22 <0> d          -3.985  -7.319  -0.952  0.00  0.00     0.017 A 
ATOM     13  C21 <0> d          -3.809  -8.424  -1.758  0.00  0.00     0.001 A 
ATOM     14  C20 <0> d          -2.573  -9.040  -1.833  0.00  0.00     0.000 A 
ATOM     15  C19 <0> d          -1.504  -8.549  -1.104  0.00  0.00     0.001 A 
ATOM     16  C18 <0> d          -1.665  -7.441  -0.298  0.00  0.00     0.017 A 
ENDBRANCH   8  11
ENDBRANCH   6   7
ENDBRANCH   2   6
BRANCH   1  17
ATOM     17  C6  <0> d           0.036  -2.088   1.186  0.00  0.00     0.043 A 
ATOM     18  C5  <0> d           0.040  -2.772  -0.022  0.00  0.00     0.030 A 
ATOM     19  C4  <0> d           0.025  -2.071  -1.211  0.00  0.00     0.003 A 
ATOM     20  C3  <0> d           0.006  -0.688  -1.200  0.00  0.00     0.007 A 
ATOM     21  C2  <0> d           0.002  -0.004   0.002  0.00  0.00    -0.060 A 
ATOM     22  C1  <0> d          -0.018   1.503   0.010  0.00  0.00     0.048 C 
ATOM     23  C7  <0> d           0.023  -0.700   1.194  0.00  0.00     0.037 A 
ENDBRANCH   1  17
BRANCH   5  24
ATOM     24  S1  <0> d           2.565  -1.920   3.264  0.00  0.00    -0.080 SA
BRANCH  24  25
ATOM     25  C10 <0> d           3.409  -2.368   4.806  0.00  0.00     0.185 C 
BRANCH  25  26
ATOM     26  C11 <0> d           4.741  -1.667   4.872  0.00  0.00     0.233 C 
ATOM     27  O1  <0> d           5.088  -0.938   3.966  0.00  0.00    -0.272 OA
ATOM     28  N4  <0> d           5.548  -1.851   5.936  0.00  0.00    -0.305 N 
ATOM     29  H10 <0> d           5.271  -2.434   6.659  0.00  0.00     0.171 HD
BRANCH  28  30
ATOM     30  C12 <0> d           6.777  -1.206   5.996  0.00  0.00     0.172 A 
ATOM     31  S2  <0> d           7.940  -1.281   7.210  0.00  0.00    -0.062 SA
ATOM     32  C14 <0> d           9.139  -0.182   6.473  0.00  0.00     0.072 A 
ATOM     33  C13 <0> d           8.501   0.154   5.325  0.00  0.00     0.126 A 
ATOM     34  N5  <0> d           7.312  -0.382   5.120  0.00  0.00    -0.236 NA
ENDBRANCH  28  30
ENDBRANCH  25  26
ENDBRANCH  24  25
ENDBRANCH   5  24
TORSDOF 8
